@<TRIPOS>MOLECULE
tmp/5e1cA00.pdb
 214 202 0 0 0
SMALL
GASTEIGER

@<TRIPOS>ATOM
      1  N         25.9710   -8.6100    3.4340 N.3    39  MET39      -0.1245
      2  CA        26.0560   -7.2530    3.9500 C.3    39  MET39       0.1570
      3  C         26.7410   -6.3350    2.9570 C.2    39  MET39       0.2261
      4  O         26.4290   -5.1500    2.8890 O.2    39  MET39      -0.2867
      5  CB        26.8010   -7.2270    5.2870 C.3    39  MET39       0.0387
      6  CG        26.0950   -7.9750    6.4080 C.3    39  MET39       0.0595
      7  SD        24.3370   -7.5760    6.5080 S.3    39  MET39      -0.1393
      8  CE        24.3620   -5.7940    6.6600 C.3    39  MET39       0.0692
      9  N         23.9340   -5.3770    0.3380 N.3    42  LEU42      -0.1231
     10  CA        22.9350   -4.4820    0.9140 C.3    42  LEU42       0.1693
     11  C         23.5150   -3.1010    1.1990 C.2    42  LEU42       0.2592
     12  O         22.8550   -2.0880    0.9750 O.2    42  LEU42      -0.2718
     13  CB        22.3510   -5.0780    2.1990 C.3    42  LEU42       0.0284
     14  CG        21.6720   -6.4460    2.0890 C.3    42  LEU42       0.0019
     15  CD1       20.9170   -6.7680    3.3900 C.3    42  LEU42       0.0001
     16  CD2       20.7440   -6.5010    0.8890 C.3    42  LEU42       0.0001
     17  N         24.7440   -3.0610    1.6990 N.am   43  THR43      -0.1953
     18  CA        25.3910   -1.7980    2.0480 C.3    43  THR43       0.1897
     19  C         25.6980   -0.9640    0.7970 C.2    43  THR43       0.2313
     20  O         25.3930    0.2290    0.7440 O.2    43  THR43      -0.2863
     21  CB        26.6830   -2.0470    2.8410 C.3    43  THR43       0.1794
     22  OG1       26.3510   -2.5950    4.1240 O.3    43  THR43      -0.2208
     23  CG2       27.4550   -0.7600    3.0400 C.3    43  THR43       0.0378
     24  N         24.2050   -1.1510   -2.0300 N.3    45  LEU45      -0.1231
     25  CA        22.9280   -0.7640   -2.6130 C.3    45  LEU45       0.1693
     26  C         22.2920    0.4040   -1.8620 C.2    45  LEU45       0.2591
     27  O         21.8510    1.3690   -2.4790 O.2    45  LEU45      -0.2718
     28  CB        21.9680   -1.9570   -2.6320 C.3    45  LEU45       0.0284
     29  CG        20.4940   -1.6620   -2.9280 C.3    45  LEU45       0.0019
     30  CD1       20.2830   -1.1380   -4.3610 C.3    45  LEU45       0.0001
     31  CD2       19.6410   -2.9050   -2.6600 C.3    45  LEU45       0.0001
     32  N         22.2490    0.3090   -0.5350 N.am   46  ALA46      -0.1980
     33  CA        21.6640    1.3620    0.2970 C.3    46  ALA46       0.1597
     34  C         22.4040    2.6760    0.0810 C.2    46  ALA46       0.2287
     35  O         21.8130    3.7590    0.1050 O.2    46  ALA46      -0.2864
     36  CB        21.7100    0.9620    1.7620 C.3    46  ALA46       0.0319
     37  N         21.3410    4.2080   -3.1900 N.3    49  GLU49      -0.1245
     38  CA        19.9790    4.6870   -2.9640 C.3    49  GLU49       0.1567
     39  C         19.9340    6.0020   -2.1910 C.2    49  GLU49       0.2260
     40  O         19.0470    6.8290   -2.4150 O.2    49  GLU49      -0.2867
     41  CB        19.1630    3.6460   -2.2030 C.3    49  GLU49       0.0388
     42  CG        18.7540    2.4270   -3.0100 C.3    49  GLU49       0.1160
     43  CD        17.8320    1.5220   -2.2110 C.2    49  GLU49       0.3649
     44  OE1       18.3440    0.7150   -1.4060 O.co2  49  GLU49      -0.2457
     45  OE2       16.5980    1.6390   -2.3690 O.co2  49  GLU49      -0.2457
     46  N         16.5070    8.3750    7.2660 N.3    79  TRP79      -0.1227
     47  CA        16.9770    7.6980    6.0480 C.3    79  TRP79       0.1737
     48  C         16.7340    6.1840    6.0130 C.2    79  TRP79       0.2595
     49  O         16.4100    5.6480    4.9570 O.2    79  TRP79      -0.2718
     50  CB        18.4730    7.9690    5.8080 C.3    79  TRP79       0.0564
     51  CG        19.3990    7.3700    6.8260 C.ar   79  TRP79       0.0003
     52  CD1       19.7850    7.9290    8.0000 C.ar   79  TRP79       0.0946
     53  CD2       20.0700    6.1020    6.7440 C.ar   79  TRP79       0.0152
     54  NE1       20.6410    7.0870    8.6700 N.ar   79  TRP79      -0.2442
     55  CE2       20.8320    5.9570    7.9190 C.ar   79  TRP79       0.0810
     56  CE3       20.0960    5.0750    5.7910 C.ar   79  TRP79       0.0012
     57  CZ2       21.6210    4.8320    8.1710 C.ar   79  TRP79       0.0191
     58  CZ3       20.8720    3.9530    6.0460 C.ar   79  TRP79       0.0001
     59  CH2       21.6230    3.8430    7.2240 C.ar   79  TRP79       0.0015
     60  N         16.9060    5.4880    7.1330 N.am   80  LEU80      -0.1980
     61  CA        16.6960    4.0420    7.1170 C.3    80  LEU80       0.1596
     62  C         15.1920    3.7170    7.0950 C.2    80  LEU80       0.2287
     63  O         14.7690    2.7690    6.4280 O.2    80  LEU80      -0.2864
     64  CB        17.3950    3.3680    8.3090 C.3    80  LEU80       0.0297
     65  CG        17.3700    1.8310    8.2910 C.3    80  LEU80       0.0022
     66  CD1       17.9080    1.2690    6.9700 C.3    80  LEU80       0.0001
     67  CD2       18.1370    1.2600    9.4780 C.3    80  LEU80       0.0001
     68  N         14.3640    4.1180    3.4250 N.3    83  LEU83      -0.1231
     69  CA        14.8340    2.9580    2.6650 C.3    83  LEU83       0.1693
     70  C         13.9470    1.7480    2.9180 C.2    83  LEU83       0.2591
     71  O         13.6480    0.9850    2.0000 O.2    83  LEU83      -0.2718
     72  CB        16.2840    2.6120    3.0190 C.3    83  LEU83       0.0284
     73  CG        17.3880    3.5110    2.4610 C.3    83  LEU83       0.0019
     74  CD1       18.7330    2.9550    2.8660 C.3    83  LEU83       0.0001
     75  CD2       17.2780    3.6600    0.9330 C.3    83  LEU83       0.0001
     76  N         13.5250    1.5790    4.1690 N.am   84  MET84      -0.1979
     77  CA        12.7460    0.4070    4.5460 C.3    84  MET84       0.1605
     78  C         11.3330    0.4410    3.9760 C.2    84  MET84       0.2287
     79  O         10.8280   -0.5860    3.5200 O.2    84  MET84      -0.2864
     80  CB        12.6920    0.2600    6.0730 C.3    84  MET84       0.0413
     81  CG        13.9670   -0.3420    6.6700 C.3    84  MET84       0.0598
     82  SD        13.9650   -0.4480    8.4710 S.3    84  MET84      -0.1393
     83  CE        15.4020   -1.4880    8.7830 C.3    84  MET84       0.0692
     84  N         11.6410   -0.4290    0.4140 N.3    87  LEU87      -0.1245
     85  CA        11.8450   -1.8710    0.2790 C.3    87  LEU87       0.1561
     86  C         10.5470   -2.6570    0.4400 C.2    87  LEU87       0.2260
     87  O         10.2480   -3.5820   -0.3280 O.2    87  LEU87      -0.2867
     88  CB        12.8620   -2.3590    1.3200 C.3    87  LEU87       0.0270
     89  CG        12.9960   -3.8750    1.4700 C.3    87  LEU87       0.0019
     90  CD1       13.5890   -4.5090    0.2070 C.3    87  LEU87       0.0001
     91  CD2       13.8400   -4.1860    2.6770 C.3    87  LEU87       0.0001
     92  N          8.2800   -2.1340   -2.5680 N.3    90  ARG90      -0.1245
     93  CA         8.7440   -2.9090   -3.7230 C.3    90  ARG90       0.1563
     94  C          8.4060   -4.3940   -3.6070 C.2    90  ARG90       0.2260
     95  O          8.2480   -5.0890   -4.6140 O.2    90  ARG90      -0.2867
     96  CB        10.2570   -2.7600   -3.9100 C.3    90  ARG90       0.0307
     97  CG        10.7090   -1.3940   -4.3450 C.3    90  ARG90       0.0489
     98  CD        12.1560   -1.4130   -4.8340 C.3    90  ARG90       0.2205
     99  NE        13.1240   -1.8850   -3.8350 N.pl3  90  ARG90      -0.0865
    100  CZ        13.6660   -1.1210   -2.8910 C.cat  90  ARG90       0.5346
    101  NH1       13.3160    0.1540   -2.7770 N.pl3  90  ARG90       0.1354
    102  NH2       14.5560   -1.6300   -2.0540 N.pl3  90  ARG90       0.1354
    103  N         14.8980   -6.3940   -2.6410 N.3   100  PHE100     -0.1241
    104  CA        15.8760   -5.3380   -2.4300 C.3   100  PHE100      0.1605
    105  C         16.2000   -4.6540   -3.7560 C.2   100  PHE100      0.2264
    106  O         16.3820   -3.4400   -3.8190 O.2   100  PHE100     -0.2867
    107  CB        17.1390   -5.8980   -1.7790 C.3   100  PHE100      0.0534
    108  CG        17.0220   -6.0550   -0.2870 C.ar  100  PHE100     -0.0203
    109  CD1       17.3620   -5.0090    0.5560 C.ar  100  PHE100     -0.0042
    110  CD2       16.5570   -7.2340    0.2670 C.ar  100  PHE100     -0.0042
    111  CE1       17.2510   -5.1410    1.9370 C.ar  100  PHE100     -0.0003
    112  CE2       16.4350   -7.3690    1.6520 C.ar  100  PHE100     -0.0003
    113  CZ        16.7860   -6.3210    2.4800 C.ar  100  PHE100     -0.0000
    114  N         23.4040  -13.8120    8.8550 N.3   114  VAL114     -0.1231
    115  CA        23.6580  -12.5730    9.5850 C.3   114  VAL114      0.1692
    116  C         22.8160  -12.5160   10.8550 C.2   114  VAL114      0.2592
    117  O         21.6060  -12.7390   10.8170 O.2   114  VAL114     -0.2718
    118  CB        23.3590  -11.3260    8.7210 C.3   114  VAL114      0.0266
    119  CG1       23.7160  -10.0570    9.4800 C.3   114  VAL114      0.0020
    120  CG2       24.1220  -11.3910    7.4080 C.3   114  VAL114      0.0020
    121  N         23.4630  -12.2180   11.9770 N.am  115  GLU115     -0.1966
    122  CA        22.7850  -12.1880   13.2680 C.3   115  GLU115      0.1733
    123  C         21.6980  -11.1180   13.3310 C.2   115  GLU115      0.2617
    124  O         21.9430   -9.9460   13.0380 O.2   115  GLU115     -0.2715
    125  CB        23.7930  -11.9610   14.3950 C.3   115  GLU115      0.0429
    126  CG        23.1690  -11.9590   15.7820 C.3   115  GLU115      0.1163
    127  CD        24.0670  -11.3240   16.8230 C.2   115  GLU115      0.3649
    128  OE1       24.8750  -10.4450   16.4570 O.co2 115  GLU115     -0.2457
    129  OE2       23.9680  -11.7040   18.0080 O.co2 115  GLU115     -0.2457
    130  N         20.4950  -11.5350   13.7130 N.am  116  GLY116     -0.1940
    131  CA        19.3730  -10.6240   13.8570 C.3   116  GLY116      0.2014
    132  C         18.6920  -10.2620   12.5510 C.2   116  GLY116      0.2638
    133  O         17.6970   -9.5380   12.5470 O.2   116  GLY116     -0.2714
    134  N         19.2160  -10.7600   11.4350 N.am  117  MET117     -0.1976
    135  CA        18.6340  -10.4180   10.1400 C.3   117  MET117      0.1605
    136  C         17.2740  -11.0910    9.9600 C.2   117  MET117      0.2287
    137  O         16.3310  -10.4610    9.4910 O.2   117  MET117     -0.2864
    138  CB        19.5780  -10.7940    8.9940 C.3   117  MET117      0.0413
    139  CG        18.9950  -10.5000    7.6120 C.3   117  MET117      0.0598
    140  SD        20.1500  -10.7440    6.2450 S.3   117  MET117     -0.1393
    141  CE        21.1500   -9.2680    6.3580 C.3   117  MET117      0.0692
    142  N         14.5480   -9.0510   11.6760 N.3   120  ILE120     -0.1231
    143  CA        14.1130   -7.8280   11.0020 C.3   120  ILE120      0.1692
    144  C         13.4590   -8.1580    9.6630 C.2   120  ILE120      0.2592
    145  O         12.4790   -7.5210    9.2680 O.2   120  ILE120     -0.2718
    146  CB        15.2700   -6.8360   10.7740 C.3   120  ILE120      0.0266
    147  CG1       15.8730   -6.3880   12.1060 C.3   120  ILE120      0.0019
    148  CG2       14.7750   -5.6070   10.0290 C.3   120  ILE120      0.0020
    149  CD1       16.6890   -5.0990   11.9890 C.3   120  ILE120      0.0001
    150  N         14.0010   -9.1560    8.9720 N.am  121  PHE121     -0.1976
    151  CA        13.3830   -9.6460    7.7440 C.3   121  PHE121      0.1639
    152  C         11.9130   -9.9880    7.9790 C.2   121  PHE121      0.2290
    153  O         11.0560   -9.6150    7.1860 O.2   121  PHE121     -0.2864
    154  CB        14.1220  -10.8760    7.2010 C.3   121  PHE121      0.0560
    155  CG        15.2240  -10.5500    6.2210 C.ar  121  PHE121     -0.0200
    156  CD1       15.6670  -11.5080    5.3200 C.ar  121  PHE121     -0.0042
    157  CD2       15.8210   -9.3000    6.2080 C.ar  121  PHE121     -0.0042
    158  CE1       16.6790  -11.2220    4.4130 C.ar  121  PHE121     -0.0003
    159  CE2       16.8340   -9.0020    5.3040 C.ar  121  PHE121     -0.0003
    160  CZ        17.2640   -9.9640    4.4060 C.ar  121  PHE121     -0.0000
    161  N          9.8830   -6.8180    8.3190 N.3   124  LEU124     -0.1245
    162  CA         9.7080   -6.2000    7.0130 C.3   124  LEU124      0.1561
    163  C          8.6700   -6.9580    6.1910 C.2   124  LEU124      0.2260
    164  O          7.8070   -6.3520    5.5660 O.2   124  LEU124     -0.2867
    165  CB        11.0470   -6.1430    6.2720 C.3   124  LEU124      0.0270
    166  CG        12.0630   -5.1740    6.8700 C.3   124  LEU124      0.0019
    167  CD1       13.4720   -5.5020    6.4000 C.3   124  LEU124      0.0001
    168  CD2       11.6810   -3.7520    6.4970 C.3   124  LEU124      0.0001
    169  N         17.4650   -1.6510   13.2080 N.3   209  GLY209     -0.1225
    170  CA        18.4410   -1.6490   12.1320 C.3   209  GLY209      0.1811
    171  C         19.6460   -0.7940   12.4560 C.2   209  GLY209      0.2280
    172  O         20.7840   -1.1820   12.1950 O.2   209  GLY209     -0.2866
    173  N         22.1090   -2.5480   14.6580 N.3   212  HIS212     -0.1226
    174  CA        22.9240   -3.5410   13.9690 C.3   212  HIS212      0.1752
    175  C         23.9820   -2.8730   13.1100 C.2   212  HIS212      0.2595
    176  O         25.0910   -3.3840   12.9660 O.2   212  HIS212     -0.2718
    177  CB        22.0460   -4.4580   13.1210 C.3   212  HIS212      0.0759
    178  CG        21.1540   -5.3460   13.9300 C.ar  212  HIS212      0.0818
    179  ND1       19.7820   -5.3350   13.8080 N.ar  212  HIS212     -0.2268
    180  CD2       21.4420   -6.2730   14.8740 C.ar  212  HIS212      0.1154
    181  CE1       19.2610   -6.2180   14.6430 C.ar  212  HIS212      0.1986
    182  NE2       20.2480   -6.8000   15.3010 N.ar  212  HIS212     -0.2212
    183  N         23.6380   -1.7260   12.5420 N.am  213  LEU213     -0.1980
    184  CA        24.5880   -0.9780   11.7330 C.3   213  LEU213      0.1596
    185  C         25.7700   -0.5140   12.5770 C.2   213  LEU213      0.2287
    186  O         26.9130   -0.5770   12.1360 O.2   213  LEU213     -0.2864
    187  CB        23.8960    0.2070   11.0650 C.3   213  LEU213      0.0297
    188  CG        23.0870   -0.2180    9.8420 C.3   213  LEU213      0.0022
    189  CD1       22.2180    0.9220    9.3110 C.3   213  LEU213      0.0001
    190  CD2       24.0400   -0.7300    8.7600 C.3   213  LEU213      0.0001
    191  N         27.9740   -3.4050   13.2520 N.3   216  MET216     -0.1245
    192  CA        28.6770   -3.8010   12.0380 C.3   216  MET216      0.1570
    193  C         29.8850   -2.8960   11.8230 C.2   216  MET216      0.2261
    194  O         30.9180   -3.3300   11.3110 O.2   216  MET216     -0.2867
    195  CB        27.7470   -3.7560   10.8230 C.3   216  MET216      0.0387
    196  CG        28.2390   -4.6180    9.6720 C.3   216  MET216      0.0595
    197  SD        27.2020   -4.5710    8.2030 S.3   216  MET216     -0.1393
    198  CE        27.4970   -2.9070    7.6170 C.3   216  MET216      0.0692
    199  N         31.5800    0.1000    5.7040 N.3   224  LEU224     -0.1245
    200  CA        30.5740    1.1180    5.4490 C.3   224  LEU224      0.1561
    201  C         31.2460    2.2810    4.7350 C.2   224  LEU224      0.2260
    202  O         32.4170    2.5630    4.9770 O.2   224  LEU224     -0.2867
    203  CB        29.9260    1.5850    6.7520 C.3   224  LEU224      0.0270
    204  CG        28.9520    0.6180    7.4250 C.3   224  LEU224      0.0019
    205  CD1       28.6280    1.0850    8.8360 C.3   224  LEU224      0.0001
    206  CD2       27.6750    0.4970    6.6010 C.3   224  LEU224      0.0001
    207  N         27.6040    6.6730    4.8040 N.3   228  LEU228     -0.1245
    208  CA        26.8540    5.8620    5.7600 C.3   228  LEU228      0.1561
    209  C         27.4010    6.0040    7.1770 C.2   228  LEU228      0.2260
    210  O         26.6410    5.9950    8.1470 O.2   228  LEU228     -0.2867
    211  CB        26.8600    4.3890    5.3440 C.3   228  LEU228      0.0270
    212  CG        25.7300    3.9420    4.4130 C.3   228  LEU228      0.0019
    213  CD1       25.9660    2.5370    3.8810 C.3   228  LEU228      0.0001
    214  CD2       24.3990    4.0120    5.1440 C.3   228  LEU228      0.0001
@<TRIPOS>BOND
     1    98    97    1
     2    98    99    1
     3    95    94    2
     4    30    29    1
     5    97    96    1
     6    96    93    1
     7    99   100    2
     8   106   105    2
     9   105   104    1
    10    93    94    1
    11    93    92    1
    12    37    38    1
    13    42    43    1
    14    42    41    1
    15    38    41    1
    16    38    39    1
    17    29    31    1
    18    29    28    1
    19   100   101    1
    20   100   102    1
    21   103   104    1
    22    28    25    1
    23    25    24    1
    24    25    26    1
    25    27    26    2
    26   104   107    1
    27    40    39    2
    28    45    43   ar
    29    43    44   ar
    30    26    32   am
    31   107   108    1
    32    32    33    1
    33    87    86    2
    34   108   110   ar
    35   108   109   ar
    36    34    35    2
    37    34    33    1
    38    90    89    1
    39   110   112   ar
    40    85    84    1
    41    85    86    1
    42    85    88    1
    43    33    36    1
    44     9    10    1
    45   109   111   ar
    46    20    19    2
    47    19    18    1
    48    16    14    1
    49    10    11    1
    50    10    13    1
    51    75    73    1
    52    12    11    2
    53    11    17   am
    54    88    89    1
    55    89    91    1
    56   112   113   ar
    57    17    18    1
    58   111   113   ar
    59    71    70    2
    60    18    21    1
    61    14    13    1
    62    14    15    1
    63    73    74    1
    64    73    72    1
    65    69    70    1
    66    69    72    1
    67    69    68    1
    68    21    23    1
    69    21    22    1
    70     4     3    2
    71    70    76   am
    72     3     2    1
    73     1     2    1
    74    79    78    2
    75   213   212    1
    76     2     5    1
    77    78    77    1
    78    76    77    1
    79   160   158   ar
    80   160   159   ar
    81   212   214    1
    82   212   211    1
    83   158   156   ar
    84    77    80    1
    85   201   202    2
    86   201   200    1
    87   207   208    1
    88    49    48    2
    89     5     6    1
    90   159   157   ar
    91   156   155   ar
    92   211   208    1
    93   200   199    1
    94   200   203    1
    95   164   163    2
    96   208   209    1
    97    56    58   ar
    98    56    53   ar
    99    50    47    1
   100    50    51    1
   101    48    47    1
   102    48    60   am
   103    58    59   ar
   104    47    46    1
   105    80    81    1
   106   163   162    1
   107   157   155   ar
   108   155   154    1
   109   140   141    1
   110   140   139    1
   111   165   166    1
   112   165   162    1
   113   167   166    1
   114     6     7    1
   115    63    62    2
   116   168   166    1
   117     7     8    1
   118   206   204    1
   119    81    82    1
   120    53    51   ar
   121    53    55   ar
   122   203   204    1
   123    51    52   ar
   124    66    65    1
   125   162   161    1
   126    62    61    1
   127    61    60    1
   128    61    64    1
   129   209   210    2
   130   153   152    2
   131   154   151    1
   132    59    57   ar
   133   120   118    1
   134   204   205    1
   135   139   138    1
   136   198   197    1
   137   151   152    1
   138   151   150    1
   139    55    57   ar
   140    55    54   ar
   141    52    54   ar
   142   197   196    1
   143    65    64    1
   144    65    67    1
   145    82    83    1
   146   118   119    1
   147   118   115    1
   148   190   188    1
   149   114   115    1
   150   150   144   am
   151   138   135    1
   152   145   144    2
   153   189   188    1
   154   137   136    2
   155   115   116    1
   156   144   143    1
   157   196   195    1
   158   188   187    1
   159   136   135    1
   160   148   146    1
   161   135   134    1
   162   146   143    1
   163   146   147    1
   164   117   116    2
   165   195   192    1
   166   116   121   am
   167   143   142    1
   168   187   184    1
   169   194   193    2
   170   134   132   am
   171   184   183    1
   172   184   185    1
   173   193   192    1
   174   121   122    1
   175   149   147    1
   176   192   191    1
   177   170   171    1
   178   170   169    1
   179   186   185    2
   180   172   171    2
   181   183   175   am
   182   133   132    2
   183   132   131    1
   184   176   175    2
   185   124   123    2
   186   175   174    1
   187   177   178    1
   188   177   174    1
   189   122   123    1
   190   122   125    1
   191   123   130   am
   192   130   131    1
   193   179   178   ar
   194   179   181   ar
   195   178   180   ar
   196   174   173    1
   197   125   126    1
   198   181   182   ar
   199   180   182   ar
   200   126   127    1
   201   128   127   ar
   202   127   129   ar
