@<TRIPOS>MOLECULE
tmp/5e1dA00.pdb
 170 165 0 0 0
SMALL
GASTEIGER

@<TRIPOS>ATOM
      1  N          8.3780   45.7660  -23.0330 N.3    23  TYR23      -0.1227
      2  CA         7.3910   45.2310  -22.0760 C.3    23  TYR23       0.1736
      3  C          7.9300   45.3910  -20.6670 C.2    23  TYR23       0.2595
      4  O          7.2520   45.9670  -19.7880 O.2    23  TYR23      -0.2718
      5  CB         7.0680   43.7280  -22.3240 C.3    23  TYR23       0.0548
      6  CG         6.2710   43.0850  -21.1710 C.ar   23  TYR23      -0.0200
      7  CD1        4.8720   43.2270  -21.1160 C.ar   23  TYR23      -0.0009
      8  CD2        6.8830   42.3850  -20.1590 C.ar   23  TYR23      -0.0009
      9  CE1        4.1450   42.6820  -20.0680 C.ar   23  TYR23       0.0417
     10  CE2        6.1490   41.8400  -19.1030 C.ar   23  TYR23       0.0417
     11  CZ         4.8000   41.9890  -19.0770 C.ar   23  TYR23       0.1957
     12  OH         4.1370   41.4400  -18.0030 O.3    23  TYR23      -0.2866
     13  N          9.1320   44.9130  -20.4080 N.am   24  TRP24      -0.1976
     14  CA         9.6560   44.9100  -19.0110 C.3    24  TRP24       0.1640
     15  C          9.9710   46.3050  -18.5540 C.2    24  TRP24       0.2290
     16  O          9.8360   46.5680  -17.3400 O.2    24  TRP24      -0.2864
     17  CB        10.8650   43.9830  -18.9180 C.3    24  TRP24       0.0576
     18  CG        10.4160   42.5660  -18.8570 C.ar   24  TRP24       0.0006
     19  CD1       10.4870   41.5970  -19.8300 C.ar   24  TRP24       0.0946
     20  CD2        9.7200   41.9560  -17.7720 C.ar   24  TRP24       0.0152
     21  NE1        9.9390   40.4440  -19.3890 N.ar   24  TRP24      -0.2442
     22  CE2        9.4400   40.6300  -18.1270 C.ar   24  TRP24       0.0810
     23  CE3        9.3310   42.3980  -16.5100 C.ar   24  TRP24       0.0012
     24  CZ2        8.7670   39.7400  -17.2540 C.ar   24  TRP24       0.0191
     25  CZ3        8.6840   41.5460  -15.6700 C.ar   24  TRP24       0.0001
     26  CH2        8.3990   40.2390  -16.0390 C.ar   24  TRP24       0.0015
     27  N          7.4680   41.3370  -10.9340 N.3    34  MET34      -0.1230
     28  CA         8.2790   40.1890  -11.3230 C.3    34  MET34       0.1702
     29  C          7.4040   38.9800  -11.5860 C.2    34  MET34       0.2592
     30  O          7.8090   38.1170  -12.4080 O.2    34  MET34      -0.2718
     31  CB         9.2590   39.8380  -10.2030 C.3    34  MET34       0.0401
     32  CG        10.2000   40.9280   -9.8100 C.3    34  MET34       0.0596
     33  SD        11.2780   41.6040  -11.0720 S.3    34  MET34      -0.1393
     34  CE        10.3450   43.0130  -11.5760 C.3    34  MET34       0.0692
     35  N          6.3190   38.8150  -10.8300 N.am   35  LEU35      -0.1966
     36  CA         5.5300   37.6160  -10.8680 C.3    35  LEU35       0.1728
     37  C          4.2120   37.7700  -11.5810 C.2    35  LEU35       0.2616
     38  O          3.2720   37.0170  -11.4210 O.2    35  LEU35      -0.2715
     39  CB         5.3590   37.0530   -9.4660 C.3    35  LEU35       0.0311
     40  CG         6.6450   36.5850   -8.7960 C.3    35  LEU35       0.0022
     41  CD1        6.3130   35.9360   -7.4530 C.3    35  LEU35       0.0001
     42  CD2        7.5410   35.7910   -9.6190 C.3    35  LEU35       0.0001
     43  N          4.0720   38.8160  -12.3750 N.am   36  GLY36      -0.1955
     44  CA         2.8960   38.9230  -13.2230 C.3    36  GLY36       0.1869
     45  C          1.5760   39.0020  -12.5090 C.2    36  GLY36       0.2309
     46  O          0.5550   38.5420  -12.9940 O.2    36  GLY36      -0.2863
     47  N          1.0980   37.6480   -9.5310 N.3    38  TYR38      -0.1241
     48  CA         1.0460   36.5110   -8.6140 C.3    38  TYR38       0.1605
     49  C          2.0970   36.6580   -7.5100 C.2    38  TYR38       0.2264
     50  O          2.6800   35.6780   -7.0380 O.2    38  TYR38      -0.2867
     51  CB         1.2180   35.1920   -9.3660 C.3    38  TYR38       0.0534
     52  CG         0.0310   34.7920  -10.1810 C.ar   38  TYR38      -0.0201
     53  CD1       -0.1070   35.2050  -11.5030 C.ar   38  TYR38      -0.0009
     54  CD2       -0.9760   33.9980   -9.6640 C.ar   38  TYR38      -0.0009
     55  CE1       -1.1870   34.8480  -12.2330 C.ar   38  TYR38       0.0417
     56  CE2       -2.0750   33.6210  -10.4240 C.ar   38  TYR38       0.0417
     57  CZ        -2.1850   34.0690  -11.7320 C.ar   38  TYR38       0.1957
     58  OH        -3.2670   33.6750  -12.4830 O.3    38  TYR38      -0.2866
     59  N          2.3230   34.2350   -4.4800 N.3    41  ILE41      -0.1245
     60  CA         2.8740   32.8720   -4.5040 C.3    41  ILE41       0.1561
     61  C          4.3670   32.8370   -4.2270 C.2    41  ILE41       0.2260
     62  O          4.9700   31.7580   -4.2790 O.2    41  ILE41      -0.2867
     63  CB         2.5300   32.1020   -5.8250 C.3    41  ILE41       0.0252
     64  CG1        3.3860   32.5490   -6.9730 C.3    41  ILE41       0.0019
     65  CG2        1.0350   32.0890   -6.0780 C.3    41  ILE41       0.0019
     66  CD1        3.3540   31.5420   -8.1020 C.3    41  ILE41       0.0001
     67  N         12.1550   31.9030  -14.7490 N.3   140  TRP140     -0.1241
     68  CA        11.1410   32.7580  -15.4200 C.3   140  TRP140      0.1605
     69  C         11.7900   33.7350  -16.4050 C.2   140  TRP140      0.2264
     70  O         11.3580   34.8720  -16.5750 O.2   140  TRP140     -0.2867
     71  CB        10.2050   33.3820  -14.3790 C.3   140  TRP140      0.0550
     72  CG         9.1450   32.4280  -13.8940 C.ar  140  TRP140      0.0003
     73  CD1        8.4890   31.5140  -14.6530 C.ar  140  TRP140      0.0946
     74  CD2        8.6460   32.2900  -12.5780 C.ar  140  TRP140      0.0152
     75  NE1        7.5840   30.7900  -13.8740 N.ar  140  TRP140     -0.2442
     76  CE2        7.6750   31.2550  -12.5910 C.ar  140  TRP140      0.0810
     77  CE3        8.9040   32.9310  -11.3780 C.ar  140  TRP140      0.0012
     78  CZ2        7.0360   30.8340  -11.4550 C.ar  140  TRP140      0.0191
     79  CZ3        8.2350   32.5120  -10.2560 C.ar  140  TRP140      0.0001
     80  CH2        7.3220   31.4880  -10.3030 C.ar  140  TRP140      0.0015
     81  N         12.2740   34.0070  -22.8870 N.3   144  HIS144     -0.1241
     82  CA        12.6580   35.2070  -23.6060 C.3   144  HIS144      0.1621
     83  C         13.8550   35.0120  -24.5490 C.2   144  HIS144      0.2264
     84  O         14.2330   35.9700  -25.2170 O.2   144  HIS144     -0.2867
     85  CB        12.9440   36.3220  -22.5960 C.3   144  HIS144      0.0745
     86  CG        11.7230   37.0180  -22.1160 C.ar  144  HIS144      0.0817
     87  ND1       10.8780   37.6430  -22.9720 N.ar  144  HIS144     -0.2268
     88  CD2       11.1620   37.1280  -20.8900 C.ar  144  HIS144      0.1154
     89  CE1        9.8570   38.1770  -22.2860 C.ar  144  HIS144      0.1986
     90  NE2        9.9990   37.8400  -21.0280 N.ar  144  HIS144     -0.2212
     91  N         10.8260   27.1710  -14.7070 N.3   171  ASP171     -0.1225
     92  CA        10.0130   27.9760  -15.6190 C.3   171  ASP171      0.1805
     93  C          8.7010   27.2630  -15.8900 C.2   171  ASP171      0.2597
     94  O          8.4710   26.1280  -15.5120 O.2   171  ASP171     -0.2718
     95  CB        10.7460   28.2800  -16.9420 C.3   171  ASP171      0.1424
     96  CG        10.4460   29.7160  -17.4430 C.2   171  ASP171      0.3668
     97  OD1        9.2800   30.0480  -17.7030 O.co2 171  ASP171     -0.2456
     98  OD2       11.3790   30.4790  -17.6320 O.co2 171  ASP171     -0.2456
     99  N          7.8140   28.0160  -16.5470 N.am  172  ASN172     -0.1974
    100  CA         6.5650   27.4990  -17.0740 C.3   172  ASN172      0.1688
    101  C          6.8270   26.5090  -18.1730 C.2   172  ASN172      0.2292
    102  O          7.7390   26.7340  -18.9830 O.2   172  ASN172     -0.2864
    103  CB         5.7570   28.6320  -17.6860 C.3   172  ASN172      0.1181
    104  CG         5.4710   29.7520  -16.7110 C.2   172  ASN172      0.2629
    105  OD1        5.4110   29.5790  -15.4980 O.2   172  ASN172     -0.2716
    106  ND2        5.2430   30.9430  -17.2440 N.am  172  ASN172     -0.0877
    107  N          3.5860   34.0120  -26.5810 N.3   181  ASP181     -0.1239
    108  CA         2.8330   35.1360  -25.9790 C.3   181  ASP181      0.1674
    109  C          3.3120   36.4080  -26.6740 C.2   181  ASP181      0.2266
    110  O          4.4450   36.8420  -26.4300 O.2   181  ASP181     -0.2867
    111  CB         3.0850   35.1800  -24.4770 C.3   181  ASP181      0.1410
    112  CG         2.2960   36.2550  -23.7650 C.2   181  ASP181      0.3668
    113  OD1        1.9210   37.2120  -24.4200 O.co2 181  ASP181     -0.2456
    114  OD2        2.0560   36.0530  -22.5330 O.co2 181  ASP181     -0.2456
    115  N          3.8830   39.8960  -24.1060 N.3   184  ASP184     -0.1239
    116  CA         5.1570   40.0930  -23.4310 C.3   184  ASP184      0.1674
    117  C          6.3770   39.6270  -24.2660 C.2   184  ASP184      0.2266
    118  O          7.5100   39.8790  -23.8620 O.2   184  ASP184     -0.2867
    119  CB         5.1840   39.5290  -22.0260 C.3   184  ASP184      0.1410
    120  CG         5.1910   38.0360  -21.9480 C.2   184  ASP184      0.3668
    121  OD1        5.2500   37.3670  -22.9910 O.co2 184  ASP184     -0.2456
    122  OD2        5.1600   37.4960  -20.8200 O.co2 184  ASP184     -0.2456
    123  N          7.4350   36.3830  -25.4650 N.3   186  SER186     -0.1217
    124  CA         8.0620   35.2280  -24.8650 C.3   186  SER186      0.1889
    125  C          7.4160   33.9610  -25.3960 C.2   186  SER186      0.2288
    126  O          6.3200   34.0010  -25.9750 O.2   186  SER186     -0.2866
    127  CB         7.9880   35.2560  -23.3290 C.3   186  SER186      0.2089
    128  OG         6.6360   35.0570  -22.9020 O.3   186  SER186     -0.2183
    129  N          6.5470   29.6790  -24.2800 N.3   188  CYS188     -0.1235
    130  CA         6.3560   28.6060  -23.3000 C.3   188  CYS188      0.1677
    131  C          6.6860   27.3300  -24.1240 C.2   188  CYS188      0.2270
    132  O          6.0460   27.1360  -25.1210 O.2   188  CYS188     -0.2867
    133  CB         4.7830   28.5800  -22.7350 C.3   188  CYS188      0.0956
    134  SG         4.8230   27.5660  -21.3230 S.3   188  CYS188     -0.0801
    135  N         -5.0870   27.7530  -12.6400 N.3   217  GLU217     -0.1231
    136  CA        -5.2470   28.3800  -13.9650 C.3   217  GLU217      0.1699
    137  C         -3.9570   28.6520  -14.7030 C.2   217  GLU217      0.2592
    138  O         -4.0170   29.0130  -15.8830 O.2   217  GLU217     -0.2718
    139  CB        -6.0690   29.6680  -13.8630 C.3   217  GLU217      0.0402
    140  CG        -5.3490   30.8460  -13.2320 C.3   217  GLU217      0.1161
    141  CD        -5.4350   30.9050  -11.7240 C.2   217  GLU217      0.3649
    142  OE1       -4.8850   31.9310  -11.2110 O.co2 217  GLU217     -0.2457
    143  OE2       -5.9820   29.9840  -11.0900 O.co2 217  GLU217     -0.2457
    144  N         -2.7920   28.5060  -14.0700 N.am  218  ILE218     -0.1966
    145  CA        -1.5530   28.8920  -14.7000 C.3   218  ILE218      0.1727
    146  C         -0.7970   27.7020  -15.2540 C.2   218  ILE218      0.2616
    147  O         -1.0540   26.5370  -14.9170 O.2   218  ILE218     -0.2715
    148  CB        -0.6500   29.6920  -13.7120 C.3   218  ILE218      0.0290
    149  CG1       -0.1880   28.8560  -12.5210 C.3   218  ILE218      0.0022
    150  CG2       -1.3430   30.9450  -13.2220 C.3   218  ILE218      0.0023
    151  CD1        0.8100   29.5660  -11.6520 C.3   218  ILE218      0.0001
    152  N          0.1240   28.0110  -16.1630 N.am  219  TYR219     -0.1974
    153  CA         0.9930   26.9880  -16.7020 C.3   219  TYR219      0.1639
    154  C          1.6830   26.2510  -15.5810 C.2   219  TYR219      0.2290
    155  O          2.0620   26.8160  -14.5530 O.2   219  TYR219     -0.2864
    156  CB         2.0690   27.5490  -17.6280 C.3   219  TYR219      0.0560
    157  CG         1.5580   28.0480  -18.9840 C.ar  219  TYR219     -0.0198
    158  CD1        1.1980   27.1450  -19.9630 C.ar  219  TYR219     -0.0009
    159  CD2        1.3570   29.4050  -19.2310 C.ar  219  TYR219     -0.0009
    160  CE1        0.6710   27.5710  -21.1920 C.ar  219  TYR219      0.0417
    161  CE2        0.8740   29.8380  -20.4710 C.ar  219  TYR219      0.0417
    162  CZ         0.5080   28.9320  -21.4100 C.ar  219  TYR219      0.1957
    163  OH        -0.0630   29.3910  -22.6190 O.3   219  TYR219     -0.2866
    164  N          4.7530   24.5800  -13.6690 N.3   221  VAL221     -0.1245
    165  CA         6.1130   25.0380  -13.4750 C.3   221  VAL221      0.1561
    166  C          6.9750   23.8500  -13.0690 C.2   221  VAL221      0.2260
    167  O          6.5800   23.0580  -12.2450 O.2   221  VAL221     -0.2867
    168  CB         6.1590   26.1430  -12.3810 C.3   221  VAL221      0.0252
    169  CG1        7.5620   26.5580  -12.0190 C.3   221  VAL221      0.0019
    170  CG2        5.3210   27.3180  -12.8550 C.3   221  VAL221      0.0019
@<TRIPOS>BOND
     1   109   110    2
     2   109   108    1
     3   107   108    1
     4   108   111    1
     5   126   125    2
     6   123   124    1
     7   125   124    1
     8    84    83    2
     9   132   131    2
    10   124   127    1
    11    83    82    1
    12   111   112    1
    13   113   112   ar
    14   129   130    1
    15   117   118    2
    16   117   116    1
    17   131   130    1
    18   115   116    1
    19   112   114   ar
    20    82    81    1
    21    82    85    1
    22   116   119    1
    23   127   128    1
    24   130   133    1
    25     1     2    1
    26   121   120   ar
    27    87    89   ar
    28    87    86   ar
    29   133   134    1
    30   163   162    1
    31    85    86    1
    32     5     2    1
    33     5     6    1
    34    89    90   ar
    35    86    88   ar
    36     2     3    1
    37   119   120    1
    38   120   122   ar
    39   162   160   ar
    40   162   161   ar
    41   160   158   ar
    42     6     7   ar
    43     6     8   ar
    44     7     9   ar
    45    90    88   ar
    46     3    13   am
    47     3     4    2
    48   161   159   ar
    49    13    14    1
    50     8    10   ar
    51     9    11   ar
    52   158   157   ar
    53    19    21   ar
    54    19    18   ar
    55    21    22   ar
    56   159   157   ar
    57    10    11   ar
    58    11    12    1
    59    14    17    1
    60    14    15    1
    61   157   156    1
    62   102   101    2
    63    17    18    1
    64    18    20   ar
    65    15    16    2
    66   101   100    1
    67    22    20   ar
    68    22    24   ar
    69    20    23   ar
    70    97    96   ar
    71   103   100    1
    72   103   104    1
    73    98    96   ar
    74   156   153    1
    75    96    95    1
    76    24    26   ar
    77   106   104   am
    78   100    99    1
    79    95    92    1
    80   104   105    2
    81   153   152    1
    82   153   154    1
    83    70    69    2
    84    99    93   am
    85    23    25   ar
    86    69    68    1
    87   152   146   am
    88    26    25   ar
    89    93    92    1
    90    93    94    2
    91   138   137    2
    92    92    91    1
    93   154   155    2
    94    68    67    1
    95    68    71    1
    96   146   147    2
    97   146   145    1
    98   137   144   am
    99   137   136    1
   100   145   144    1
   101   145   148    1
   102    73    72   ar
   103    73    75   ar
   104    71    72    1
   105   136   139    1
   106   136   135    1
   107    72    74   ar
   108    75    76   ar
   109   139   140    1
   110   148   150    1
   111   148   149    1
   112   164   165    1
   113   165   166    1
   114   165   168    1
   115   140   141    1
   116    44    45    1
   117    44    43    1
   118   166   167    2
   119    46    45    2
   120   170   168    1
   121    76    74   ar
   122    76    78   ar
   123    74    77   ar
   124   149   151    1
   125    58    57    1
   126    30    29    2
   127   168   169    1
   128    43    37   am
   129    55    57   ar
   130    55    53   ar
   131    57    56   ar
   132   141   142   ar
   133   141   143   ar
   134    29    28    1
   135    29    35   am
   136    37    38    2
   137    37    36    1
   138    34    33    1
   139    53    52   ar
   140    78    80   ar
   141    77    79   ar
   142    28    27    1
   143    28    31    1
   144    33    32    1
   145    36    35    1
   146    36    39    1
   147    56    54   ar
   148    80    79   ar
   149    31    32    1
   150    52    54   ar
   151    52    51    1
   152    42    40    1
   153    47    48    1
   154    39    40    1
   155    51    48    1
   156    40    41    1
   157    48    49    1
   158    66    64    1
   159    49    50    2
   160    64    63    1
   161    65    63    1
   162    63    60    1
   163    60    59    1
   164    60    61    1
   165    62    61    2
