@<TRIPOS>MOLECULE
tmp/5e1eA01.pdb
 154 145 0 0 0
SMALL
GASTEIGER

@<TRIPOS>ATOM
      1  N        -14.6950  -10.1190   16.2080 N.3    15  ARG15      -0.1245
      2  CA       -15.5670  -10.3560   17.3710 C.3    15  ARG15       0.1563
      3  C        -15.2180  -11.6840   18.0860 C.2    15  ARG15       0.2260
      4  O        -14.4560  -12.4800   17.5470 O.2    15  ARG15      -0.2867
      5  CB       -17.0500  -10.3940   16.9260 C.3    15  ARG15       0.0307
      6  CG       -17.4130  -11.6370   16.1110 C.3    15  ARG15       0.0489
      7  CD       -18.8670  -11.6340   15.7250 C.3    15  ARG15       0.2205
      8  NE       -19.4250  -12.9830   15.6890 N.pl3  15  ARG15      -0.0865
      9  CZ       -19.7270  -13.6390   14.5780 C.cat  15  ARG15       0.5346
     10  NH1      -19.5010  -13.0880   13.3920 N.pl3  15  ARG15       0.1354
     11  NH2      -20.2820  -14.8480   14.6420 N.pl3  15  ARG15       0.1354
     12  N        -16.1180  -15.5050   19.4800 N.3    17  LEU17      -0.1231
     13  CA       -16.8560  -16.6840   19.0060 C.3    17  LEU17       0.1693
     14  C        -17.2260  -17.5850   20.1660 C.2    17  LEU17       0.2592
     15  O        -18.3550  -18.0780   20.2240 O.2    17  LEU17      -0.2718
     16  CB       -16.0470  -17.4700   17.9520 C.3    17  LEU17       0.0284
     17  CG       -15.7730  -16.7480   16.6260 C.3    17  LEU17       0.0019
     18  CD1      -14.9230  -17.6040   15.7200 C.3    17  LEU17       0.0001
     19  CD2      -17.0780  -16.2930   15.9340 C.3    17  LEU17       0.0001
     20  N        -16.2690  -17.7800   21.0760 N.am   18  GLY18      -0.1957
     21  CA       -16.4240  -18.6010   22.2680 C.3    18  GLY18       0.1869
     22  C        -15.3620  -18.3350   23.3140 C.2    18  GLY18       0.2309
     23  O        -14.3210  -17.7400   23.0140 O.2    18  GLY18      -0.2863
     24  N        -11.8290  -17.8220   21.7810 N.3    25  VAL25      -0.1245
     25  CA       -11.7810  -17.9440   20.3250 C.3    25  VAL25       0.1561
     26  C        -12.4340  -16.6890   19.7460 C.2    25  VAL25       0.2260
     27  O        -13.5030  -16.2750   20.1990 O.2    25  VAL25      -0.2867
     28  CB       -12.3830  -19.2550   19.7540 C.3    25  VAL25       0.0252
     29  CG1      -12.1410  -19.3710   18.2420 C.3    25  VAL25       0.0019
     30  CG2      -11.8230  -20.4740   20.4730 C.3    25  VAL25       0.0019
     31  N        -10.5910  -18.3420   12.6050 N.3    42  ALA42      -0.1245
     32  CA       -10.9390  -18.4450   14.0180 C.3    42  ALA42       0.1562
     33  C         -9.5960  -18.5070   14.7330 C.2    42  ALA42       0.2260
     34  O         -8.7280  -19.3110   14.3680 O.2    42  ALA42      -0.2867
     35  CB       -11.7430  -19.7020   14.2940 C.3    42  ALA42       0.0290
     36  N        -12.2570  -29.9350   12.1440 N.3    69  VAL69      -0.1245
     37  CA       -11.9580  -28.5220   11.8350 C.3    69  VAL69       0.1561
     38  C        -10.4730  -28.3850   11.4240 C.2    69  VAL69       0.2260
     39  O         -9.6070  -28.9930   12.0580 O.2    69  VAL69      -0.2867
     40  CB       -12.3660  -27.5430   12.9730 C.3    69  VAL69       0.0252
     41  CG1      -11.4270  -27.6400   14.1800 C.3    69  VAL69       0.0019
     42  CG2      -12.4380  -26.1130   12.4520 C.3    69  VAL69       0.0019
     43  N         -7.3290  -21.3340   13.0090 N.3    83  MET83      -0.1230
     44  CA        -8.1510  -22.3730   12.3940 C.3    83  MET83       0.1702
     45  C         -9.0270  -21.8030   11.3090 C.2    83  MET83       0.2592
     46  O         -9.1550  -20.5700   11.1970 O.2    83  MET83      -0.2718
     47  CB        -9.0480  -23.0330   13.4440 C.3    83  MET83       0.0401
     48  CG        -8.2880  -23.7900   14.4680 C.3    83  MET83       0.0596
     49  SD        -9.2760  -24.1340   15.9170 S.3    83  MET83      -0.1393
     50  CE        -9.3850  -22.4070   16.6890 C.3    83  MET83       0.0692
     51  N         -9.6500  -22.6850   10.5040 N.am   84  GLU84      -0.1966
     52  CA       -10.6080  -22.2370    9.5000 C.3    84  GLU84       0.1733
     53  C        -11.8840  -21.7230   10.2120 C.2    84  GLU84       0.2616
     54  O        -12.2100  -22.1930   11.3070 O.2    84  GLU84      -0.2715
     55  CB       -10.9410  -23.3450    8.5050 C.3    84  GLU84       0.0429
     56  CG       -11.5700  -24.5830    9.1260 C.3    84  GLU84       0.1163
     57  CD       -12.2110  -25.5680    8.1660 C.2    84  GLU84       0.3649
     58  OE1      -12.4910  -25.2200    6.9950 O.co2  84  GLU84      -0.2457
     59  OE2      -12.4840  -26.6950    8.6200 O.co2  84  GLU84      -0.2457
     60  N        -12.5610  -20.7360    9.6190 N.am   85  PHE85      -0.1960
     61  CA       -13.7930  -20.1750   10.1780 C.3    85  PHE85       0.1771
     62  C        -15.0300  -20.7950    9.5430 C.2    85  PHE85       0.2619
     63  O        -15.1250  -20.8550    8.3180 O.2    85  PHE85      -0.2715
     64  CB       -13.7980  -18.6470   10.0490 C.3    85  PHE85       0.0574
     65  CG       -15.0800  -18.0030   10.5480 C.ar   85  PHE85      -0.0200
     66  CD1      -15.4850  -18.1490   11.8690 C.ar   85  PHE85      -0.0042
     67  CD2      -15.8650  -17.2410    9.7010 C.ar   85  PHE85      -0.0042
     68  CE1      -16.6870  -17.5930   12.3150 C.ar   85  PHE85      -0.0003
     69  CE2      -17.0220  -16.6070   10.1730 C.ar   85  PHE85      -0.0003
     70  CZ       -17.4300  -16.8030   11.4740 C.ar   85  PHE85      -0.0000
     71  N        -15.9580  -21.2960   10.3690 N.am   86  LEU86      -0.1964
     72  CA       -17.2120  -21.8880    9.8920 C.3    86  LEU86       0.1713
     73  C        -18.3450  -20.9510   10.3540 C.2    86  LEU86       0.2458
     74  O        -18.6620  -20.9160   11.5420 O.2    86  LEU86      -0.2730
     75  CB       -17.3620  -23.3130   10.4500 C.3    86  LEU86       0.0310
     76  CG       -16.6600  -24.4490    9.6430 C.3    86  LEU86       0.0022
     77  CD1      -15.1850  -24.3270    9.6780 C.3    86  LEU86       0.0001
     78  CD2      -16.9790  -25.8140   10.2170 C.3    86  LEU86       0.0001
     79  N        -18.8560  -20.0730    9.4440 N.am   87  PRO87      -0.2716
     80  CA       -19.8200  -19.0340    9.8700 C.3    87  PRO87       0.1536
     81  C        -21.1340  -19.5120   10.4780 C.2    87  PRO87       0.2599
     82  O        -21.7740  -18.7230   11.1670 O.2    87  PRO87      -0.2715
     83  CB       -20.0620  -18.2290    8.5870 C.3    87  PRO87       0.0310
     84  CG       -18.9380  -18.5780    7.6780 C.3    87  PRO87       0.0237
     85  CD       -18.5490  -19.9540    7.9960 C.3    87  PRO87       0.0939
     86  N        -21.5300  -20.7750   10.2370 N.am   88  SER88      -0.1936
     87  CA       -22.7660  -21.3430   10.7860 C.3    88  SER88       0.2055
     88  C        -22.6660  -21.6480   12.2830 C.2    88  SER88       0.2644
     89  O        -23.6900  -21.8100   12.9520 O.2    88  SER88      -0.2714
     90  CB       -23.1990  -22.5820   10.0050 C.3    88  SER88       0.2130
     91  OG       -23.5010  -22.2410    8.6620 O.3    88  SER88      -0.2179
     92  N        -21.4570  -21.6810   12.8120 N.am   89  GLY89      -0.1939
     93  CA       -21.2790  -21.9510   14.2240 C.3    89  GLY89       0.2014
     94  C        -21.4530  -23.4110   14.5390 C.2    89  GLY89       0.2639
     95  O        -21.2420  -24.2560   13.6690 O.2    89  GLY89      -0.2714
     96  N        -21.8630  -23.7160   15.7650 N.am   90  SER90      -0.1949
     97  CA       -22.0840  -25.1060   16.1400 C.3    90  SER90       0.1924
     98  C        -23.5410  -25.5960   15.9530 C.2    90  SER90       0.2314
     99  O        -24.4160  -24.8170   15.5920 O.2    90  SER90      -0.2863
    100  CB       -21.6080  -25.3330   17.5670 C.3    90  SER90       0.2116
    101  OG       -22.5480  -24.9060   18.5320 O.3    90  SER90      -0.2180
    102  N        -26.2160  -23.5620   17.7800 N.3    93  GLU93      -0.1245
    103  CA       -26.7280  -22.3280   17.1650 C.3    93  GLU93       0.1567
    104  C        -27.5210  -22.6760   15.9160 C.2    93  GLU93       0.2260
    105  O        -28.5670  -22.0980   15.6350 O.2    93  GLU93      -0.2867
    106  CB       -25.5700  -21.3640   16.7740 C.3    93  GLU93       0.0388
    107  CG       -24.8010  -20.8080   17.9600 C.3    93  GLU93       0.1160
    108  CD       -23.8530  -21.7650   18.6530 C.2    93  GLU93       0.3649
    109  OE1      -23.0510  -22.4050   17.9390 O.co2  93  GLU93      -0.2457
    110  OE2      -23.8510  -21.8160   19.9060 O.co2  93  GLU93      -0.2457
    111  N        -32.4340  -22.9750   14.5090 N.3    97  LYS97      -0.1245
    112  CA       -32.8240  -22.0840   13.3970 C.3    97  LYS97       0.1561
    113  C        -33.0540  -22.7820   12.0510 C.2    97  LYS97       0.2260
    114  O        -33.4610  -22.1140   11.0950 O.2    97  LYS97      -0.2867
    115  CB       -31.7670  -20.9780   13.2150 C.3    97  LYS97       0.0271
    116  CG       -31.6560  -19.9830   14.3620 C.3    97  LYS97       0.0035
    117  CD       -30.4950  -19.0250   14.1190 C.3    97  LYS97       0.0206
    118  CE       -30.5220  -17.8370   15.0560 C.3    97  LYS97       0.1093
    119  NZ       -29.5490  -16.7830   14.6460 N.3    97  LYS97      -0.1314
    120  N        -22.4550  -28.5870   21.1650 N.3   134  ARG134     -0.1231
    121  CA       -21.8720  -27.2440   21.2110 C.3   134  ARG134      0.1694
    122  C        -20.4690  -27.2230   20.5960 C.2   134  ARG134      0.2592
    123  O        -20.0030  -26.1640   20.1870 O.2   134  ARG134     -0.2718
    124  CB       -21.8550  -26.6940   22.6610 C.3   134  ARG134      0.0321
    125  CG       -20.9240  -27.4550   23.6090 C.3   134  ARG134      0.0489
    126  CD       -20.9850  -27.0030   25.0610 C.3   134  ARG134      0.2205
    127  NE       -19.9710  -27.7170   25.8440 N.pl3 134  ARG134     -0.0865
    128  CZ       -20.2030  -28.7940   26.5910 C.cat 134  ARG134      0.5346
    129  NH1      -21.4390  -29.2700   26.7220 N.pl3 134  ARG134      0.1354
    130  NH2      -19.2100  -29.3850   27.2350 N.pl3 134  ARG134      0.1354
    131  N        -19.8130  -28.3910   20.5120 N.am  135  ASN135     -0.1974
    132  CA       -18.4690  -28.5240   19.9610 C.3   135  ASN135      0.1688
    133  C        -18.4460  -29.0950   18.5560 C.2   135  ASN135      0.2292
    134  O        -17.3640  -29.3060   18.0110 O.2   135  ASN135     -0.2864
    135  CB       -17.5740  -29.3100   20.9170 C.3   135  ASN135      0.1181
    136  CG       -17.1450  -28.4950   22.1120 C.2   135  ASN135      0.2629
    137  OD1      -17.0620  -27.2720   22.0490 O.2   135  ASN135     -0.2716
    138  ND2      -16.7940  -29.1460   23.2180 N.am  135  ASN135     -0.0877
    139  N        -19.1540  -28.2860   14.8300 N.3   137  LEU137     -0.1245
    140  CA       -19.2540  -27.1350   13.9590 C.3   137  LEU137      0.1561
    141  C        -19.9360  -27.4740   12.6660 C.2   137  LEU137      0.2260
    142  O        -19.7730  -28.5760   12.1730 O.2   137  LEU137     -0.2867
    143  CB       -17.8490  -26.5010   13.7270 C.3   137  LEU137      0.0270
    144  CG       -17.1590  -25.8160   14.9570 C.3   137  LEU137      0.0019
    145  CD1      -15.7310  -25.4580   14.6340 C.3   137  LEU137      0.0001
    146  CD2      -17.9070  -24.5180   15.3850 C.3   137  LEU137      0.0001
    147  N        -13.0640  -27.7300   18.8320 N.3   148  ASP148     -0.1239
    148  CA       -12.6210  -27.6610   20.2120 C.3   148  ASP148      0.1674
    149  C        -11.8890  -28.9250   20.7140 C.2   148  ASP148      0.2266
    150  O        -12.4850  -29.7950   21.3690 O.2   148  ASP148     -0.2867
    151  CB       -13.7750  -27.2710   21.1480 C.3   148  ASP148      0.1410
    152  CG       -13.3380  -26.8140   22.5280 C.2   148  ASP148      0.3668
    153  OD1      -12.1150  -26.7210   22.7660 O.co2 148  ASP148     -0.2456
    154  OD2      -14.2210  -26.5380   23.3690 O.co2 148  ASP148     -0.2456
@<TRIPOS>BOND
     1    58    57   ar
     2    84    85    1
     3    84    83    1
     4    85    79    1
     5    57    59   ar
     6    57    56    1
     7    63    62    2
     8    55    56    1
     9    55    52    1
    10    83    80    1
    11    91    90    1
    12    79    80    1
    13    79    73   am
    14    52    53    1
    15    52    51    1
    16    62    61    1
    17    62    71   am
    18    60    61    1
    19    60    53   am
    20    76    77    1
    21    76    78    1
    22    76    75    1
    23    67    69   ar
    24    67    65   ar
    25    80    81    1
    26    72    73    1
    27    72    71    1
    28    72    75    1
    29    90    87    1
    30    64    61    1
    31    64    65    1
    32    69    70   ar
    33    53    54    2
    34    86    81   am
    35    86    87    1
    36    73    74    2
    37    81    82    2
    38    51    45   am
    39    65    66   ar
    40    87    88    1
    41   114   113    2
    42    46    45    2
    43    45    44    1
    44    38    37    1
    45    38    39    2
    46    70    68   ar
    47    37    36    1
    48    37    40    1
    49    66    68   ar
    50   113   112    1
    51   142   141    2
    52    88    92   am
    53    88    89    2
    54    44    43    1
    55    44    47    1
    56    42    40    1
    57    31    32    1
    58   141   140    1
    59    92    93    1
    60    40    41    1
    61   115   112    1
    62   115   116    1
    63    10     9    1
    64   112   111    1
    65    47    48    1
    66    95    94    2
    67   143   140    1
    68   143   144    1
    69   140   139    1
    70    32    35    1
    71    32    33    1
    72   117   116    1
    73   117   118    1
    74    93    94    1
    75    34    33    2
    76    48    49    1
    77    94    96   am
    78     9    11    1
    79     9     8    2
    80   145   144    1
    81   119   118    1
    82   144   146    1
    83    99    98    2
    84   105   104    2
    85     8     7    1
    86    18    17    1
    87     7     6    1
    88    96    97    1
    89   104   103    1
    90    49    50    1
    91    19    17    1
    92    98    97    1
    93     6     5    1
    94    97   100    1
    95     1     2    1
    96    17    16    1
    97   106   103    1
    98   106   107    1
    99     5     2    1
   100   103   102    1
   101     2     3    1
   102     4     3    2
   103   100   101    1
   104   109   108   ar
   105    16    13    1
   106   107   108    1
   107   134   133    2
   108    29    28    1
   109   133   132    1
   110   108   110   ar
   111   147   148    1
   112    13    12    1
   113    13    14    1
   114    26    27    2
   115    26    25    1
   116    28    25    1
   117    28    30    1
   118   132   131    1
   119   132   135    1
   120    14    15    2
   121    14    20   am
   122   123   122    2
   123   148   149    1
   124   148   151    1
   125    25    24    1
   126   131   122   am
   127   122   121    1
   128   149   150    2
   129   135   136    1
   130    20    21    1
   131   151   152    1
   132   120   121    1
   133   121   124    1
   134   137   136    2
   135   136   138   am
   136    21    22    1
   137   152   153   ar
   138   152   154   ar
   139   124   125    1
   140    23    22    2
   141   125   126    1
   142   126   127    1
   143   127   128    2
   144   128   129    1
   145   128   130    1
