@<TRIPOS>MOLECULE
tmp/5e1gA00.pdb
 132 128 0 0 0
SMALL
GASTEIGER

@<TRIPOS>ATOM
      1  N         -3.1020    2.7740   60.1170 N.3   247  MET247     -0.1245
      2  CA        -2.2470    3.8920   60.5030 C.3   247  MET247      0.1570
      3  C         -3.0740    5.0890   60.9070 C.2   247  MET247      0.2261
      4  O         -3.7270    5.6940   60.0660 O.2   247  MET247     -0.2867
      5  CB        -1.3330    4.3000   59.3580 C.3   247  MET247      0.0387
      6  CG        -0.4650    3.2020   58.8710 C.3   247  MET247      0.0595
      7  SD         0.7430    2.7370   60.1130 S.3   247  MET247     -0.1393
      8  CE         1.8510    1.8820   58.9950 C.3   247  MET247      0.0692
      9  N          0.2490    9.1140   66.7370 N.3   252  TYR252     -0.1241
     10  CA         1.5730    9.7260   66.7240 C.3   252  TYR252      0.1605
     11  C          1.4910   11.2400   66.8760 C.2   252  TYR252      0.2264
     12  O          2.4260   11.9560   66.5170 O.2   252  TYR252     -0.2867
     13  CB         2.3210    9.3450   65.4410 C.3   252  TYR252      0.0534
     14  CG         2.2580    7.8660   65.1740 C.ar  252  TYR252     -0.0201
     15  CD1        2.8940    6.9620   66.0160 C.ar  252  TYR252     -0.0009
     16  CD2        1.5360    7.3680   64.0990 C.ar  252  TYR252     -0.0009
     17  CE1        2.8210    5.5990   65.7890 C.ar  252  TYR252      0.0417
     18  CE2        1.4580    6.0080   63.8580 C.ar  252  TYR252      0.0417
     19  CZ         2.1040    5.1270   64.7050 C.ar  252  TYR252      0.1957
     20  OH         2.0190    3.7730   64.4680 O.3   252  TYR252     -0.2866
     21  N         -3.9750   11.6850   58.9360 N.3   262  TYR262     -0.1241
     22  CA        -4.2490   10.5320   58.0920 C.3   262  TYR262      0.1605
     23  C         -4.8290    9.3910   58.9080 C.2   262  TYR262      0.2264
     24  O         -4.5910    9.2910   60.1190 O.2   262  TYR262     -0.2867
     25  CB        -2.9720   10.0620   57.3970 C.3   262  TYR262      0.0534
     26  CG        -1.8260    9.8690   58.3660 C.ar  262  TYR262     -0.0201
     27  CD1       -1.7030    8.6970   59.1040 C.ar  262  TYR262     -0.0009
     28  CD2       -0.8790   10.8660   58.5570 C.ar  262  TYR262     -0.0009
     29  CE1       -0.6570    8.5190   59.9850 C.ar  262  TYR262      0.0417
     30  CE2        0.1660   10.7010   59.4440 C.ar  262  TYR262      0.0417
     31  CZ         0.2730    9.5270   60.1550 C.ar  262  TYR262      0.1957
     32  OH         1.3100    9.3600   61.0470 O.3   262  TYR262     -0.2866
     33  N         -5.2910    5.3940   57.5380 N.3   264  THR264     -0.1218
     34  CA        -5.2540    4.5370   56.3580 C.3   264  THR264      0.1862
     35  C         -4.8320    3.1290   56.7160 C.2   264  THR264      0.2287
     36  O         -3.9530    2.9270   57.5570 O.2   264  THR264     -0.2866
     37  CB        -4.2930    5.0830   55.2980 C.3   264  THR264      0.1770
     38  OG1       -4.4260    6.5050   55.2310 O.3   264  THR264     -0.2211
     39  CG2       -4.6080    4.4760   53.9350 C.3   264  THR264      0.0375
     40  N         -2.9940   -0.2470   55.8460 N.3   266  VAL266     -0.1245
     41  CA        -1.9000   -0.6440   54.9660 C.3   266  VAL266      0.1561
     42  C         -1.4430   -2.0640   55.2510 C.2   266  VAL266      0.2260
     43  O         -1.5990   -2.5780   56.3600 O.2   266  VAL266     -0.2867
     44  CB        -0.6970    0.3090   55.0840 C.3   266  VAL266      0.0252
     45  CG1       -1.1040    1.7260   54.7340 C.3   266  VAL266      0.0019
     46  CG2       -0.1020    0.2480   56.4860 C.3   266  VAL266      0.0019
     47  N          7.7920    7.1470   66.4770 N.3   275  SER275     -0.1202
     48  CA         7.2180    8.3260   65.8320 C.3   275  SER275      0.2020
     49  C          6.3710    7.9480   64.6190 C.2   275  SER275      0.2619
     50  O          5.8010    8.8200   63.9680 O.2   275  SER275     -0.2717
     51  CB         8.3170    9.3100   65.4160 C.3   275  SER275      0.2103
     52  OG         9.1560    8.7950   64.3840 O.3   275  SER275     -0.2182
     53  N          6.3080    6.6540   64.3140 N.am  276  GLY276     -0.1956
     54  CA         5.4140    6.1430   63.2860 C.3   276  GLY276      0.1869
     55  C          6.0220    5.8560   61.9220 C.2   276  GLY276      0.2309
     56  O          5.2930    5.7390   60.9290 O.2   276  GLY276     -0.2863
     57  N          7.2800    3.3670   59.3160 N.3   278  PHE278     -0.1241
     58  CA         7.1110    1.9470   58.9860 C.3   278  PHE278      0.1605
     59  C          7.7310    1.6390   57.6250 C.2   278  PHE278      0.2264
     60  O          7.7940    2.5060   56.7530 O.2   278  PHE278     -0.2867
     61  CB         5.6390    1.5340   58.9100 C.3   278  PHE278      0.0534
     62  CG         4.9310    1.4430   60.2340 C.ar  278  PHE278     -0.0203
     63  CD1        4.5470    2.5920   60.9090 C.ar  278  PHE278     -0.0042
     64  CD2        4.5700    0.2140   60.7570 C.ar  278  PHE278     -0.0042
     65  CE1        3.8580    2.5110   62.1050 C.ar  278  PHE278     -0.0003
     66  CE2        3.8860    0.1230   61.9650 C.ar  278  PHE278     -0.0003
     67  CZ         3.5350    1.2730   62.6390 C.ar  278  PHE278     -0.0000
     68  N          6.3880   -0.4610   54.6510 N.3   280  HIS280     -0.1241
     69  CA         5.1080   -1.1010   54.3580 C.3   280  HIS280      0.1621
     70  C          4.7860   -1.1100   52.8730 C.2   280  HIS280      0.2264
     71  O          5.4370   -0.4360   52.0950 O.2   280  HIS280     -0.2867
     72  CB         3.9710   -0.4070   55.1120 C.3   280  HIS280      0.0745
     73  CG         3.6760    0.9720   54.6130 C.ar  280  HIS280      0.0817
     74  ND1        2.8280    1.2140   53.5520 N.ar  280  HIS280     -0.2268
     75  CD2        4.1120    2.1850   55.0280 C.ar  280  HIS280      0.1154
     76  CE1        2.7570    2.5130   53.3350 C.ar  280  HIS280      0.1986
     77  NE2        3.5240    3.1260   54.2170 N.ar  280  HIS280     -0.2212
     78  N          0.2440    2.1170   45.5690 N.3   284  TRP284     -0.1241
     79  CA        -0.0230    3.3750   44.8720 C.3   284  TRP284      0.1605
     80  C          1.2270    4.1070   44.4110 C.2   284  TRP284      0.2264
     81  O          1.1410    4.9660   43.5310 O.2   284  TRP284     -0.2867
     82  CB        -0.8550    4.3170   45.7500 C.3   284  TRP284      0.0550
     83  CG        -0.2620    4.5810   47.0950 C.ar  284  TRP284      0.0003
     84  CD1        0.5850    5.5980   47.4440 C.ar  284  TRP284      0.0946
     85  CD2       -0.4720    3.8100   48.2770 C.ar  284  TRP284      0.0152
     86  NE1        0.9110    5.5020   48.7780 N.ar  284  TRP284     -0.2442
     87  CE2        0.2710    4.4120   49.3100 C.ar  284  TRP284      0.0810
     88  CE3       -1.2240    2.6650   48.5640 C.ar  284  TRP284      0.0012
     89  CZ2        0.2910    3.9020   50.6050 C.ar  284  TRP284      0.0191
     90  CZ3       -1.2000    2.1610   49.8460 C.ar  284  TRP284      0.0001
     91  CH2       -0.4510    2.7810   50.8540 C.ar  284  TRP284      0.0015
     92  N          7.8220   10.2780   47.9920 N.3   294  THR294     -0.1203
     93  CA         6.4250   10.6970   47.9980 C.3   294  THR294      0.1994
     94  C          5.6820   10.5090   49.3160 C.2   294  THR294      0.2619
     95  O          4.5100   10.8680   49.4150 O.2   294  THR294     -0.2717
     96  CB         5.6070    9.9350   46.9190 C.3   294  THR294      0.1784
     97  OG1        5.4050    8.5760   47.3340 O.3   294  THR294     -0.2211
     98  CG2        6.3100    9.9680   45.5750 C.3   294  THR294      0.0376
     99  N          6.3360    9.9440   50.3260 N.am  295  SER295     -0.1937
    100  CA         5.6190    9.5520   51.5390 C.3   295  SER295      0.2055
    101  C          5.5940   10.6250   52.6260 C.2   295  SER295      0.2643
    102  O          6.2440   11.6720   52.5100 O.2   295  SER295     -0.2714
    103  CB         6.2280    8.2720   52.1330 C.3   295  SER295      0.2130
    104  OG         7.3130    8.5800   52.9910 O.3   295  SER295     -0.2179
    105  N          4.8430   10.3260   53.6850 N.am  296  HIS296     -0.1959
    106  CA         4.8190   11.1100   54.9160 C.3   296  HIS296      0.1787
    107  C          6.0380   10.8290   55.8080 C.2   296  HIS296      0.2621
    108  O          6.1420   11.3640   56.9120 O.2   296  HIS296     -0.2715
    109  CB         3.5340   10.8220   55.6990 C.3   296  HIS296      0.0785
    110  CG         2.2890   11.3210   55.0320 C.ar  296  HIS296      0.0821
    111  ND1        1.6890   10.6610   53.9790 N.ar  296  HIS296     -0.2267
    112  CD2        1.5150   12.4040   55.2840 C.ar  296  HIS296      0.1154
    113  CE1        0.6140   11.3290   53.5990 C.ar  296  HIS296      0.1986
    114  NE2        0.4810   12.3880   54.3800 N.ar  296  HIS296     -0.2212
    115  N          6.9480    9.9810   55.3350 N.am  297  GLY297     -0.1940
    116  CA         8.1300    9.6270   56.1090 C.3   297  GLY297      0.2014
    117  C          8.4090    8.1300   56.1020 C.2   297  GLY297      0.2639
    118  O          9.5460    7.6990   56.2910 O.2   297  GLY297     -0.2714
    119  N          7.3660    7.3390   55.8880 N.am  298  CYS298     -0.1967
    120  CA         7.5080    5.8920   55.7530 C.3   298  CYS298      0.1712
    121  C          8.4280    5.4680   54.6160 C.2   298  CYS298      0.2296
    122  O          8.6880    6.2290   53.6680 O.2   298  CYS298     -0.2864
    123  CB         6.1500    5.2370   55.5330 C.3   298  CYS298      0.0983
    124  SG         5.0560    5.2440   56.9370 S.3   298  CYS298     -0.0798
    125  N          8.1570    3.3800   51.7720 N.3   300  ASN300     -0.1240
    126  CA         7.2000    2.7180   50.9010 C.3   300  ASN300      0.1653
    127  C          7.9110    1.7200   50.0170 C.2   300  ASN300      0.2266
    128  O          8.8740    2.0830   49.3560 O.2   300  ASN300     -0.2867
    129  CB         6.4650    3.7360   50.0190 C.3   300  ASN300      0.1155
    130  CG         5.3700    4.4780   50.7610 C.2   300  ASN300      0.2627
    131  OD1        5.2740    4.4180   51.9870 O.2   300  ASN300     -0.2716
    132  ND2        4.5290    5.1790   50.0110 N.am  300  ASN300     -0.0877
@<TRIPOS>BOND
     1    81    80    2
     2    80    79    1
     3    79    78    1
     4    79    82    1
     5    98    96    1
     6    82    83    1
     7    96    97    1
     8    96    93    1
     9    83    84   ar
    10    83    85   ar
    11    84    86   ar
    12    92    93    1
    13    93    94    1
    14    85    88   ar
    15    85    87   ar
    16    88    90   ar
    17    86    87   ar
    18    87    89   ar
    19    94    95    2
    20    94    99   am
    21   128   127    2
    22    90    91   ar
    23   132   130   am
    24   127   126    1
    25   129   130    1
    26   129   126    1
    27    99   100    1
    28    89    91   ar
    29   130   131    2
    30   126   125    1
    31   100   103    1
    32   100   101    1
    33    71    70    2
    34   103   104    1
    35   102   101    2
    36   101   105   am
    37    70    69    1
    38    76    74   ar
    39    76    77   ar
    40    74    73   ar
    41   113   111   ar
    42   113   114   ar
    43   122   121    2
    44   105   106    1
    45    39    37    1
    46   111   110   ar
    47    77    75   ar
    48    69    68    1
    49    69    72    1
    50   114   112   ar
    51    73    75   ar
    52    73    72    1
    53   121   120    1
    54    45    44    1
    55   106   109    1
    56   106   107    1
    57    41    44    1
    58    41    42    1
    59    41    40    1
    60   110   112   ar
    61   110   109    1
    62    44    46    1
    63    38    37    1
    64    42    43    2
    65    37    34    1
    66   115   107   am
    67   115   116    1
    68   123   120    1
    69   123   124    1
    70   120   119    1
    71   107   108    2
    72   119   117   am
    73   117   116    1
    74   117   118    2
    75    34    35    1
    76    34    33    1
    77    35    36    2
    78    60    59    2
    79    25    22    1
    80    25    26    1
    81    59    58    1
    82    22    23    1
    83    22    21    1
    84    26    28   ar
    85    26    27   ar
    86    28    30   ar
    87     6     5    1
    88     6     7    1
    89    23    24    2
    90    61    58    1
    91    61    62    1
    92    58    57    1
    93     8     7    1
    94    27    29   ar
    95     5     2    1
    96    30    31   ar
    97    29    31   ar
    98     4     3    2
    99     1     2    1
   100    31    32    1
   101    62    64   ar
   102    62    63   ar
   103     2     3    1
   104    64    66   ar
   105    63    65   ar
   106    56    55    2
   107    55    54    1
   108    66    67   ar
   109    65    67   ar
   110    54    53    1
   111    18    16   ar
   112    18    19   ar
   113    50    49    2
   114    16    14   ar
   115    53    49   am
   116    52    51    1
   117    20    19    1
   118    49    48    1
   119    19    17   ar
   120    14    13    1
   121    14    15   ar
   122    51    48    1
   123    13    10    1
   124    17    15   ar
   125    48    47    1
   126    12    11    2
   127    10     9    1
   128    10    11    1
