@<TRIPOS>MOLECULE
tmp/5e1iA00.pdb
 139 136 0 0 0
SMALL
GASTEIGER

@<TRIPOS>ATOM
      1  N         58.0740    2.9630   60.0890 N.3   247  MET247     -0.1245
      2  CA        58.9230    4.0770   60.4850 C.3   247  MET247      0.1570
      3  C         58.1040    5.2700   60.9030 C.2   247  MET247      0.2261
      4  O         57.4220    5.8570   60.0860 O.2   247  MET247     -0.2867
      5  CB        59.8260    4.4940   59.3390 C.3   247  MET247      0.0387
      6  CG        60.6400    3.3870   58.7970 C.3   247  MET247      0.0595
      7  SD        61.9120    2.8920   59.9460 S.3   247  MET247     -0.1393
      8  CE        63.0940    2.3520   58.7090 C.3   247  MET247      0.0692
      9  N         61.4240    9.5000   66.7440 N.3   252  TYR252     -0.1241
     10  CA        62.6950   10.2130   66.7620 C.3   252  TYR252      0.1605
     11  C         62.4970   11.7180   66.8690 C.2   252  TYR252      0.2264
     12  O         63.3270   12.4890   66.3950 O.2   252  TYR252     -0.2867
     13  CB        63.5030    9.8630   65.5130 C.3   252  TYR252      0.0534
     14  CG        63.4990    8.3860   65.2630 C.ar  252  TYR252     -0.0201
     15  CD1       64.0830    7.5170   66.1710 C.ar  252  TYR252     -0.0009
     16  CD2       62.8850    7.8500   64.1400 C.ar  252  TYR252     -0.0009
     17  CE1       64.0680    6.1460   65.9670 C.ar  252  TYR252      0.0417
     18  CE2       62.8680    6.4810   63.9200 C.ar  252  TYR252      0.0417
     19  CZ        63.4630    5.6340   64.8420 C.ar  252  TYR252      0.1957
     20  OH        63.4530    4.2720   64.6420 O.3   252  TYR252     -0.2866
     21  N         57.2770   11.7750   58.8100 N.3   262  TYR262     -0.1241
     22  CA        56.9410   10.6460   57.9470 C.3   262  TYR262      0.1605
     23  C         56.3470    9.5250   58.7840 C.2   262  TYR262      0.2264
     24  O         56.5830    9.4510   59.9880 O.2   262  TYR262     -0.2867
     25  CB        58.1810   10.1430   57.2040 C.3   262  TYR262      0.0534
     26  CG        59.3680    9.9450   58.1260 C.ar  262  TYR262     -0.0201
     27  CD1       59.4660    8.8230   58.9370 C.ar  262  TYR262     -0.0009
     28  CD2       60.3780   10.8950   58.2040 C.ar  262  TYR262     -0.0009
     29  CE1       60.5450    8.6400   59.7780 C.ar  262  TYR262      0.0417
     30  CE2       61.4580   10.7240   59.0450 C.ar  262  TYR262      0.0417
     31  CZ        61.5370    9.5970   59.8330 C.ar  262  TYR262      0.1957
     32  OH        62.6100    9.4210   60.6810 O.3   262  TYR262     -0.2866
     33  N         55.9480    5.5770   57.4480 N.3   264  THR264     -0.1218
     34  CA        55.9730    4.6740   56.3070 C.3   264  THR264      0.1862
     35  C         56.3750    3.2630   56.7040 C.2   264  THR264      0.2287
     36  O         57.2730    3.0610   57.5200 O.2   264  THR264     -0.2866
     37  CB        56.9430    5.1760   55.2160 C.3   264  THR264      0.1770
     38  OG1       56.6620    6.5490   54.9150 O.3   264  THR264     -0.2211
     39  CG2       56.7910    4.3470   53.9530 C.3   264  THR264      0.0375
     40  N         58.1890   -0.1360   55.8620 N.3   266  VAL266     -0.1245
     41  CA        59.2960   -0.5100   54.9910 C.3   266  VAL266      0.1561
     42  C         59.7300   -1.9400   55.2350 C.2   266  VAL266      0.2260
     43  O         59.5080   -2.5090   56.3060 O.2   266  VAL266     -0.2867
     44  CB        60.5150    0.4130   55.1640 C.3   266  VAL266      0.0252
     45  CG1       60.1370    1.8570   54.8980 C.3   266  VAL266      0.0019
     46  CG2       61.0970    0.2670   56.5610 C.3   266  VAL266      0.0019
     47  N         68.9630    7.3370   66.5650 N.3   275  SER275     -0.1202
     48  CA        68.4090    8.5090   65.8890 C.3   275  SER275      0.2020
     49  C         67.6000    8.1520   64.6350 C.2   275  SER275      0.2619
     50  O         67.0670    9.0360   63.9720 O.2   275  SER275     -0.2717
     51  CB        69.5330    9.4780   65.5190 C.3   275  SER275      0.2103
     52  OG        70.3730    8.9350   64.5100 O.3   275  SER275     -0.2182
     53  N         67.5130    6.8660   64.3060 N.am  276  GLY276     -0.1942
     54  CA        66.6340    6.4230   63.2320 C.3   276  GLY276      0.2014
     55  C         67.2510    6.0550   61.8930 C.2   276  GLY276      0.2639
     56  O         66.5350    5.9280   60.8930 O.2   276  GLY276     -0.2714
     57  N         68.5690    5.8940   61.8390 N.am  277  VAL277     -0.1963
     58  CA        69.1850    5.4680   60.5920 C.3   277  VAL277      0.1727
     59  C         69.0380    3.9590   60.4580 C.2   277  VAL277      0.2616
     60  O         69.3780    3.2090   61.3880 O.2   277  VAL277     -0.2715
     61  CB        70.6750    5.8730   60.5030 C.3   277  VAL277      0.0290
     62  CG1       71.3060    5.3000   59.2540 C.3   277  VAL277      0.0023
     63  CG2       70.8190    7.3860   60.4850 C.3   277  VAL277      0.0023
     64  N         68.4940    3.5290   59.3130 N.am  278  PHE278     -0.1974
     65  CA        68.3260    2.1150   58.9720 C.3   278  PHE278      0.1639
     66  C         68.9420    1.8020   57.6080 C.2   278  PHE278      0.2290
     67  O         68.9910    2.6580   56.7210 O.2   278  PHE278     -0.2864
     68  CB        66.8470    1.7080   58.9040 C.3   278  PHE278      0.0560
     69  CG        66.1460    1.6480   60.2240 C.ar  278  PHE278     -0.0200
     70  CD1       65.7290    2.8060   60.8610 C.ar  278  PHE278     -0.0042
     71  CD2       65.8440    0.4290   60.7990 C.ar  278  PHE278     -0.0042
     72  CE1       65.0570    2.7440   62.0700 C.ar  278  PHE278     -0.0003
     73  CE2       65.1700    0.3580   62.0060 C.ar  278  PHE278     -0.0003
     74  CZ        64.7750    1.5210   62.6400 C.ar  278  PHE278     -0.0000
     75  N         67.5860   -0.3950   54.7130 N.3   280  HIS280     -0.1241
     76  CA        66.2950   -1.0170   54.4230 C.3   280  HIS280      0.1621
     77  C         65.9500   -1.0600   52.9320 C.2   280  HIS280      0.2264
     78  O         66.6180   -0.4410   52.1070 O.2   280  HIS280     -0.2867
     79  CB        65.1770   -0.2800   55.1630 C.3   280  HIS280      0.0745
     80  CG        64.9210    1.0980   54.6270 C.ar  280  HIS280      0.0817
     81  ND1       64.0510    1.3430   53.5860 N.ar  280  HIS280     -0.2268
     82  CD2       65.4410    2.2960   54.9760 C.ar  280  HIS280      0.1154
     83  CE1       64.0400    2.6390   53.3240 C.ar  280  HIS280      0.1986
     84  NE2       64.8730    3.2380   54.1520 N.ar  280  HIS280     -0.2212
     85  N         61.4670    2.2960   45.6290 N.3   284  TRP284     -0.1241
     86  CA        61.1630    3.5550   44.9550 C.3   284  TRP284      0.1605
     87  C         62.4030    4.2820   44.4710 C.2   284  TRP284      0.2264
     88  O         62.3090    5.1480   43.6000 O.2   284  TRP284     -0.2867
     89  CB        60.3510    4.4820   45.8680 C.3   284  TRP284      0.0550
     90  CG        60.9930    4.8000   47.1820 C.ar  284  TRP284      0.0003
     91  CD1       61.8330    5.8410   47.4590 C.ar  284  TRP284      0.0946
     92  CD2       60.8270    4.0820   48.4120 C.ar  284  TRP284      0.0152
     93  NE1       62.2050    5.8110   48.7830 N.ar  284  TRP284     -0.2442
     94  CE2       61.6010    4.7400   49.3890 C.ar  284  TRP284      0.0810
     95  CE3       60.1020    2.9420   48.7800 C.ar  284  TRP284      0.0012
     96  CZ2       61.6770    4.2940   50.7050 C.ar  284  TRP284      0.0191
     97  CZ3       60.1780    2.5000   50.0900 C.ar  284  TRP284      0.0001
     98  CH2       60.9570    3.1750   51.0350 C.ar  284  TRP284      0.0015
     99  N         69.0930   10.4610   48.0100 N.3   294  THR294     -0.1203
    100  CA        67.7060   10.9050   48.0010 C.3   294  THR294      0.1994
    101  C         66.9260   10.6770   49.3040 C.2   294  THR294      0.2619
    102  O         65.7490   11.0210   49.3760 O.2   294  THR294     -0.2717
    103  CB        66.9030   10.2060   46.8680 C.3   294  THR294      0.1784
    104  OG1       66.8910    8.7900   47.0870 O.3   294  THR294     -0.2211
    105  CG2       67.5010   10.5080   45.5010 C.3   294  THR294      0.0376
    106  N         67.5490   10.1010   50.3300 N.am  295  SER295     -0.1937
    107  CA        66.7880    9.7190   51.5290 C.3   295  SER295      0.2055
    108  C         66.7960   10.7720   52.6290 C.2   295  SER295      0.2643
    109  O         67.4450   11.8140   52.5040 O.2   295  SER295     -0.2714
    110  CB        67.3230    8.4070   52.1210 C.3   295  SER295      0.2130
    111  OG        68.4410    8.6390   52.9550 O.3   295  SER295     -0.2179
    112  N         66.0860   10.4590   53.7150 N.am  296  HIS296     -0.1959
    113  CA        66.0910   11.2530   54.9470 C.3   296  HIS296      0.1787
    114  C         67.3250   11.0080   55.8290 C.2   296  HIS296      0.2621
    115  O         67.4580   11.6030   56.8970 O.2   296  HIS296     -0.2715
    116  CB        64.8320   10.9570   55.7710 C.3   296  HIS296      0.0785
    117  CG        63.5850   11.5870   55.2320 C.ar  296  HIS296      0.0821
    118  ND1       63.6020   12.7060   54.4270 N.ar  296  HIS296     -0.2267
    119  CD2       62.2810   11.2600   55.3960 C.ar  296  HIS296      0.1154
    120  CE1       62.3610   13.0380   54.1120 C.ar  296  HIS296      0.1986
    121  NE2       61.5410   12.1790   54.6890 N.ar  296  HIS296     -0.2212
    122  N         68.2120   10.1180   55.3950 N.am  297  GLY297     -0.1940
    123  CA        69.3900    9.7760   56.1760 C.3   297  GLY297      0.2014
    124  C         69.6460    8.2780   56.1590 C.2   297  GLY297      0.2639
    125  O         70.7750    7.8200   56.3290 O.2   297  GLY297     -0.2714
    126  N         68.5840    7.5180   55.9370 N.am  298  CYS298     -0.1967
    127  CA        68.6690    6.0670   55.8260 C.3   298  CYS298      0.1712
    128  C         69.5580    5.6160   54.6770 C.2   298  CYS298      0.2296
    129  O         69.8740    6.3860   53.7550 O.2   298  CYS298     -0.2864
    130  CB        67.2790    5.4570   55.6420 C.3   298  CYS298      0.0983
    131  SG        66.2380    5.4200   57.1100 S.3   298  CYS298     -0.0798
    132  N         69.2230    3.6050   51.7870 N.3   300  ASN300     -0.1240
    133  CA        68.3470    2.9570   50.8270 C.3   300  ASN300      0.1653
    134  C         69.1210    1.9320   50.0060 C.2   300  ASN300      0.2266
    135  O         70.1210    2.2780   49.4000 O.2   300  ASN300     -0.2867
    136  CB        67.7310    3.9930   49.8790 C.3   300  ASN300      0.1155
    137  CG        66.5330    4.7140   50.4750 C.2   300  ASN300      0.2627
    138  OD1       65.6990    5.2580   49.7420 O.2   300  ASN300     -0.2716
    139  ND2       66.4360    4.7200   51.7940 N.am  300  ASN300     -0.0877
@<TRIPOS>BOND
     1    88    87    2
     2    87    86    1
     3    86    85    1
     4    86    89    1
     5   105   103    1
     6    89    90    1
     7   103   104    1
     8   103   100    1
     9    90    91   ar
    10    90    92   ar
    11    91    93   ar
    12   100    99    1
    13   100   101    1
    14    92    95   ar
    15    92    94   ar
    16    95    97   ar
    17    93    94   ar
    18   101   102    2
    19   101   106   am
    20    94    96   ar
    21   135   134    2
    22   138   137    2
    23   136   137    1
    24   136   133    1
    25   134   133    1
    26    97    98   ar
    27   106   107    1
    28   137   139   am
    29    96    98   ar
    30   133   132    1
    31   107   110    1
    32   107   108    1
    33    78    77    2
    34   110   111    1
    35   109   108    2
    36   108   112   am
    37    77    76    1
    38    83    81   ar
    39    83    84   ar
    40    81    80   ar
    41   112   113    1
    42   129   128    2
    43    39    37    1
    44   120   118   ar
    45   120   121   ar
    46    84    82   ar
    47    76    75    1
    48    76    79    1
    49   118   117   ar
    50    80    82   ar
    51    80    79    1
    52   128   127    1
    53   121   119   ar
    54    45    44    1
    55    38    37    1
    56   113   116    1
    57   113   114    1
    58    41    44    1
    59    41    42    1
    60    41    40    1
    61    44    46    1
    62    37    34    1
    63   117   119   ar
    64   117   116    1
    65    42    43    2
    66   122   114   am
    67   122   123    1
    68   130   127    1
    69   130   131    1
    70   127   126    1
    71   114   115    2
    72   126   124   am
    73   124   123    1
    74   124   125    2
    75    34    35    1
    76    34    33    1
    77    35    36    2
    78    67    66    2
    79    25    22    1
    80    25    26    1
    81    66    65    1
    82    22    23    1
    83    22    21    1
    84    26    28   ar
    85    26    27   ar
    86    28    30   ar
    87     8     7    1
    88    23    24    2
    89     6     5    1
    90     6     7    1
    91    68    65    1
    92    68    69    1
    93    27    29   ar
    94    65    64    1
    95    30    31   ar
    96    62    61    1
    97    64    59   am
    98     5     2    1
    99    29    31   ar
   100    31    32    1
   101     4     3    2
   102     1     2    1
   103    69    71   ar
   104    69    70   ar
   105    59    58    1
   106    59    60    2
   107     2     3    1
   108    63    61    1
   109    61    58    1
   110    58    57    1
   111    71    73   ar
   112    70    72   ar
   113    56    55    2
   114    57    55   am
   115    55    54    1
   116    73    74   ar
   117    72    74   ar
   118    54    53    1
   119    18    16   ar
   120    18    19   ar
   121    50    49    2
   122    16    14   ar
   123    53    49   am
   124    52    51    1
   125    49    48    1
   126    20    19    1
   127    19    17   ar
   128    14    13    1
   129    14    15   ar
   130    13    10    1
   131    51    48    1
   132    48    47    1
   133    17    15   ar
   134    12    11    2
   135     9    10    1
   136    10    11    1
