@<TRIPOS>MOLECULE
tmp/5e1mB00.pdb
 155 151 0 0 0
SMALL
GASTEIGER

@<TRIPOS>ATOM
      1  N          7.8040   31.3920    6.3490 N.3    22  TYR22      -0.1227
      2  CA         6.8260   31.6030    5.2950 C.3    22  TYR22       0.1736
      3  C          6.5440   33.0940    5.1140 C.2    22  TYR22       0.2595
      4  O          6.5830   33.6210    3.9980 O.2    22  TYR22      -0.2718
      5  CB         5.5180   30.8290    5.5870 C.3    22  TYR22       0.0548
      6  CG         4.5340   31.0130    4.4580 C.ar   22  TYR22      -0.0200
      7  CD1        4.6910   30.2550    3.3130 C.ar   22  TYR22      -0.0009
      8  CD2        3.5490   32.0290    4.4810 C.ar   22  TYR22      -0.0009
      9  CE1        3.8850   30.4340    2.2330 C.ar   22  TYR22       0.0417
     10  CE2        2.7010   32.2070    3.3800 C.ar   22  TYR22       0.0417
     11  CZ         2.9190   31.3800    2.2760 C.ar   22  TYR22       0.1957
     12  OH         2.1940   31.4740    1.0900 O.3    22  TYR22      -0.2866
     13  N          6.1680   33.7630    6.2170 N.am   23  TRP23      -0.1976
     14  CA         5.7470   35.1400    6.1350 C.3    23  TRP23       0.1640
     15  C          6.8910   36.1160    5.8560 C.2    23  TRP23       0.2290
     16  O          6.6590   37.1530    5.2250 O.2    23  TRP23      -0.2864
     17  CB         4.9640   35.5390    7.4220 C.3    23  TRP23       0.0576
     18  CG         3.6090   34.9280    7.4170 C.ar   23  TRP23       0.0006
     19  CD1        3.1820   33.8500    8.1140 C.ar   23  TRP23       0.0946
     20  CD2        2.5240   35.3100    6.5610 C.ar   23  TRP23       0.0152
     21  NE1        1.8990   33.5700    7.8120 N.ar   23  TRP23      -0.2442
     22  CE2        1.4560   34.4590    6.8530 C.ar   23  TRP23       0.0810
     23  CE3        2.3420   36.3470    5.6480 C.ar   23  TRP23       0.0012
     24  CZ2        0.2290   34.5540    6.1950 C.ar   23  TRP23       0.0191
     25  CZ3        1.1220   36.4550    4.9920 C.ar   23  TRP23       0.0001
     26  CH2        0.0750   35.5840    5.2830 C.ar   23  TRP23       0.0015
     27  N         -0.8100   40.0030    2.2030 N.3    33  MET33      -0.1230
     28  CA        -1.5430   39.7820    3.4900 C.3    33  MET33       0.1702
     29  C         -2.6890   38.7730    3.2280 C.2    33  MET33       0.2592
     30  O         -2.9860   37.8960    4.0820 O.2    33  MET33      -0.2718
     31  CB        -2.1110   41.0690    4.0580 C.3    33  MET33       0.0401
     32  CG        -1.1160   42.1980    4.4240 C.3    33  MET33       0.0596
     33  SD         0.1820   41.6590    5.5750 S.3    33  MET33      -0.1393
     34  CE         1.5420   41.2480    4.4840 C.3    33  MET33       0.0692
     35  N         -3.3410   38.9060    2.0650 N.am   34  LEU34      -0.1966
     36  CA        -4.5860   38.1540    1.7830 C.3    34  LEU34       0.1728
     37  C         -4.3770   37.0120    0.8300 C.2    34  LEU34       0.2616
     38  O         -5.3500   36.4680    0.2830 O.2    34  LEU34      -0.2715
     39  CB        -5.6800   39.1280    1.2850 C.3    34  LEU34       0.0311
     40  CG        -6.0840   40.2230    2.2870 C.3    34  LEU34       0.0022
     41  CD1       -7.2680   41.0380    1.7950 C.3    34  LEU34       0.0001
     42  CD2       -6.4120   39.5790    3.6360 C.3    34  LEU34       0.0001
     43  N         -3.1140   36.5880    0.6130 N.am   35  GLY35      -0.1955
     44  CA        -2.9120   35.3570   -0.1040 C.3    35  GLY35       0.1869
     45  C         -3.4860   35.2820   -1.5040 C.2    35  GLY35       0.2309
     46  O         -3.9620   34.2370   -1.9610 O.2    35  GLY35      -0.2863
     47  N         -5.9680   37.1860   -2.4840 N.3    37  TYR37      -0.1241
     48  CA        -7.3480   37.6760   -2.4070 C.3    37  TYR37       0.1605
     49  C         -7.3990   39.1220   -1.9890 C.2    37  TYR37       0.2264
     50  O         -8.3460   39.5710   -1.3540 O.2    37  TYR37      -0.2867
     51  CB        -8.2160   36.8060   -1.4830 C.3    37  TYR37       0.0534
     52  CG        -8.5000   35.4640   -2.0500 C.ar   37  TYR37      -0.0201
     53  CD1       -9.5840   35.2490   -2.9370 C.ar   37  TYR37      -0.0009
     54  CD2       -7.6940   34.3810   -1.7240 C.ar   37  TYR37      -0.0009
     55  CE1       -9.8220   34.0070   -3.4750 C.ar   37  TYR37       0.0417
     56  CE2       -7.9200   33.1360   -2.2510 C.ar   37  TYR37       0.0417
     57  CZ        -8.9880   32.9550   -3.1390 C.ar   37  TYR37       0.1957
     58  OH        -9.2190   31.6950   -3.6550 O.3    37  TYR37      -0.2866
     59  N        -10.6860   41.1650   -2.0920 N.3    40  ILE40      -0.1245
     60  CA       -11.8320   41.0720   -1.1280 C.3    40  ILE40       0.1561
     61  C        -11.6720   42.0270    0.0570 C.2    40  ILE40       0.2260
     62  O        -12.4700   41.9910    0.9800 O.2    40  ILE40      -0.2867
     63  CB       -12.1260   39.6340   -0.6080 C.3    40  ILE40       0.0252
     64  CG1      -11.0520   39.1670    0.3640 C.3    40  ILE40       0.0019
     65  CG2      -12.2480   38.6510   -1.7820 C.3    40  ILE40       0.0019
     66  CD1      -11.3700   37.8850    1.0870 C.3    40  ILE40       0.0001
     67  N         -7.1780   36.6140   10.9350 N.3   139  TRP139     -0.1241
     68  CA        -6.3410   35.8330    9.9900 C.3   139  TRP139      0.1605
     69  C         -4.9620   35.5650   10.5820 C.2   139  TRP139      0.2264
     70  O         -3.9170   35.6230    9.8950 O.2   139  TRP139     -0.2867
     71  CB        -6.3320   36.4390    8.5690 C.3   139  TRP139      0.0550
     72  CG        -7.5750   36.0650    7.8010 C.ar  139  TRP139      0.0003
     73  CD1       -8.1930   34.8710    7.8040 C.ar  139  TRP139      0.0946
     74  CD2       -8.3470   36.9160    6.9400 C.ar  139  TRP139      0.0152
     75  NE1       -9.3230   34.9030    7.0130 N.ar  139  TRP139     -0.2442
     76  CE2       -9.4300   36.1520    6.4530 C.ar  139  TRP139      0.0810
     77  CE3       -8.2070   38.2410    6.4870 C.ar  139  TRP139      0.0012
     78  CZ2      -10.3880   36.6790    5.5830 C.ar  139  TRP139      0.0191
     79  CZ3       -9.1500   38.7600    5.6190 C.ar  139  TRP139      0.0001
     80  CH2      -10.2180   38.0010    5.1760 C.ar  139  TRP139      0.0015
     81  N         -2.1710   30.2660   13.4090 N.3   143  HIS143     -0.1241
     82  CA        -0.7420   30.1980   13.6260 C.3   143  HIS143      0.1621
     83  C         -0.3400   29.8720   15.0440 C.2   143  HIS143      0.2264
     84  O          0.8300   29.6950   15.2960 O.2   143  HIS143     -0.2867
     85  CB        -0.0540   31.4450   13.1210 C.3   143  HIS143      0.0745
     86  CG         0.1530   31.4230   11.6500 C.ar  143  HIS143      0.0817
     87  ND1        0.9140   30.4550   11.0450 N.ar  143  HIS143     -0.2268
     88  CD2       -0.3440   32.1950   10.6440 C.ar  143  HIS143      0.1154
     89  CE1        0.9130   30.6490    9.7340 C.ar  143  HIS143      0.1986
     90  NE2        0.1840   31.7180    9.4690 N.ar  143  HIS143     -0.2212
     91  N        -10.6700   32.1910    9.3040 N.3   171  ASN171     -0.1240
     92  CA       -11.1120   31.0280    8.5640 C.3   171  ASN171      0.1653
     93  C        -11.6330   29.9670    9.5240 C.2   171  ASN171      0.2266
     94  O        -11.0560   29.8000   10.5830 O.2   171  ASN171     -0.2867
     95  CB        -9.9920   30.4020    7.7630 C.3   171  ASN171      0.1155
     96  CG        -9.4310   31.3280    6.7250 C.2   171  ASN171      0.2627
     97  OD1      -10.1300   32.2030    6.1830 O.2   171  ASN171     -0.2716
     98  ND2       -8.1420   31.1550    6.4470 N.am  171  ASN171     -0.0877
     99  N         -2.6090   23.2080    7.1920 N.3   180  ASP180     -0.1239
    100  CA        -2.0120   23.6890    5.9370 C.3   180  ASP180      0.1674
    101  C         -0.4590   23.6650    6.0340 C.2   180  ASP180      0.2266
    102  O          0.1470   24.5000    6.6660 O.2   180  ASP180     -0.2867
    103  CB        -2.4960   25.0860    5.6010 C.3   180  ASP180      0.1410
    104  CG        -2.1540   25.5270    4.1720 C.2   180  ASP180      0.3668
    105  OD1       -1.3350   24.8740    3.5700 O.co2 180  ASP180     -0.2456
    106  OD2       -2.6950   26.5940    3.7000 O.co2 180  ASP180     -0.2456
    107  N          1.7390   27.0630    4.4810 N.3   183  ASP183     -0.1239
    108  CA         2.0600   28.2150    5.3360 C.3   183  ASP183      0.1674
    109  C          2.2200   27.9100    6.8380 C.2   183  ASP183      0.2266
    110  O          2.5790   28.7820    7.6230 O.2   183  ASP183     -0.2867
    111  CB         1.0860   29.4010    5.1530 C.3   183  ASP183      0.1410
    112  CG        -0.3490   29.0750    5.6000 C.2   183  ASP183      0.3668
    113  OD1       -0.5530   27.9430    6.0970 O.co2 183  ASP183     -0.2456
    114  OD2       -1.2440   29.9520    5.4320 O.co2 183  ASP183     -0.2456
    115  N          0.0070   26.5560    9.1800 N.3   185  SER185     -0.1217
    116  CA        -1.1690   27.0680    9.9150 C.3   185  SER185      0.1889
    117  C         -2.2430   26.0000    9.9700 C.2   185  SER185      0.2288
    118  O         -2.2070   25.0250    9.2420 O.2   185  SER185     -0.2866
    119  CB        -1.8170   28.3030    9.2510 C.3   185  SER185      0.2089
    120  OG        -2.4350   27.9750    8.0180 O.3   185  SER185     -0.2183
    121  N         -6.6890   25.4040   10.3620 N.3   187  CYS187     -0.1235
    122  CA        -8.0530   25.8840   10.3270 C.3   187  CYS187      0.1677
    123  C         -8.8810   25.0020   11.2550 C.2   187  CYS187      0.2270
    124  O         -8.6940   23.7780   11.2380 O.2   187  CYS187     -0.2867
    125  CB        -8.5730   25.7790    8.9000 C.3   187  CYS187      0.0956
    126  SG       -10.0520   26.7660    8.6100 S.3   187  CYS187     -0.0801
    127  N        -14.9440   29.3400   -3.2880 N.3   216  GLU216     -0.1231
    128  CA       -13.9050   28.3100   -3.1260 C.3   216  GLU216      0.1699
    129  C        -13.1270   28.3710   -1.8200 C.2   216  GLU216      0.2592
    130  O        -12.3770   27.4470   -1.5230 O.2   216  GLU216     -0.2718
    131  CB       -12.9230   28.2700   -4.3140 C.3   216  GLU216      0.0402
    132  CG       -11.9580   29.4370   -4.4000 C.3   216  GLU216      0.1161
    133  CD       -12.5190   30.7210   -4.9440 C.2   216  GLU216      0.3649
    134  OE1      -11.7200   31.7150   -5.0430 O.co2 216  GLU216     -0.2457
    135  OE2      -13.7270   30.7560   -5.2860 O.co2 216  GLU216     -0.2457
    136  N        -13.2850   29.4600   -1.0610 N.am  217  ILE217     -0.1966
    137  CA       -12.5040   29.6580    0.1650 C.3   217  ILE217      0.1727
    138  C        -13.2110   29.1890    1.4440 C.2   217  ILE217      0.2616
    139  O        -14.4410   29.0680    1.4730 O.2   217  ILE217     -0.2715
    140  CB       -11.9610   31.1200    0.3280 C.3   217  ILE217      0.0290
    141  CG1      -13.0690   32.1290    0.5930 C.3   217  ILE217      0.0022
    142  CG2      -11.1070   31.5180   -0.8850 C.3   217  ILE217      0.0023
    143  CD1      -12.5660   33.5320    0.8760 C.3   217  ILE217      0.0001
    144  N        -12.4320   28.9130    2.4890 N.am  218  TYR218     -0.1974
    145  CA       -13.0080   28.5920    3.7980 C.3   218  TYR218      0.1639
    146  C        -13.9720   29.7160    4.1870 C.2   218  TYR218      0.2290
    147  O        -13.7090   30.8980    3.9440 O.2   218  TYR218     -0.2864
    148  CB       -11.9280   28.4820    4.8940 C.3   218  TYR218      0.0560
    149  CG       -11.1110   27.2030    4.8190 C.ar  218  TYR218     -0.0198
    150  CD1      -11.6760   25.9680    5.1170 C.ar  218  TYR218     -0.0009
    151  CD2       -9.7710   27.2420    4.4140 C.ar  218  TYR218     -0.0009
    152  CE1      -10.9460   24.8030    5.0120 C.ar  218  TYR218      0.0417
    153  CE2       -9.0250   26.0660    4.2780 C.ar  218  TYR218      0.0417
    154  CZ        -9.6020   24.8410    4.5990 C.ar  218  TYR218      0.1957
    155  OH        -8.8960   23.6700    4.4820 O.3   218  TYR218     -0.2866
@<TRIPOS>BOND
     1   135   133   ar
     2   134   133   ar
     3   133   132    1
     4   132   131    1
     5   131   128    1
     6    58    57    1
     7    55    57   ar
     8    55    53   ar
     9   127   128    1
    10    57    56   ar
    11   128   129    1
    12    53    52   ar
    13    47    48    1
    14    48    49    1
    15    48    51    1
    16    56    54   ar
    17    59    60    1
    18    52    54   ar
    19    52    51    1
    20    49    50    2
    21    46    45    2
    22   129   130    2
    23   129   136   am
    24    65    63    1
    25    45    44    1
    26    60    63    1
    27    60    61    1
    28   136   137    1
    29   142   140    1
    30    63    64    1
    31    44    43    1
    32    61    62    2
    33   137   140    1
    34   137   138    1
    35    38    37    2
    36   140   141    1
    37    64    66    1
    38   141   143    1
    39    43    37   am
    40    37    36    1
    41    12    11    1
    42    39    36    1
    43    39    40    1
    44   138   139    2
    45   138   144   am
    46    36    35    1
    47    41    40    1
    48    35    29   am
    49    27    28    1
    50     9    11   ar
    51     9     7   ar
    52    11    10   ar
    53    40    42    1
    54   144   145    1
    55    29    28    1
    56    29    30    2
    57     7     6   ar
    58    10     8   ar
    59    28    31    1
    60   105   104   ar
    61   106   104   ar
    62   145   146    1
    63   145   148    1
    64   147   146    2
    65     4     3    2
    66    31    32    1
    67   104   103    1
    68   153   151   ar
    69   153   154   ar
    70   151   149   ar
    71    32    33    1
    72     6     8   ar
    73     6     5    1
    74   107   108    1
    75   155   154    1
    76    34    33    1
    77   154   152   ar
    78   149   148    1
    79   149   150   ar
    80    25    26   ar
    81    25    23   ar
    82   152   150   ar
    83     3     2    1
    84     3    13   am
    85   111   108    1
    86   111   112    1
    87    80    78   ar
    88    80    79   ar
    89    16    15    2
    90    26    24   ar
    91     2     5    1
    92     2     1    1
    93   108   109    1
    94   114   112   ar
    95    78    76   ar
    96   112   113   ar
    97   103   100    1
    98    79    77   ar
    99    23    20   ar
   100    15    14    1
   101   100   101    1
   102   100    99    1
   103   101   102    2
   104    14    13    1
   105    14    17    1
   106    97    96    2
   107    24    22   ar
   108    98    96   am
   109    76    74   ar
   110    76    75   ar
   111    77    74   ar
   112    20    22   ar
   113    20    18   ar
   114    96    95    1
   115   109   110    2
   116    22    21   ar
   117    74    72   ar
   118    75    73   ar
   119    18    17    1
   120    18    19   ar
   121    95    92    1
   122    72    73   ar
   123    72    71    1
   124    21    19   ar
   125   120   119    1
   126    92    91    1
   127    92    93    1
   128    71    68    1
   129   126   125    1
   130   125   122    1
   131   115   116    1
   132   118   117    2
   133   119   116    1
   134    90    89   ar
   135    90    88   ar
   136    93    94    2
   137    89    87   ar
   138    70    69    2
   139   116   117    1
   140    68    69    1
   141    68    67    1
   142   122   121    1
   143   122   123    1
   144    88    86   ar
   145    87    86   ar
   146   124   123    2
   147    86    85    1
   148    85    82    1
   149    81    82    1
   150    82    83    1
   151    83    84    2
