@<TRIPOS>MOLECULE
tmp/5e1oA00.pdb
 208 205 0 0 0
SMALL
GASTEIGER

@<TRIPOS>ATOM
      1  N          8.5340   46.0490  -22.9400 N.3    23  TYR23      -0.1227
      2  CA         7.5510   45.5540  -21.9880 C.3    23  TYR23       0.1736
      3  C          8.1320   45.7000  -20.5500 C.2    23  TYR23       0.2595
      4  O          7.4800   46.2760  -19.6620 O.2    23  TYR23      -0.2718
      5  CB         7.1860   44.0730  -22.2490 C.3    23  TYR23       0.0548
      6  CG         6.4130   43.4410  -21.0930 C.ar   23  TYR23      -0.0200
      7  CD1        5.0110   43.5570  -21.0240 C.ar   23  TYR23      -0.0009
      8  CD2        7.0640   42.7530  -20.0720 C.ar   23  TYR23      -0.0009
      9  CE1        4.2960   43.0360  -19.9530 C.ar   23  TYR23       0.0417
     10  CE2        6.3470   42.2710  -18.9530 C.ar   23  TYR23       0.0417
     11  CZ         4.9750   42.3910  -18.9210 C.ar   23  TYR23       0.1957
     12  OH         4.2780   41.8660  -17.8830 O.3    23  TYR23      -0.2866
     13  N          9.3270   45.2000  -20.3190 N.am   24  TRP24      -0.1976
     14  CA         9.8750   45.1810  -18.9600 C.3    24  TRP24       0.1640
     15  C         10.1980   46.5880  -18.4880 C.2    24  TRP24       0.2290
     16  O         10.0770   46.8670  -17.2970 O.2    24  TRP24      -0.2864
     17  CB        11.0700   44.2680  -18.8540 C.3    24  TRP24       0.0576
     18  CG        10.6130   42.8460  -18.8000 C.ar   24  TRP24       0.0006
     19  CD1       10.7390   41.8930  -19.7530 C.ar   24  TRP24       0.0946
     20  CD2        9.9290   42.2230  -17.7160 C.ar   24  TRP24       0.0152
     21  NE1       10.1600   40.7170  -19.3330 N.ar   24  TRP24      -0.2442
     22  CE2        9.6770   40.8780  -18.0820 C.ar   24  TRP24       0.0810
     23  CE3        9.4910   42.6690  -16.4830 C.ar   24  TRP24       0.0012
     24  CZ2        8.9660   40.0000  -17.2660 C.ar   24  TRP24       0.0191
     25  CZ3        8.8100   41.7840  -15.6390 C.ar   24  TRP24       0.0001
     26  CH2        8.5560   40.4710  -16.0310 C.ar   24  TRP24       0.0015
     27  N          5.5170   43.0940   -9.8790 N.3    33  GLY33      -0.1210
     28  CA         5.9320   43.2960  -11.2830 C.3    33  GLY33       0.1956
     29  C          6.7770   42.1230  -11.8250 C.2    33  GLY33       0.2612
     30  O          6.5200   41.6180  -12.9490 O.2    33  GLY33      -0.2717
     31  N          7.7340   41.6700  -11.0350 N.am   34  MET34      -0.1965
     32  CA         8.4910   40.4640  -11.3270 C.3    34  MET34       0.1736
     33  C          7.5880   39.2570  -11.5970 C.2    34  MET34       0.2616
     34  O          7.9070   38.4000  -12.4980 O.2    34  MET34      -0.2715
     35  CB         9.4560   40.0930  -10.1760 C.3    34  MET34       0.0427
     36  CG        10.4820   41.1560   -9.8080 C.3    34  MET34       0.0599
     37  SD        11.4480   41.7850  -11.1770 S.3    34  MET34      -0.1393
     38  CE        10.5060   43.2280  -11.6350 C.3    34  MET34       0.0692
     39  N          6.5210   39.1290  -10.8080 N.am   35  LEU35      -0.1963
     40  CA         5.7030   37.9280  -10.8300 C.3    35  LEU35       0.1728
     41  C          4.3860   38.1510  -11.5320 C.2    35  LEU35       0.2616
     42  O          3.4360   37.3780  -11.4110 O.2    35  LEU35      -0.2715
     43  CB         5.5360   37.3540   -9.4190 C.3    35  LEU35       0.0311
     44  CG         6.8330   36.8990   -8.7390 C.3    35  LEU35       0.0022
     45  CD1        6.5880   36.1860   -7.3760 C.3    35  LEU35       0.0001
     46  CD2        7.6830   36.0860   -9.6380 C.3    35  LEU35       0.0001
     47  N          4.3120   39.1900  -12.3300 N.am   36  GLY36      -0.1955
     48  CA         3.1120   39.4270  -13.0810 C.3    36  GLY36       0.1869
     49  C          1.7760   39.4520  -12.3520 C.2    36  GLY36       0.2309
     50  O          0.7790   38.9480  -12.8610 O.2    36  GLY36      -0.2863
     51  N          1.2990   38.0060   -9.5200 N.3    38  TYR38      -0.1241
     52  CA         1.2230   36.8380   -8.6470 C.3    38  TYR38       0.1605
     53  C          2.2710   36.9620   -7.5170 C.2    38  TYR38       0.2264
     54  O          2.8710   35.9550   -7.0670 O.2    38  TYR38      -0.2867
     55  CB         1.4330   35.5210   -9.4350 C.3    38  TYR38       0.0534
     56  CG         0.2660   35.1880  -10.3110 C.ar   38  TYR38      -0.0201
     57  CD1       -0.8410   34.4820   -9.8210 C.ar   38  TYR38      -0.0009
     58  CD2        0.2500   35.6120  -11.6260 C.ar   38  TYR38      -0.0009
     59  CE1       -1.9550   34.1980  -10.6010 C.ar   38  TYR38       0.0417
     60  CE2       -0.8480   35.3240  -12.4430 C.ar   38  TYR38       0.0417
     61  CZ        -1.9300   34.6180  -11.9420 C.ar   38  TYR38       0.1957
     62  OH        -2.9890   34.3550  -12.7680 O.3    38  TYR38      -0.2866
     63  N          2.5220   34.3940   -4.5550 N.3    41  ILE41      -0.1245
     64  CA         3.1440   33.0700   -4.6450 C.3    41  ILE41       0.1561
     65  C          4.6130   32.9990   -4.3100 C.2    41  ILE41       0.2260
     66  O          5.1790   31.9100   -4.3860 O.2    41  ILE41      -0.2867
     67  CB         2.9500   32.3770   -6.0290 C.3    41  ILE41       0.0252
     68  CG1        3.7640   32.9680   -7.1380 C.3    41  ILE41       0.0019
     69  CG2        1.4960   32.3790   -6.3450 C.3    41  ILE41       0.0019
     70  CD1        3.8640   32.1050   -8.4060 C.3    41  ILE41       0.0001
     71  N         12.3740   32.0830  -14.8100 N.3   140  TRP140     -0.1241
     72  CA        11.3330   32.8850  -15.4220 C.3   140  TRP140      0.1605
     73  C         11.8880   33.8540  -16.5020 C.2   140  TRP140      0.2264
     74  O         11.3900   34.9810  -16.6850 O.2   140  TRP140     -0.2867
     75  CB        10.4010   33.5590  -14.3850 C.3   140  TRP140      0.0550
     76  CG         9.2820   32.6790  -13.9360 C.ar  140  TRP140      0.0003
     77  CD1        8.5140   31.9030  -14.7160 C.ar  140  TRP140      0.0946
     78  CD2        8.8010   32.5110  -12.6030 C.ar  140  TRP140      0.0152
     79  NE1        7.6330   31.1670  -13.9410 N.ar  140  TRP140     -0.2442
     80  CE2        7.7430   31.5900  -12.6490 C.ar  140  TRP140      0.0810
     81  CE3        9.1170   33.1030  -11.3590 C.ar  140  TRP140      0.0012
     82  CZ2        7.0700   31.1570  -11.4990 C.ar  140  TRP140      0.0191
     83  CZ3        8.4520   32.6900  -10.2430 C.ar  140  TRP140      0.0001
     84  CH2        7.4240   31.7220  -10.3050 C.ar  140  TRP140      0.0015
     85  N         12.3750   34.2620  -22.9430 N.3   144  HIS144     -0.1241
     86  CA        12.8200   35.4240  -23.5990 C.3   144  HIS144      0.1621
     87  C         13.9470   35.2650  -24.5780 C.2   144  HIS144      0.2264
     88  O         14.3400   36.2280  -25.1940 O.2   144  HIS144     -0.2867
     89  CB        13.1700   36.4970  -22.5680 C.3   144  HIS144      0.0745
     90  CG        11.9730   37.1890  -22.0470 C.ar  144  HIS144      0.0817
     91  ND1       11.1150   37.8710  -22.8650 N.ar  144  HIS144     -0.2268
     92  CD2       11.4480   37.2610  -20.8040 C.ar  144  HIS144      0.1154
     93  CE1       10.1120   38.3640  -22.1570 C.ar  144  HIS144      0.1986
     94  NE2       10.3020   38.0120  -20.8960 N.ar  144  HIS144     -0.2212
     95  N         10.9850   27.3820  -14.6760 N.3   171  ASP171     -0.1225
     96  CA        10.1790   28.1300  -15.6050 C.3   171  ASP171      0.1805
     97  C          8.8700   27.4620  -15.8860 C.2   171  ASP171      0.2597
     98  O          8.6740   26.3130  -15.5980 O.2   171  ASP171     -0.2718
     99  CB        10.9400   28.4520  -16.9370 C.3   171  ASP171      0.1424
    100  CG        10.7090   29.9380  -17.4140 C.2   171  ASP171      0.3668
    101  OD1        9.5420   30.4010  -17.5820 O.co2 171  ASP171     -0.2456
    102  OD2       11.7280   30.6390  -17.5770 O.co2 171  ASP171     -0.2456
    103  N          7.9900   28.2500  -16.4950 N.am  172  ASN172     -0.1974
    104  CA         6.7640   27.7940  -17.1020 C.3   172  ASN172      0.1688
    105  C          7.0120   26.8110  -18.2160 C.2   172  ASN172      0.2292
    106  O          7.9360   27.0130  -19.0030 O.2   172  ASN172     -0.2864
    107  CB         6.0260   28.9370  -17.8090 C.3   172  ASN172      0.1181
    108  CG         5.7420   30.1010  -16.8880 C.2   172  ASN172      0.2629
    109  OD1        5.6120   29.9530  -15.6770 O.2   172  ASN172     -0.2716
    110  ND2        5.6700   31.2600  -17.4680 N.am  172  ASN172     -0.0877
    111  N          4.7720   28.0750  -27.5120 N.3   179  ILE179     -0.1231
    112  CA         3.6350   29.0000  -27.5470 C.3   179  ILE179      0.1692
    113  C          4.1370   30.4320  -27.4110 C.2   179  ILE179      0.2592
    114  O          4.7640   30.7440  -26.4460 O.2   179  ILE179     -0.2718
    115  CB         2.6900   28.7330  -26.3850 C.3   179  ILE179      0.0266
    116  CG1        2.1930   27.2800  -26.5530 C.3   179  ILE179      0.0019
    117  CG2        1.5260   29.7570  -26.4360 C.3   179  ILE179      0.0020
    118  CD1        1.1700   26.8420  -25.5240 C.3   179  ILE179      0.0001
    119  N          3.8310   31.2900  -28.3760 N.am  180  LEU180     -0.1966
    120  CA         4.2750   32.7230  -28.3170 C.3   180  LEU180      0.1728
    121  C          3.2760   33.5450  -27.4750 C.2   180  LEU180      0.2616
    122  O          2.0740   33.4350  -27.7070 O.2   180  LEU180     -0.2715
    123  CB         4.2880   33.3160  -29.7220 C.3   180  LEU180      0.0311
    124  CG         4.6440   34.8080  -29.8410 C.3   180  LEU180      0.0022
    125  CD1        6.0710   34.9710  -29.4300 C.3   180  LEU180      0.0001
    126  CD2        4.4310   35.3740  -31.2620 C.3   180  LEU180      0.0001
    127  N          3.8110   34.3040  -26.5270 N.am  181  ASP181     -0.1971
    128  CA         3.0990   35.4160  -25.9020 C.3   181  ASP181      0.1709
    129  C          3.5510   36.7690  -26.5250 C.2   181  ASP181      0.2293
    130  O          4.6840   37.2280  -26.2990 O.2   181  ASP181     -0.2864
    131  CB         3.3420   35.4250  -24.3800 C.3   181  ASP181      0.1436
    132  CG         2.4980   36.5700  -23.6440 C.2   181  ASP181      0.3671
    133  OD1        2.0670   37.5440  -24.2850 O.co2 181  ASP181     -0.2456
    134  OD2        2.3250   36.4220  -22.4280 O.co2 181  ASP181     -0.2456
    135  N          2.6170   39.7910  -26.0790 N.3   183  VAL183     -0.1231
    136  CA         2.4640   40.9590  -25.2020 C.3   183  VAL183      0.1692
    137  C          3.7670   41.1350  -24.4570 C.2   183  VAL183      0.2592
    138  O          4.3780   42.1970  -24.5510 O.2   183  VAL183     -0.2718
    139  CB         1.2920   40.7490  -24.2210 C.3   183  VAL183      0.0266
    140  CG1        1.2390   41.8500  -23.1470 C.3   183  VAL183      0.0020
    141  CG2       -0.0420   40.7060  -24.9790 C.3   183  VAL183      0.0020
    142  N          4.2490   40.1380  -23.7250 N.am  184  ASP184     -0.1974
    143  CA         5.5570   40.3050  -23.1280 C.3   184  ASP184      0.1709
    144  C          6.7230   39.8410  -24.0430 C.2   184  ASP184      0.2293
    145  O          7.8760   40.0830  -23.7240 O.2   184  ASP184     -0.2864
    146  CB         5.6770   39.7050  -21.7190 C.3   184  ASP184      0.1436
    147  CG         5.6290   38.2010  -21.7000 C.2   184  ASP184      0.3671
    148  OD1        5.6710   37.5800  -22.7800 O.co2 184  ASP184     -0.2456
    149  OD2        5.5410   37.6520  -20.5680 O.co2 184  ASP184     -0.2456
    150  N          7.6850   36.6380  -25.3560 N.3   186  SER186     -0.1217
    151  CA         8.3280   35.4570  -24.8020 C.3   186  SER186      0.1889
    152  C          7.6370   34.1880  -25.3470 C.2   186  SER186      0.2288
    153  O          6.5430   34.2650  -25.8860 O.2   186  SER186     -0.2866
    154  CB         8.2700   35.4140  -23.2800 C.3   186  SER186      0.2089
    155  OG         6.9570   35.2670  -22.7710 O.3   186  SER186     -0.2183
    156  N          6.7060   29.9780  -24.3430 N.3   188  CYS188     -0.1235
    157  CA         6.5440   28.9500  -23.3640 C.3   188  CYS188      0.1677
    158  C          6.7280   27.6240  -24.1310 C.2   188  CYS188      0.2270
    159  O          5.9380   27.3460  -25.0430 O.2   188  CYS188     -0.2867
    160  CB         5.1130   29.0070  -22.8030 C.3   188  CYS188      0.0956
    161  SG         5.0020   27.9440  -21.3710 S.3   188  CYS188     -0.0801
    162  N         -4.4160   27.2140  -10.0020 N.3   216  ASP216     -0.1225
    163  CA        -4.8050   26.3020  -11.0620 C.3   216  ASP216      0.1805
    164  C         -4.6540   26.8840  -12.4760 C.2   216  ASP216      0.2598
    165  O         -4.3940   26.1300  -13.4460 O.2   216  ASP216     -0.2718
    166  CB        -6.2540   25.8190  -10.8410 C.3   216  ASP216      0.1424
    167  CG        -6.3490   24.7250   -9.7870 C.2   216  ASP216      0.3668
    168  OD1       -5.3100   24.3530   -9.2240 O.co2 216  ASP216     -0.2456
    169  OD2       -7.4490   24.2040   -9.5550 O.co2 216  ASP216     -0.2456
    170  N         -4.7970   28.2090  -12.6060 N.am  217  GLU217     -0.1965
    171  CA        -4.9040   28.8280  -13.9380 C.3   217  GLU217      0.1733
    172  C         -3.6350   29.1460  -14.6690 C.2   217  GLU217      0.2616
    173  O         -3.7010   29.5590  -15.8200 O.2   217  GLU217     -0.2715
    174  CB        -5.8210   30.0530  -13.8800 C.3   217  GLU217      0.0429
    175  CG        -5.1350   31.2910  -13.3490 C.3   217  GLU217      0.1163
    176  CD        -5.2690   31.5080  -11.8430 C.2   217  GLU217      0.3649
    177  OE1       -4.8340   32.6360  -11.4710 O.co2 217  GLU217     -0.2457
    178  OE2       -5.7990   30.6370  -11.0690 O.co2 217  GLU217     -0.2457
    179  N         -2.4710   29.0510  -14.0030 N.am  218  ILE218     -0.1963
    180  CA        -1.2350   29.4660  -14.6200 C.3   218  ILE218      0.1727
    181  C         -0.4830   28.2670  -15.2030 C.2   218  ILE218      0.2616
    182  O         -0.7960   27.1320  -14.8860 O.2   218  ILE218     -0.2715
    183  CB        -0.3160   30.2710  -13.6960 C.3   218  ILE218      0.0290
    184  CG1        0.1760   29.4540  -12.5100 C.3   218  ILE218      0.0022
    185  CG2       -1.0290   31.5470  -13.2010 C.3   218  ILE218      0.0023
    186  CD1        1.2450   30.1340  -11.6840 C.3   218  ILE218      0.0001
    187  N          0.4530   28.5660  -16.1010 N.am  219  TYR219     -0.1960
    188  CA         1.3000   27.5180  -16.6520 C.3   219  TYR219      0.1771
    189  C          1.9640   26.7310  -15.5050 C.2   219  TYR219      0.2619
    190  O          2.4020   27.3140  -14.5070 O.2   219  TYR219     -0.2715
    191  CB         2.4090   28.1040  -17.5190 C.3   219  TYR219      0.0574
    192  CG         1.8660   28.5310  -18.8600 C.ar  219  TYR219     -0.0198
    193  CD1        1.4670   27.5870  -19.7960 C.ar  219  TYR219     -0.0009
    194  CD2        1.7140   29.8730  -19.1840 C.ar  219  TYR219     -0.0009
    195  CE1        0.9400   27.9670  -21.0560 C.ar  219  TYR219      0.0417
    196  CE2        1.1930   30.2800  -20.4390 C.ar  219  TYR219      0.0417
    197  CZ         0.8520   29.3440  -21.3930 C.ar  219  TYR219      0.1957
    198  OH         0.2470   29.7670  -22.5860 O.3   219  TYR219     -0.2866
    199  N          2.0790   25.4440  -15.7160 N.am  220  HIS220     -0.1973
    200  CA         2.8540   24.5710  -14.8080 C.3   220  HIS220      0.1656
    201  C          4.2760   25.0730  -14.7920 C.2   220  HIS220      0.2291
    202  O          4.7780   25.6280  -15.7940 O.2   220  HIS220     -0.2864
    203  CB         2.7410   23.0740  -15.1850 C.3   220  HIS220      0.0771
    204  CG         1.3380   22.5590  -15.2080 C.ar  220  HIS220      0.0820
    205  ND1        1.0210   21.2640  -15.5660 N.ar  220  HIS220     -0.2267
    206  CD2        0.1620   23.1370  -14.8750 C.ar  220  HIS220      0.1154
    207  CE1       -0.2870   21.0740  -15.4880 C.ar  220  HIS220      0.1986
    208  NE2       -0.8320   22.1840  -15.0320 N.ar  220  HIS220     -0.2212
@<TRIPOS>BOND
     1   126   124    1
     2   124   123    1
     3   124   125    1
     4   123   120    1
     5   119   120    1
     6   119   113   am
     7   120   121    1
     8   122   121    2
     9   112   111    1
    10   112   113    1
    11   112   115    1
    12   121   127   am
    13   113   114    2
    14   116   115    1
    15   116   118    1
    16   127   128    1
    17   129   130    2
    18   129   128    1
    19   117   115    1
    20   135   136    1
    21   128   131    1
    22   153   152    2
    23   150   151    1
    24   152   151    1
    25   136   137    1
    26   136   139    1
    27    88    87    2
    28   159   158    2
    29   141   139    1
    30   151   154    1
    31    87    86    1
    32   138   137    2
    33   137   142   am
    34   131   132    1
    35   156   157    1
    36   133   132   ar
    37   139   140    1
    38   158   157    1
    39   144   145    2
    40   144   143    1
    41   142   143    1
    42   132   134   ar
    43    86    85    1
    44    86    89    1
    45   157   160    1
    46   154   155    1
    47   143   146    1
    48     1     2    1
    49    91    93   ar
    50    91    90   ar
    51   160   161    1
    52   148   147   ar
    53   198   197    1
    54    89    90    1
    55     5     2    1
    56     5     6    1
    57    93    94   ar
    58    90    92   ar
    59     2     3    1
    60   146   147    1
    61   147   149   ar
    62   197   195   ar
    63   197   196   ar
    64     6     7   ar
    65     6     8   ar
    66   195   193   ar
    67     7     9   ar
    68    94    92   ar
    69     3    13   am
    70     3     4    2
    71   196   194   ar
    72    13    14    1
    73     8    10   ar
    74     9    11   ar
    75   193   192   ar
    76    19    21   ar
    77    19    18   ar
    78    21    22   ar
    79   194   192   ar
    80   106   105    2
    81    14    17    1
    82    14    15    1
    83    10    11   ar
    84    11    12    1
    85   192   191    1
    86    17    18    1
    87    18    20   ar
    88    15    16    2
    89   105   104    1
    90    22    20   ar
    91    22    24   ar
    92   107   104    1
    93   107   108    1
    94    20    23   ar
    95   101   100   ar
    96   102   100   ar
    97   191   188    1
    98   110   108   am
    99   100    99    1
   100    24    26   ar
   101   104   103    1
   102    99    96    1
   103   108   109    2
   104    74    73    2
   105   188   187    1
   106   188   189    1
   107    73    72    1
   108   103    97   am
   109    23    25   ar
   110   187   181   am
   111    26    25   ar
   112    97    96    1
   113    97    98    2
   114   173   172    2
   115   202   201    2
   116   199   189   am
   117   199   200    1
   118    96    95    1
   119   205   207   ar
   120   205   204   ar
   121   189   190    2
   122   207   208   ar
   123    72    71    1
   124    72    75    1
   125   204   203    1
   126   204   206   ar
   127   181   182    2
   128   181   180    1
   129   203   200    1
   130   208   206   ar
   131   200   201    1
   132    77    79   ar
   133    77    76   ar
   134   172   179   am
   135   172   171    1
   136   180   179    1
   137   180   183    1
   138    75    76    1
   139    79    80   ar
   140   171   174    1
   141   171   170    1
   142    76    78   ar
   143   174   175    1
   144   183   185    1
   145   183   184    1
   146   165   164    2
   147   175   176    1
   148    48    49    1
   149    48    47    1
   150    30    29    2
   151    50    49    2
   152    62    61    1
   153    80    78   ar
   154    80    82   ar
   155   170   164   am
   156    78    81   ar
   157   184   186    1
   158    34    33    2
   159   164   163    1
   160    60    61   ar
   161    60    58   ar
   162    47    41   am
   163    61    59   ar
   164   176   177   ar
   165   176   178   ar
   166    29    28    1
   167    29    31   am
   168    38    37    1
   169    58    56   ar
   170    33    32    1
   171    33    39   am
   172    41    42    2
   173    41    40    1
   174    82    84   ar
   175    81    83   ar
   176    32    31    1
   177    32    35    1
   178    28    27    1
   179    37    36    1
   180   163   166    1
   181   163   162    1
   182   166   167    1
   183    40    39    1
   184    40    43    1
   185    59    57   ar
   186    56    57   ar
   187    56    55    1
   188    84    83   ar
   189    35    36    1
   190   167   169   ar
   191   167   168   ar
   192    46    44    1
   193    51    52    1
   194    55    52    1
   195    43    44    1
   196    44    45    1
   197    52    53    1
   198    70    68    1
   199    53    54    2
   200    68    67    1
   201    69    67    1
   202    67    64    1
   203    64    63    1
   204    64    65    1
   205    66    65    2
