@<TRIPOS>MOLECULE
tmp/5e1qB01.pdb
 141 138 0 0 0
SMALL
GASTEIGER

@<TRIPOS>ATOM
      1  N        -38.4330  100.3410  109.6440 N.3   156  GLU156     -0.1245
      2  CA       -39.0400  100.8980  110.8330 C.3   156  GLU156      0.1567
      3  C        -38.0760  101.8820  111.4720 C.2   156  GLU156      0.2260
      4  O        -37.0550  101.4920  112.0270 O.2   156  GLU156     -0.2867
      5  CB       -39.4060   99.7880  111.8340 C.3   156  GLU156      0.0388
      6  CG       -40.4640   98.7840  111.3250 C.3   156  GLU156      0.1160
      7  CD       -40.5210   97.5340  112.2040 C.2   156  GLU156      0.3649
      8  OE1      -39.4610   96.9300  112.4450 O.co2 156  GLU156     -0.2457
      9  OE2      -41.6140   97.1830  112.7050 O.co2 156  GLU156     -0.2457
     10  N        -34.5190   85.8130  112.0440 N.3   227  HIS227     -0.1241
     11  CA       -35.4880   85.6290  113.1320 C.3   227  HIS227      0.1621
     12  C        -36.1110   84.2370  113.1570 C.2   227  HIS227      0.2264
     13  O        -36.9440   83.9230  112.3200 O.2   227  HIS227     -0.2867
     14  CB       -36.5940   86.6750  113.0280 C.3   227  HIS227      0.0745
     15  CG       -37.5700   86.6470  114.1590 C.ar  227  HIS227      0.0817
     16  ND1      -37.3110   87.2430  115.3770 N.ar  227  HIS227     -0.2268
     17  CD2      -38.8200   86.1350  114.2480 C.ar  227  HIS227      0.1154
     18  CE1      -38.3540   87.0810  116.1710 C.ar  227  HIS227      0.1986
     19  NE2      -39.2850   86.4130  115.5110 N.ar  227  HIS227     -0.2212
     20  N        -55.9650   92.0490  119.8910 N.3   292  TRP292     -0.1241
     21  CA       -54.6210   91.5260  119.6300 C.3   292  TRP292      0.1605
     22  C        -53.9600   90.8760  120.8600 C.2   292  TRP292      0.2264
     23  O        -54.1970   91.2940  122.0010 O.2   292  TRP292     -0.2867
     24  CB       -53.7360   92.6550  119.0700 C.3   292  TRP292      0.0550
     25  CG       -52.4830   92.1790  118.3790 C.ar  292  TRP292      0.0003
     26  CD1      -52.2640   90.9410  117.8050 C.ar  292  TRP292      0.0946
     27  CD2      -51.2650   92.9250  118.1990 C.ar  292  TRP292      0.0152
     28  NE1      -50.9840   90.8830  117.2960 N.ar  292  TRP292     -0.2442
     29  CE2      -50.3550   92.0850  117.5180 C.ar  292  TRP292      0.0810
     30  CE3      -50.8570   94.2180  118.5500 C.ar  292  TRP292      0.0012
     31  CZ2      -49.0670   92.4960  117.1900 C.ar  292  TRP292      0.0191
     32  CZ3      -49.5690   94.6220  118.2230 C.ar  292  TRP292      0.0001
     33  CH2      -48.6920   93.7630  117.5490 C.ar  292  TRP292      0.0015
     34  N        -50.3440   89.8630  120.9950 N.3   294  TRP294     -0.1241
     35  CA       -48.8850   89.9590  121.0910 C.3   294  TRP294      0.1605
     36  C        -48.3350   91.1980  121.8220 C.2   294  TRP294      0.2264
     37  O        -47.4180   91.0790  122.6520 O.2   294  TRP294     -0.2867
     38  CB       -48.2840   89.9080  119.6710 C.3   294  TRP294      0.0550
     39  CG       -46.8010   89.6830  119.7050 C.ar  294  TRP294      0.0003
     40  CD1      -46.1620   88.4910  119.8870 C.ar  294  TRP294      0.0946
     41  CD2      -45.7720   90.6790  119.5940 C.ar  294  TRP294      0.0152
     42  NE1      -44.7980   88.6820  119.8880 N.ar  294  TRP294     -0.2442
     43  CE2      -44.5320   90.0110  119.7030 C.ar  294  TRP294      0.0810
     44  CE3      -45.7800   92.0680  119.3790 C.ar  294  TRP294      0.0012
     45  CZ2      -43.3110   90.6800  119.6200 C.ar  294  TRP294      0.0191
     46  CZ3      -44.5720   92.7330  119.2990 C.ar  294  TRP294      0.0001
     47  CH2      -43.3470   92.0380  119.4300 C.ar  294  TRP294      0.0015
     48  N        -50.6310   85.2960  116.9230 N.3   332  ASP332     -0.1225
     49  CA       -49.3770   85.8700  116.4620 C.3   332  ASP332      0.1805
     50  C        -48.2560   84.8460  116.5900 C.2   332  ASP332      0.2597
     51  O        -48.5250   83.6510  116.7360 O.2   332  ASP332     -0.2718
     52  CB       -49.0480   87.1520  117.2160 C.3   332  ASP332      0.1424
     53  CG       -48.3950   88.1960  116.3200 C.2   332  ASP332      0.3668
     54  OD1      -47.1650   88.1000  116.1050 O.co2 332  ASP332     -0.2456
     55  OD2      -49.1060   89.1030  115.8320 O.co2 332  ASP332     -0.2456
     56  N        -47.0060   85.2940  116.5080 N.am  333  GLU333     -0.1979
     57  CA       -45.8980   84.3440  116.5290 C.3   333  GLU333      0.1602
     58  C        -45.9060   83.4760  117.7870 C.2   333  GLU333      0.2287
     59  O        -45.9450   83.9900  118.9260 O.2   333  GLU333     -0.2864
     60  CB       -44.5410   85.0480  116.4090 C.3   333  GLU333      0.0415
     61  CG       -43.3990   84.0310  116.3500 C.3   333  GLU333      0.1163
     62  CD       -42.0260   84.6070  116.0050 C.2   333  GLU333      0.3649
     63  OE1      -41.1540   83.8020  115.6130 O.co2 333  GLU333     -0.2457
     64  OE2      -41.7910   85.8260  116.1830 O.co2 333  GLU333     -0.2457
     65  N        -50.6840   84.2950  111.9750 N.3   369  TRP369     -0.1241
     66  CA       -49.3690   84.8720  111.7320 C.3   369  TRP369      0.1605
     67  C        -48.3810   83.8570  111.1440 C.2   369  TRP369      0.2264
     68  O        -48.3710   82.6760  111.5150 O.2   369  TRP369     -0.2867
     69  CB       -48.8060   85.4320  113.0280 C.3   369  TRP369      0.0550
     70  CG       -47.4900   86.1150  112.8850 C.ar  369  TRP369      0.0003
     71  CD1      -47.2750   87.4630  112.7620 C.ar  369  TRP369      0.0946
     72  CD2      -46.1920   85.5030  112.8850 C.ar  369  TRP369      0.0152
     73  NE1      -45.9270   87.7230  112.6840 N.ar  369  TRP369     -0.2442
     74  CE2      -45.2430   86.5340  112.7420 C.ar  369  TRP369      0.0810
     75  CE3      -45.7390   84.1810  112.9920 C.ar  369  TRP369      0.0012
     76  CZ2      -43.8740   86.2850  112.7110 C.ar  369  TRP369      0.0191
     77  CZ3      -44.3800   83.9370  112.9580 C.ar  369  TRP369      0.0001
     78  CH2      -43.4640   84.9810  112.8170 C.ar  369  TRP369      0.0015
     79  N        -51.1980   87.1510  108.6680 N.3   395  LYS395     -0.1245
     80  CA       -50.2480   88.2220  108.8990 C.3   395  LYS395      0.1561
     81  C        -48.8540   87.6590  108.6420 C.2   395  LYS395      0.2260
     82  O        -48.4060   86.7700  109.3750 O.2   395  LYS395     -0.2867
     83  CB       -50.3940   88.7710  110.3300 C.3   395  LYS395      0.0271
     84  CG       -49.3850   89.8320  110.7170 C.3   395  LYS395      0.0035
     85  CD       -49.5940   90.3020  112.1930 C.3   395  LYS395      0.0206
     86  CE       -48.3790   91.1050  112.6980 C.3   395  LYS395      0.1093
     87  NZ       -48.5170   91.4880  114.1840 N.3   395  LYS395     -0.1314
     88  N        -44.7330   88.1460  108.1500 N.3   397  GLY397     -0.1210
     89  CA       -43.7570   89.0730  108.6900 C.3   397  GLY397      0.1956
     90  C        -42.3220   88.6750  108.4390 C.2   397  GLY397      0.2611
     91  O        -42.0410   87.5770  107.9630 O.2   397  GLY397     -0.2717
     92  N        -41.4240   89.5980  108.7590 N.am  398  PHE398     -0.1976
     93  CA       -39.9830   89.3830  108.7070 C.3   398  PHE398      0.1639
     94  C        -39.4060   89.1830  107.3050 C.2   398  PHE398      0.2290
     95  O        -38.3520   88.5570  107.1510 O.2   398  PHE398     -0.2864
     96  CB       -39.6040   88.2010  109.6010 C.3   398  PHE398      0.0560
     97  CG       -39.7380   88.5100  111.0550 C.ar  398  PHE398     -0.0200
     98  CD1      -40.8570   88.1030  111.7670 C.ar  398  PHE398     -0.0042
     99  CD2      -38.7640   89.2600  111.6990 C.ar  398  PHE398     -0.0042
    100  CE1      -40.9820   88.4120  113.1240 C.ar  398  PHE398     -0.0003
    101  CE2      -38.8870   89.5750  113.0360 C.ar  398  PHE398     -0.0003
    102  CZ       -40.0010   89.1510  113.7450 C.ar  398  PHE398     -0.0000
    103  N        -46.0970   92.6090  107.5320 N.3   427  HIS427     -0.1226
    104  CA       -45.1890   93.1760  108.5280 C.3   427  HIS427      0.1752
    105  C        -43.7390   92.9110  108.1410 C.2   427  HIS427      0.2596
    106  O        -43.4670   92.0340  107.3180 O.2   427  HIS427     -0.2718
    107  CB       -45.4920   92.6020  109.9150 C.3   427  HIS427      0.0759
    108  CG       -46.5770   93.3340  110.6370 C.ar  427  HIS427      0.0818
    109  ND1      -46.4020   93.8740  111.8940 N.ar  427  HIS427     -0.2268
    110  CD2      -47.8480   93.6360  110.2710 C.ar  427  HIS427      0.1154
    111  CE1      -47.5200   94.4680  112.2760 C.ar  427  HIS427      0.1986
    112  NE2      -48.4170   94.3320  111.3130 N.ar  427  HIS427     -0.2212
    113  N        -42.8180   93.6610  108.7410 N.am  428  GLY428     -0.1957
    114  CA       -41.4190   93.6130  108.3550 C.3   428  GLY428      0.1869
    115  C        -41.2970   93.9660  106.8880 C.2   428  GLY428      0.2309
    116  O        -40.5980   93.3010  106.1020 O.2   428  GLY428     -0.2863
    117  N        -47.0400   97.2390  107.6070 N.3   446  GLU446     -0.1245
    118  CA       -46.2840   97.8650  108.6770 C.3   446  GLU446      0.1567
    119  C        -45.3950   98.9490  108.0810 C.2   446  GLU446      0.2260
    120  O        -45.9010   99.9540  107.5650 O.2   446  GLU446     -0.2867
    121  CB       -45.4660   96.8410  109.4630 C.3   446  GLU446      0.0388
    122  CG       -45.1830   97.3060  110.9110 C.3   446  GLU446      0.1160
    123  CD       -44.3570   96.3110  111.7110 C.2   446  GLU446      0.3649
    124  OE1      -43.7060   95.4510  111.0870 O.co2 446  GLU446     -0.2457
    125  OE2      -44.3560   96.3870  112.9740 O.co2 446  GLU446     -0.2457
    126  N        -45.4530   98.9050  119.1740 N.3   452  GLU452     -0.1245
    127  CA       -44.6670   97.7860  119.6890 C.3   452  GLU452      0.1567
    128  C        -43.3130   98.2820  120.1900 C.2   452  GLU452      0.2260
    129  O        -42.7230   97.6800  121.0820 O.2   452  GLU452     -0.2867
    130  CB       -44.4550   96.7020  118.6160 C.3   452  GLU452      0.0388
    131  CG       -43.5660   97.1770  117.4570 C.3   452  GLU452      0.1160
    132  CD       -43.1390   96.0460  116.5250 C.2   452  GLU452      0.3649
    133  OE1      -43.2700   94.8560  116.8950 O.co2 452  GLU452     -0.2457
    134  OE2      -42.6480   96.3570  115.4280 O.co2 452  GLU452     -0.2457
    135  N        -50.7490   99.7150  115.4390 N.3   483  THR483     -0.1218
    136  CA       -51.1730   98.9230  116.6170 C.3   483  THR483      0.1862
    137  C        -51.2270   99.7440  117.8940 C.2   483  THR483      0.2287
    138  O        -50.4880   99.4890  118.8590 O.2   483  THR483     -0.2866
    139  CB       -50.2790   97.6650  116.8370 C.3   483  THR483      0.1770
    140  OG1      -49.0840   97.9840  117.5730 O.3   483  THR483     -0.2211
    141  CG2      -49.8980   97.0330  115.5050 C.3   483  THR483      0.0375
@<TRIPOS>BOND
     1   116   115    2
     2   115   114    1
     3    95    94    2
     4    94    93    1
     5   106   105    2
     6   103   104    1
     7   120   119    2
     8   117   118    1
     9    91    90    2
    10   119   118    1
    11   105   104    1
    12   105   113   am
    13    88    89    1
    14   114   113    1
    15    90    89    1
    16    90    92   am
    17   104   107    1
    18    81    80    1
    19    81    82    2
    20    79    80    1
    21   118   121    1
    22    93    92    1
    23    93    96    1
    24    80    83    1
    25   121   122    1
    26    96    97    1
    27     1     2    1
    28   107   108    1
    29   110   108   ar
    30   110   112   ar
    31    83    84    1
    32   108   109   ar
    33    84    85    1
    34     2     3    1
    35     2     5    1
    36   122   123    1
    37    97    99   ar
    38    97    98   ar
    39   124   123   ar
    40    67    68    2
    41    67    66    1
    42   112   111   ar
    43     6     5    1
    44     6     7    1
    45     3     4    2
    46    99   101   ar
    47   123   125   ar
    48    66    65    1
    49    66    69    1
    50    98   100   ar
    51   109   111   ar
    52    10    11    1
    53    85    86    1
    54     7     8   ar
    55     7     9   ar
    56    13    12    2
    57    73    74   ar
    58    73    71   ar
    59    86    87    1
    60    76    74   ar
    61    76    78   ar
    62    74    72   ar
    63    71    70   ar
    64    78    77   ar
    65    70    72   ar
    66    70    69    1
    67    72    75   ar
    68    77    75   ar
    69    14    11    1
    70    14    15    1
    71   101   102   ar
    72   100   102   ar
    73    11    12    1
    74    15    17   ar
    75    15    16   ar
    76    17    19   ar
    77    16    18   ar
    78   134   132   ar
    79   135   136    1
    80   141   139    1
    81    19    18   ar
    82    63    62   ar
    83    55    53   ar
    84    62    64   ar
    85    62    61    1
    86    54    53   ar
    87    53    52    1
    88    61    60    1
    89    60    57    1
    90    49    50    1
    91    49    48    1
    92    49    52    1
    93    56    57    1
    94    56    50   am
    95   132   133   ar
    96   132   131    1
    97    57    58    1
    98    50    51    2
    99   136   139    1
   100   136   137    1
   101   139   140    1
   102    31    29   ar
   103    31    33   ar
   104    28    29   ar
   105    28    26   ar
   106   131   130    1
   107    29    27   ar
   108    33    32   ar
   109    58    59    2
   110    26    25   ar
   111   137   138    2
   112    27    25   ar
   113    27    30   ar
   114    32    30   ar
   115    25    24    1
   116   130   127    1
   117    24    21    1
   118   126   127    1
   119    46    44   ar
   120    46    47   ar
   121    44    41   ar
   122    47    45   ar
   123    41    43   ar
   124    41    39   ar
   125    45    43   ar
   126    21    20    1
   127    21    22    1
   128    38    39    1
   129    38    35    1
   130   127   128    1
   131    43    42   ar
   132    39    40   ar
   133    40    42   ar
   134   128   129    2
   135    22    23    2
   136    34    35    1
   137    35    36    1
   138    36    37    2
