@<TRIPOS>MOLECULE
tmp/5e1qB00.pdb
 131 127 0 0 0
SMALL
GASTEIGER

@<TRIPOS>ATOM
      1  N        -32.4880  101.8170  109.7490 N.3   140  LYS140     -0.1245
      2  CA       -32.0780  101.7380  111.1500 C.3   140  LYS140      0.1561
      3  C        -30.8570  100.8320  111.3630 C.2   140  LYS140      0.2260
      4  O        -29.9540  101.1680  112.1330 O.2   140  LYS140     -0.2867
      5  CB       -33.2490  101.2560  112.0100 C.3   140  LYS140      0.0271
      6  CG       -32.9450  101.2030  113.5100 C.3   140  LYS140      0.0035
      7  CD       -34.1170  100.6130  114.2840 C.3   140  LYS140      0.0206
      8  CE       -35.2360  101.6300  114.4840 C.3   140  LYS140      0.1093
      9  NZ       -36.5290  101.0210  114.9520 N.3   140  LYS140     -0.1314
     10  N        -36.0250   96.4080  108.2930 N.3   154  SER154     -0.1217
     11  CA       -37.4630   96.2320  108.4680 C.3   154  SER154      0.1889
     12  C        -38.2630   97.5090  108.2140 C.2   154  SER154      0.2288
     13  O        -39.4840   97.5530  108.4590 O.2   154  SER154     -0.2866
     14  CB       -37.7540   95.6810  109.8890 C.3   154  SER154      0.2089
     15  OG       -37.3610   96.5950  110.9080 O.3   154  SER154     -0.2183
     16  N        -38.4330  100.3410  109.6440 N.3   156  GLU156     -0.1245
     17  CA       -39.0400  100.8980  110.8330 C.3   156  GLU156      0.1567
     18  C        -38.0760  101.8820  111.4720 C.2   156  GLU156      0.2260
     19  O        -37.0550  101.4920  112.0270 O.2   156  GLU156     -0.2867
     20  CB       -39.4060   99.7880  111.8340 C.3   156  GLU156      0.0388
     21  CG       -40.4640   98.7840  111.3250 C.3   156  GLU156      0.1160
     22  CD       -40.5210   97.5340  112.2040 C.2   156  GLU156      0.3649
     23  OE1      -39.4610   96.9300  112.4450 O.co2 156  GLU156     -0.2457
     24  OE2      -41.6140   97.1830  112.7050 O.co2 156  GLU156     -0.2457
     25  N        -34.5190   85.8130  112.0440 N.3   227  HIS227     -0.1241
     26  CA       -35.4880   85.6290  113.1320 C.3   227  HIS227      0.1621
     27  C        -36.1110   84.2370  113.1570 C.2   227  HIS227      0.2264
     28  O        -36.9440   83.9230  112.3200 O.2   227  HIS227     -0.2867
     29  CB       -36.5940   86.6750  113.0280 C.3   227  HIS227      0.0745
     30  CG       -37.5700   86.6470  114.1590 C.ar  227  HIS227      0.0817
     31  ND1      -37.3110   87.2430  115.3770 N.ar  227  HIS227     -0.2268
     32  CD2      -38.8200   86.1350  114.2480 C.ar  227  HIS227      0.1154
     33  CE1      -38.3540   87.0810  116.1710 C.ar  227  HIS227      0.1986
     34  NE2      -39.2850   86.4130  115.5110 N.ar  227  HIS227     -0.2212
     35  N        -50.3440   89.8630  120.9950 N.3   294  TRP294     -0.1241
     36  CA       -48.8850   89.9590  121.0910 C.3   294  TRP294      0.1605
     37  C        -48.3350   91.1980  121.8220 C.2   294  TRP294      0.2264
     38  O        -47.4180   91.0790  122.6520 O.2   294  TRP294     -0.2867
     39  CB       -48.2840   89.9080  119.6710 C.3   294  TRP294      0.0550
     40  CG       -46.8010   89.6830  119.7050 C.ar  294  TRP294      0.0003
     41  CD1      -46.1620   88.4910  119.8870 C.ar  294  TRP294      0.0946
     42  CD2      -45.7720   90.6790  119.5940 C.ar  294  TRP294      0.0152
     43  NE1      -44.7980   88.6820  119.8880 N.ar  294  TRP294     -0.2442
     44  CE2      -44.5320   90.0110  119.7030 C.ar  294  TRP294      0.0810
     45  CE3      -45.7800   92.0680  119.3790 C.ar  294  TRP294      0.0012
     46  CZ2      -43.3110   90.6800  119.6200 C.ar  294  TRP294      0.0191
     47  CZ3      -44.5720   92.7330  119.2990 C.ar  294  TRP294      0.0001
     48  CH2      -43.3470   92.0380  119.4300 C.ar  294  TRP294      0.0015
     49  N        -47.0060   85.2940  116.5080 N.3   333  GLU333     -0.1245
     50  CA       -45.8980   84.3440  116.5290 C.3   333  GLU333      0.1567
     51  C        -45.9060   83.4760  117.7870 C.2   333  GLU333      0.2260
     52  O        -45.9450   83.9900  118.9260 O.2   333  GLU333     -0.2867
     53  CB       -44.5410   85.0480  116.4090 C.3   333  GLU333      0.0388
     54  CG       -43.3990   84.0310  116.3500 C.3   333  GLU333      0.1160
     55  CD       -42.0260   84.6070  116.0050 C.2   333  GLU333      0.3649
     56  OE1      -41.1540   83.8020  115.6130 O.co2 333  GLU333     -0.2457
     57  OE2      -41.7910   85.8260  116.1830 O.co2 333  GLU333     -0.2457
     58  N        -41.4240   89.5980  108.7590 N.3   398  PHE398     -0.1241
     59  CA       -39.9830   89.3830  108.7070 C.3   398  PHE398      0.1605
     60  C        -39.4060   89.1830  107.3050 C.2   398  PHE398      0.2264
     61  O        -38.3520   88.5570  107.1510 O.2   398  PHE398     -0.2867
     62  CB       -39.6040   88.2010  109.6010 C.3   398  PHE398      0.0534
     63  CG       -39.7380   88.5100  111.0550 C.ar  398  PHE398     -0.0203
     64  CD1      -40.8570   88.1030  111.7670 C.ar  398  PHE398     -0.0042
     65  CD2      -38.7640   89.2600  111.6990 C.ar  398  PHE398     -0.0042
     66  CE1      -40.9820   88.4120  113.1240 C.ar  398  PHE398     -0.0003
     67  CE2      -38.8870   89.5750  113.0360 C.ar  398  PHE398     -0.0003
     68  CZ       -40.0010   89.1510  113.7450 C.ar  398  PHE398     -0.0000
     69  N        -46.0970   92.6090  107.5320 N.3   427  HIS427     -0.1241
     70  CA       -45.1890   93.1760  108.5280 C.3   427  HIS427      0.1621
     71  C        -43.7390   92.9110  108.1410 C.2   427  HIS427      0.2264
     72  O        -43.4670   92.0340  107.3180 O.2   427  HIS427     -0.2867
     73  CB       -45.4920   92.6020  109.9150 C.3   427  HIS427      0.0745
     74  CG       -46.5770   93.3340  110.6370 C.ar  427  HIS427      0.0817
     75  ND1      -46.4020   93.8740  111.8940 N.ar  427  HIS427     -0.2268
     76  CD2      -47.8480   93.6360  110.2710 C.ar  427  HIS427      0.1154
     77  CE1      -47.5200   94.4680  112.2760 C.ar  427  HIS427      0.1986
     78  NE2      -48.4170   94.3320  111.3130 N.ar  427  HIS427     -0.2212
     79  N        -47.0400   97.2390  107.6070 N.3   446  GLU446     -0.1245
     80  CA       -46.2840   97.8650  108.6770 C.3   446  GLU446      0.1567
     81  C        -45.3950   98.9490  108.0810 C.2   446  GLU446      0.2260
     82  O        -45.9010   99.9540  107.5650 O.2   446  GLU446     -0.2867
     83  CB       -45.4660   96.8410  109.4630 C.3   446  GLU446      0.0388
     84  CG       -45.1830   97.3060  110.9110 C.3   446  GLU446      0.1160
     85  CD       -44.3570   96.3110  111.7110 C.2   446  GLU446      0.3649
     86  OE1      -43.7060   95.4510  111.0870 O.co2 446  GLU446     -0.2457
     87  OE2      -44.3560   96.3870  112.9740 O.co2 446  GLU446     -0.2457
     88  N        -45.4530   98.9050  119.1740 N.3   452  GLU452     -0.1231
     89  CA       -44.6670   97.7860  119.6890 C.3   452  GLU452      0.1699
     90  C        -43.3130   98.2820  120.1900 C.2   452  GLU452      0.2592
     91  O        -42.7230   97.6800  121.0820 O.2   452  GLU452     -0.2718
     92  CB       -44.4550   96.7020  118.6160 C.3   452  GLU452      0.0402
     93  CG       -43.5660   97.1770  117.4570 C.3   452  GLU452      0.1161
     94  CD       -43.1390   96.0460  116.5250 C.2   452  GLU452      0.3649
     95  OE1      -43.2700   94.8560  116.8950 O.co2 452  GLU452     -0.2457
     96  OE2      -42.6480   96.3570  115.4280 O.co2 452  GLU452     -0.2457
     97  N        -42.8340   99.4030  119.6500 N.am  453  GLN453     -0.1979
     98  CA       -41.5610   99.9620  120.1070 C.3   453  GLN453      0.1601
     99  C        -41.5870  100.2760  121.6220 C.2   453  GLN453      0.2287
    100  O        -40.5430  100.3210  122.2790 O.2   453  GLN453     -0.2864
    101  CB       -41.2250  101.2310  119.3280 C.3   453  GLN453      0.0394
    102  CG       -41.1630  100.9970  117.8050 C.3   453  GLN453      0.0908
    103  CD       -40.0630  100.0390  117.4000 C.2   453  GLN453      0.2608
    104  OE1      -38.9610  100.0450  117.9640 O.2   453  GLN453     -0.2717
    105  NE2      -40.3550   99.2010  116.4110 N.am  453  GLN453     -0.0878
    106  N        -39.7520   97.9010  124.2960 N.3   456  TRP456     -0.1241
    107  CA       -38.2990   97.7910  124.4640 C.3   456  TRP456      0.1605
    108  C        -37.5160   99.0960  124.2910 C.2   456  TRP456      0.2264
    109  O        -36.3330   99.1500  124.6050 O.2   456  TRP456     -0.2867
    110  CB       -37.7470   96.7430  123.4790 C.3   456  TRP456      0.0550
    111  CG       -38.2180   96.9560  122.0550 C.ar  456  TRP456      0.0003
    112  CD1      -37.8050   97.9380  121.1870 C.ar  456  TRP456      0.0946
    113  CD2      -39.2000   96.1850  121.3500 C.ar  456  TRP456      0.0152
    114  NE1      -38.4680   97.8120  119.9770 N.ar  456  TRP456     -0.2442
    115  CE2      -39.3280   96.7480  120.0550 C.ar  456  TRP456      0.0810
    116  CE3      -39.9720   95.0680  121.6800 C.ar  456  TRP456      0.0012
    117  CZ2      -40.2060   96.2290  119.0940 C.ar  456  TRP456      0.0191
    118  CZ3      -40.8480   94.5550  120.7280 C.ar  456  TRP456      0.0001
    119  CH2      -40.9640   95.1500  119.4510 C.ar  456  TRP456      0.0015
    120  N        -41.8320   95.1560  128.6610 N.3   499  TYR499     -0.1241
    121  CA       -42.2070   94.2160  127.6050 C.3   499  TYR499      0.1605
    122  C        -43.5820   93.5920  127.8110 C.2   499  TYR499      0.2264
    123  O        -44.3700   93.4850  126.8700 O.2   499  TYR499     -0.2867
    124  CB       -41.1490   93.1140  127.4860 C.3   499  TYR499      0.0534
    125  CG       -41.2310   92.2940  126.2070 C.ar  499  TYR499     -0.0201
    126  CD1      -42.0450   91.1720  126.1260 C.ar  499  TYR499     -0.0009
    127  CD2      -40.4650   92.6240  125.0980 C.ar  499  TYR499     -0.0009
    128  CE1      -42.1160   90.4150  124.9650 C.ar  499  TYR499      0.0417
    129  CE2      -40.5240   91.8770  123.9310 C.ar  499  TYR499      0.0417
    130  CZ       -41.3520   90.7710  123.8710 C.ar  499  TYR499      0.1957
    131  OH       -41.4180   90.0200  122.7040 O.3   499  TYR499     -0.2866
@<TRIPOS>BOND
     1    61    60    2
     2    60    59    1
     3    72    71    2
     4    69    70    1
     5    82    81    2
     6    79    80    1
     7    81    80    1
     8    71    70    1
     9    12    13    2
    10    12    11    1
    11    10    11    1
    12    11    14    1
    13    70    73    1
    14    80    83    1
    15    59    58    1
    16    59    62    1
    17    83    84    1
    18    62    63    1
    19    16    17    1
    20     1     2    1
    21    14    15    1
    22    73    74    1
    23    76    74   ar
    24    76    78   ar
    25    74    75   ar
    26    17    18    1
    27    17    20    1
    28    84    85    1
    29    63    65   ar
    30    63    64   ar
    31    86    85   ar
    32     2     3    1
    33     2     5    1
    34    78    77   ar
    35    21    20    1
    36    21    22    1
    37     3     4    2
    38    18    19    2
    39    65    67   ar
    40    85    87   ar
    41    64    66   ar
    42    75    77   ar
    43     5     6    1
    44    25    26    1
    45    22    23   ar
    46    22    24   ar
    47    28    27    2
    48    29    26    1
    49    29    30    1
    50    67    68   ar
    51    66    68   ar
    52    26    27    1
    53     6     7    1
    54    30    32   ar
    55    30    31   ar
    56    32    34   ar
    57     7     8    1
    58     8     9    1
    59    31    33   ar
    60    96    94   ar
    61    34    33   ar
    62    56    55   ar
    63    55    57   ar
    64    55    54    1
    65    54    53    1
    66    53    50    1
    67   105   103   am
    68    49    50    1
    69    94    95   ar
    70    94    93    1
    71    50    51    1
    72   103   102    1
    73   103   104    2
    74    93    92    1
    75    51    52    2
    76   102   101    1
    77    92    89    1
    78   117   119   ar
    79   117   115   ar
    80    88    89    1
    81    47    45   ar
    82    47    48   ar
    83   101    98    1
    84    45    42   ar
    85    48    46   ar
    86   119   118   ar
    87    42    44   ar
    88    42    40   ar
    89    46    44   ar
    90    97    98    1
    91    97    90   am
    92    39    40    1
    93    39    36    1
    94    89    90    1
    95    44    43   ar
    96    40    41   ar
    97    41    43   ar
    98   114   115   ar
    99   114   112   ar
   100   115   113   ar
   101    98    99    1
   102    90    91    2
   103   118   116   ar
   104    35    36    1
   105    36    37    1
   106   112   111   ar
   107   113   116   ar
   108   113   111   ar
   109    99   100    2
   110    37    38    2
   111   111   110    1
   112   131   130    1
   113   110   107    1
   114   130   129   ar
   115   130   128   ar
   116   129   127   ar
   117   108   107    1
   118   108   109    2
   119   106   107    1
   120   128   126   ar
   121   127   125   ar
   122   126   125   ar
   123   125   124    1
   124   123   122    2
   125   124   121    1
   126   121   122    1
   127   121   120    1
