@<TRIPOS>MOLECULE
tmp/5e1rE00.pdb
 110 100 0 0 0
SMALL
GASTEIGER

@<TRIPOS>ATOM
      1  N        -24.3580  184.0600  -30.4050 N.3   207  PHE207     -0.1241
      2  CA       -24.0850  182.6390  -30.2330 C.3   207  PHE207      0.1605
      3  C        -25.3450  181.8080  -30.4230 C.2   207  PHE207      0.2264
      4  O        -26.3870  182.1010  -29.8430 O.2   207  PHE207     -0.2867
      5  CB       -23.4810  182.3700  -28.8520 C.3   207  PHE207      0.0534
      6  CG       -23.1090  180.9300  -28.6200 C.ar  207  PHE207     -0.0203
      7  CD1      -21.9040  180.4280  -29.0840 C.ar  207  PHE207     -0.0042
      8  CD2      -23.9610  180.0810  -27.9330 C.ar  207  PHE207     -0.0042
      9  CE1      -21.5590  179.1070  -28.8710 C.ar  207  PHE207     -0.0003
     10  CE2      -23.6210  178.7590  -27.7190 C.ar  207  PHE207     -0.0003
     11  CZ       -22.4180  178.2720  -28.1880 C.ar  207  PHE207     -0.0000
     12  N        -22.8260  174.3490  -33.1310 N.3   226  ASN226     -0.1240
     13  CA       -23.0020  175.7300  -32.7090 C.3   226  ASN226      0.1653
     14  C        -22.3030  176.7410  -33.6120 C.2   226  ASN226      0.2266
     15  O        -21.4310  176.3930  -34.4060 O.2   226  ASN226     -0.2867
     16  CB       -22.5360  175.9040  -31.2580 C.3   226  ASN226      0.1155
     17  CG       -21.1260  175.4090  -31.0270 C.2   226  ASN226      0.2627
     18  OD1      -20.2830  175.4320  -31.9230 O.2   226  ASN226     -0.2716
     19  ND2      -20.8650  174.9420  -29.8150 N.am  226  ASN226     -0.0877
     20  N        -20.7630  180.9120  -33.6930 N.3   228  ALA228     -0.1245
     21  CA       -20.3680  182.0740  -32.9120 C.3   228  ALA228      0.1562
     22  C        -19.8550  183.1990  -33.7990 C.2   228  ALA228      0.2260
     23  O        -18.9300  183.0090  -34.5870 O.2   228  ALA228     -0.2867
     24  CB       -19.3110  181.6890  -31.8920 C.3   228  ALA228      0.0290
     25  N        -14.8300  186.3650  -26.9910 N.3   236  MET236     -0.1245
     26  CA       -15.6250  185.4140  -26.2270 C.3   236  MET236      0.1570
     27  C        -14.8720  185.0710  -24.9470 C.2   236  MET236      0.2261
     28  O        -13.7580  184.5460  -24.9860 O.2   236  MET236     -0.2867
     29  CB       -15.9400  184.1480  -27.0240 C.3   236  MET236      0.0387
     30  CG       -16.9370  183.2480  -26.3020 C.3   236  MET236      0.0595
     31  SD       -17.5520  181.8490  -27.2540 S.3   236  MET236     -0.1393
     32  CE       -16.0240  181.1830  -27.8950 C.3   236  MET236      0.0692
     33  N        -13.7540  180.2270  -21.0830 N.3   239  HIS239     -0.1241
     34  CA       -14.7730  179.2560  -20.7180 C.3   239  HIS239      0.1621
     35  C        -14.2980  177.8540  -21.0560 C.2   239  HIS239      0.2264
     36  O        -13.2980  177.6900  -21.7480 O.2   239  HIS239     -0.2867
     37  CB       -16.0790  179.5530  -21.4490 C.3   239  HIS239      0.0745
     38  CG       -15.9880  179.3640  -22.9310 C.ar  239  HIS239      0.0817
     39  ND1      -16.6980  178.3920  -23.6000 N.ar  239  HIS239     -0.2268
     40  CD2      -15.2590  180.0110  -23.8700 C.ar  239  HIS239      0.1154
     41  CE1      -16.4150  178.4520  -24.8880 C.ar  239  HIS239      0.1986
     42  NE2      -15.5440  179.4250  -25.0790 N.ar  239  HIS239     -0.2212
     43  N        -15.7840  173.4880  -21.7570 N.3   241  ASN241     -0.1240
     44  CA       -16.8640  172.5220  -21.9020 C.3   241  ASN241      0.1653
     45  C        -16.6860  171.3470  -20.9540 C.2   241  ASN241      0.2266
     46  O        -15.5860  170.8150  -20.8080 O.2   241  ASN241     -0.2867
     47  CB       -16.9480  172.0240  -23.3440 C.3   241  ASN241      0.1155
     48  CG       -17.3180  173.1220  -24.3160 C.2   241  ASN241      0.2627
     49  OD1      -18.4700  173.5530  -24.3720 O.2   241  ASN241     -0.2716
     50  ND2      -16.3410  173.5840  -25.0870 N.am  241  ASN241     -0.0877
     51  N        -14.8670  169.9960  -28.8880 N.3   246  VAL246     -0.1245
     52  CA       -15.3860  170.8010  -29.9860 C.3   246  VAL246      0.1561
     53  C        -14.3860  171.0150  -31.1180 C.2   246  VAL246      0.2260
     54  O        -13.2750  171.4970  -30.9030 O.2   246  VAL246     -0.2867
     55  CB       -15.8540  172.1780  -29.4860 C.3   246  VAL246      0.0252
     56  CG1      -16.5050  172.9500  -30.6190 C.3   246  VAL246      0.0019
     57  CG2      -16.8200  172.0170  -28.3240 C.3   246  VAL246      0.0019
     58  N        -13.6780  173.2430  -34.1950 N.3   248  VAL248     -0.1245
     59  CA       -14.0940  174.5730  -34.6280 C.3   248  VAL248      0.1561
     60  C        -13.5160  174.9500  -35.9870 C.2   248  VAL248      0.2260
     61  O        -12.3220  174.7950  -36.2290 O.2   248  VAL248     -0.2867
     62  CB       -13.6810  175.6460  -33.6010 C.3   248  VAL248      0.0252
     63  CG1      -14.2040  177.0120  -34.0160 C.3   248  VAL248      0.0019
     64  CG2      -14.1930  175.2770  -32.2280 C.3   248  VAL248      0.0019
     65  N        -11.0060  172.0010  -29.3970 N.3   281  ILE281     -0.1245
     66  CA       -11.0990  172.3180  -27.9780 C.3   281  ILE281      0.1561
     67  C        -11.5290  171.0950  -27.1740 C.2   281  ILE281      0.2260
     68  O        -12.7230  170.8570  -26.9970 O.2   281  ILE281     -0.2867
     69  CB       -12.1020  173.4560  -27.7150 C.3   281  ILE281      0.0252
     70  CG1      -11.9320  174.5750  -28.7430 C.3   281  ILE281      0.0019
     71  CG2      -11.9530  173.9850  -26.2930 C.3   281  ILE281      0.0019
     72  CD1      -13.0720  175.5710  -28.7430 C.3   281  ILE281      0.0001
     73  N        -11.3320  183.4720  -26.9740 N.3   289  ILE289     -0.1245
     74  CA       -11.1580  183.8310  -28.3780 C.3   289  ILE289      0.1561
     75  C        -11.4440  185.3100  -28.6230 C.2   289  ILE289      0.2260
     76  O        -12.5080  185.8130  -28.2640 O.2   289  ILE289     -0.2867
     77  CB       -12.0670  182.9840  -29.2910 C.3   289  ILE289      0.0252
     78  CG1      -11.8170  181.4940  -29.0560 C.3   289  ILE289      0.0019
     79  CG2      -11.8340  183.3360  -30.7520 C.3   289  ILE289      0.0019
     80  CD1      -12.9070  180.6020  -29.5920 C.3   289  ILE289      0.0001
     81  N        -17.4050  181.7970  -36.4780 N.3   299  LEU299     -0.1231
     82  CA       -16.9560  180.4400  -36.2030 C.3   299  LEU299      0.1693
     83  C        -18.1130  179.4470  -36.1990 C.2   299  LEU299      0.2592
     84  O        -19.2190  179.7670  -35.7680 O.2   299  LEU299     -0.2718
     85  CB       -16.2250  180.3870  -34.8590 C.3   299  LEU299      0.0284
     86  CG       -15.0610  181.3610  -34.6640 C.3   299  LEU299      0.0019
     87  CD1      -14.6030  181.3790  -33.2150 C.3   299  LEU299      0.0001
     88  CD2      -13.9060  181.0110  -35.5860 C.3   299  LEU299      0.0001
     89  N        -17.8420  178.2400  -36.6860 N.am  300  VAL300     -0.1966
     90  CA       -18.7810  177.1280  -36.5930 C.3   300  VAL300      0.1727
     91  C        -18.0900  175.9750  -35.8740 C.2   300  VAL300      0.2616
     92  O        -16.9230  175.6860  -36.1380 O.2   300  VAL300     -0.2715
     93  CB       -19.2820  176.6800  -37.9870 C.3   300  VAL300      0.0290
     94  CG1      -19.7000  175.2190  -37.9760 C.3   300  VAL300      0.0023
     95  CG2      -20.4310  177.5640  -38.4450 C.3   300  VAL300      0.0023
     96  N        -18.7990  175.3310  -34.9520 N.am  301  GLY301     -0.1955
     97  CA       -18.2100  174.2610  -34.1700 C.3   301  GLY301      0.1869
     98  C        -19.0160  172.9790  -34.1110 C.2   301  GLY301      0.2309
     99  O        -20.2450  173.0000  -34.0440 O.2   301  GLY301     -0.2863
    100  N        -21.4120  174.2360  -20.7820 N.3   311  ARG311     -0.1245
    101  CA       -20.3900  175.2440  -21.0050 C.3   311  ARG311      0.1563
    102  C        -20.2490  176.1280  -19.7720 C.2   311  ARG311      0.2260
    103  O        -21.2010  176.7890  -19.3580 O.2   311  ARG311     -0.2867
    104  CB       -20.7330  176.0850  -22.2350 C.3   311  ARG311      0.0307
    105  CG       -19.6120  176.9910  -22.7040 C.3   311  ARG311      0.0489
    106  CD       -19.8950  177.5670  -24.0890 C.3   311  ARG311      0.2205
    107  NE       -19.9520  176.5320  -25.1180 N.pl3 311  ARG311     -0.0865
    108  CZ       -21.0750  176.0180  -25.6060 C.cat 311  ARG311      0.5346
    109  NH1      -22.2510  176.4520  -25.1720 N.pl3 311  ARG311      0.1354
    110  NH2      -21.0210  175.0760  -26.5350 N.pl3 311  ARG311      0.1354
@<TRIPOS>BOND
     1    95    93    1
     2    93    94    1
     3    93    90    1
     4    89    90    1
     5    89    83   am
     6    90    91    1
     7    81    82    1
     8    61    60    2
     9    82    83    1
    10    82    85    1
    11    83    84    2
    12    92    91    2
    13    60    59    1
    14    91    96   am
    15    88    86    1
    16    96    97    1
    17    85    86    1
    18    86    87    1
    19    59    58    1
    20    59    62    1
    21    23    22    2
    22    15    14    2
    23    97    98    1
    24    98    99    2
    25    63    62    1
    26    22    21    1
    27    20    21    1
    28    14    13    1
    29    62    64    1
    30    12    13    1
    31    21    24    1
    32    13    16    1
    33    18    17    2
    34    16    17    1
    35    53    54    2
    36    53    52    1
    37    17    19   am
    38    79    77    1
    39    56    55    1
    40     3     2    1
    41     3     4    2
    42     1     2    1
    43     2     5    1
    44    52    55    1
    45    52    51    1
    46    80    78    1
    47    55    57    1
    48    65    66    1
    49    77    78    1
    50    77    74    1
    51     7     9   ar
    52     7     6   ar
    53     9    11   ar
    54     5     6    1
    55    72    70    1
    56    70    69    1
    57    75    74    1
    58    75    76    2
    59     6     8   ar
    60    74    73    1
    61    11    10   ar
    62    66    69    1
    63    66    67    1
    64     8    10   ar
    65    32    31    1
    66    69    71    1
    67    31    30    1
    68    67    68    2
    69    29    30    1
    70    29    26    1
    71    25    26    1
    72   110   108    1
    73    26    27    1
    74   108   109    1
    75   108   107    2
    76   107   106    1
    77    50    48   am
    78    42    41   ar
    79    42    40   ar
    80    28    27    2
    81    41    39   ar
    82    49    48    2
    83    48    47    1
    84   106   105    1
    85    40    38   ar
    86    39    38   ar
    87    47    44    1
    88    38    37    1
    89   105   104    1
    90   104   101    1
    91    44    43    1
    92    44    45    1
    93    36    35    2
    94    37    34    1
    95    33    34    1
    96    35    34    1
    97   101   100    1
    98   101   102    1
    99    45    46    2
   100   102   103    2
