@<TRIPOS>MOLECULE
tmp/5e1sA00.pdb
 187 175 0 0 0
SMALL
GASTEIGER

@<TRIPOS>ATOM
      1  N         -3.3520   28.7250   18.3940 N.3    18  ARG18      -0.1245
      2  CA        -2.7850   28.9850   19.7220 C.3    18  ARG18       0.1563
      3  C         -1.2670   28.8560   19.7260 C.2    18  ARG18       0.2260
      4  O         -0.6960   28.2480   18.8210 O.2    18  ARG18      -0.2867
      5  CB        -3.3870   28.0220   20.7820 C.3    18  ARG18       0.0307
      6  CG        -3.2010   26.5340   20.4760 C.3    18  ARG18       0.0489
      7  CD        -3.2660   25.6780   21.7230 C.3    18  ARG18       0.2205
      8  NE        -3.0530   24.2650   21.4020 N.pl3  18  ARG18      -0.0865
      9  CZ        -2.3090   23.4260   22.1180 C.cat  18  ARG18       0.5346
     10  NH1       -1.6950   23.8430   23.2200 N.pl3  18  ARG18       0.1354
     11  NH2       -2.1770   22.1610   21.7390 N.pl3  18  ARG18       0.1354
     12  N          2.2200   27.2910   21.0180 N.3    20  LEU20      -0.1231
     13  CA         2.6420   25.9710   21.4640 C.3    20  LEU20       0.1693
     14  C          3.7810   26.1430   22.4620 C.2    20  LEU20       0.2593
     15  O          3.7290   25.5870   23.5590 O.2    20  LEU20      -0.2718
     16  CB         3.0710   25.0860   20.2840 C.3    20  LEU20       0.0284
     17  CG         1.9630   24.5470   19.3840 C.3    20  LEU20       0.0019
     18  CD1        2.5600   23.8380   18.1890 C.3    20  LEU20       0.0001
     19  CD2        1.0210   23.6120   20.1460 C.3    20  LEU20       0.0001
     20  N          4.7740   26.9410   22.0800 N.am   21  GLY21      -0.1942
     21  CA         5.9520   27.2240   22.8880 C.3    21  GLY21       0.2014
     22  C          7.0600   27.8850   22.1000 C.2    21  GLY21       0.2639
     23  O          7.0790   27.8380   20.8650 O.2    21  GLY21      -0.2714
     24  N          7.9880   28.5080   22.8200 N.am   22  GLN22      -0.1963
     25  CA         9.1330   29.2140   22.2560 C.3    22  GLN22       0.1733
     26  C         10.1050   28.2830   21.5180 C.2    22  GLN22       0.2616
     27  O         10.4250   27.1960   22.0040 O.2    22  GLN22      -0.2715
     28  CB         9.8680   29.9970   23.3640 C.3    22  GLN22       0.0408
     29  CG        10.6770   31.1960   22.8610 C.3    22  GLN22       0.0908
     30  CD         9.8220   32.3610   22.4190 C.2    22  GLN22       0.2608
     31  OE1        8.8550   32.7550   23.0810 O.2    22  GLN22      -0.2717
     32  NE2       10.1930   32.9690   21.3100 N.am   22  GLN22      -0.0878
     33  N         10.5360   28.7300   20.3410 N.am   23  GLY23      -0.1955
     34  CA        11.5200   28.0540   19.5040 C.3    23  GLY23       0.1869
     35  C         12.7900   28.8800   19.4070 C.2    23  GLY23       0.2309
     36  O         12.8840   29.9430   20.0300 O.2    23  GLY23      -0.2863
     37  N          6.4270   29.3250   18.3850 N.3    28  VAL28      -0.1245
     38  CA         5.8650   28.2780   17.5280 C.3    28  VAL28       0.1561
     39  C          4.3700   28.1720   17.8470 C.2    28  VAL28       0.2260
     40  O          3.9820   28.1250   19.0170 O.2    28  VAL28      -0.2867
     41  CB         6.6320   26.9330   17.6210 C.3    28  VAL28       0.0252
     42  CG1        6.0100   25.8660   16.7160 C.3    28  VAL28       0.0019
     43  CG2        8.1080   27.1320   17.2670 C.3    28  VAL28       0.0019
     44  N          2.1400   23.1110   12.6320 N.3    46  ALA46      -0.1245
     45  CA         2.9620   23.8010   13.6060 C.3    46  ALA46       0.1562
     46  C          3.6070   24.9290   12.8050 C.2    46  ALA46       0.2260
     47  O          4.2690   24.6640   11.8010 O.2    46  ALA46      -0.2867
     48  CB         4.0210   22.8810   14.1720 C.3    46  ALA46       0.0290
     49  N          6.2380   27.9370   12.7220 N.3    48  LYS48      -0.1245
     50  CA         7.4230   28.5620   13.3150 C.3    48  LYS48       0.1561
     51  C          7.4600   30.0110   12.8570 C.2    48  LYS48       0.2260
     52  O          7.2260   30.2910   11.6800 O.2    48  LYS48      -0.2867
     53  CB         8.7160   27.8760   12.8490 C.3    48  LYS48       0.0271
     54  CG         8.9750   26.4880   13.3990 C.3    48  LYS48       0.0035
     55  CD        10.4200   26.1220   13.1160 C.3    48  LYS48       0.0206
     56  CE        10.6540   24.6440   13.0300 C.3    48  LYS48       0.1093
     57  NZ        12.0630   24.3420   12.6730 N.3    48  LYS48      -0.1314
     58  N         10.3150   15.1790   11.6010 N.3    78  VAL78      -0.1245
     59  CA         9.2310   16.1620   11.4400 C.3    78  VAL78       0.1561
     60  C          9.4770   16.9360   10.1400 C.2    78  VAL78       0.2260
     61  O         10.5570   17.4990    9.9440 O.2    78  VAL78      -0.2867
     62  CB         9.0180   17.0840   12.6760 C.3    78  VAL78       0.0252
     63  CG1        7.9040   18.0960   12.4250 C.3    78  VAL78       0.0019
     64  CG2        8.7210   16.2690   13.9360 C.3    78  VAL78       0.0019
     65  N          5.3590   23.5290    9.4660 N.3    94  MET94      -0.1230
     66  CA         5.7890   22.1500    9.7300 C.3    94  MET94       0.1702
     67  C          4.5790   21.2540    9.9720 C.2    94  MET94       0.2595
     68  O          3.4920   21.7630   10.2560 O.2    94  MET94      -0.2718
     69  CB         6.6780   22.0900   11.0020 C.3    94  MET94       0.0401
     70  CG         7.8950   23.0000   10.9850 C.3    94  MET94       0.0596
     71  SD         9.0940   22.6250    9.6930 S.3    94  MET94      -0.1393
     72  CE         9.8470   21.1340   10.3570 C.3    94  MET94       0.0692
     73  N          4.7790   19.9170    9.9360 N.am   95  GLU95      -0.1920
     74  CA         3.6950   18.9930   10.2790 C.3    95  GLU95       0.1949
     75  C          3.4630   19.0750   11.7870 C.2    95  GLU95       0.2659
     76  O          4.4160   19.2580   12.5520 O.2    95  GLU95      -0.2711
     77  CB         3.9870   17.5440    9.8240 C.2    95  GLU95       0.0111
     78  CG         4.9680   16.7790   10.6880 C.2    95  GLU95       0.0838
     79  CD         5.2720   15.3640   10.2500 C.2    95  GLU95       0.3877
     80  OE1        4.5120   14.4400   10.6210 O.co2  95  GLU95      -0.2406
     81  OE2        6.3240   15.1710    9.6030 O.co2  95  GLU95      -0.2406
     82  N          2.2080   18.9900   12.2080 N.am   96  LEU96      -0.1961
     83  CA         1.9160   19.0490   13.6320 C.3    96  LEU96       0.1728
     84  C          2.1240   17.6890   14.2660 C.2    96  LEU96       0.2616
     85  O          1.7510   16.6620   13.6950 O.2    96  LEU96      -0.2715
     86  CB         0.4930   19.5810   13.9060 C.3    96  LEU96       0.0311
     87  CG         0.0860   19.7650   15.3940 C.3    96  LEU96       0.0022
     88  CD1        0.8060   20.9490   16.0430 C.3    96  LEU96       0.0001
     89  CD2       -1.4210   19.9210   15.5360 C.3    96  LEU96       0.0001
     90  N          2.7390   17.6930   15.4470 N.am   97  MET97      -0.1963
     91  CA         2.9470   16.5030   16.2630 C.3    97  MET97       0.1736
     92  C          1.9880   16.6680   17.4500 C.2    97  MET97       0.2616
     93  O          2.3170   17.3160   18.4440 O.2    97  MET97      -0.2715
     94  CB         4.4250   16.3900   16.6720 C.3    97  MET97       0.0427
     95  CG         5.3580   16.2670   15.4770 C.3    97  MET97       0.0599
     96  SD         5.0680   14.7900   14.4650 S.3    97  MET97      -0.1393
     97  CE         5.8330   13.5670   15.4900 C.3    97  MET97       0.0692
     98  N          0.7600   16.1540   17.2840 N.am   98  ALA98      -0.1963
     99  CA        -0.3700   16.2840   18.2180 C.3    98  ALA98       0.1728
    100  C         -0.1200   16.0640   19.7140 C.2    98  ALA98       0.2616
    101  O         -0.7570   16.7420   20.5290 O.2    98  ALA98      -0.2715
    102  CB        -1.5620   15.4730   17.7350 C.3    98  ALA98       0.0334
    103  N          0.7920   15.1420   20.0790 N.am   99  HIS99      -0.1959
    104  CA         1.0980   14.8710   21.4870 C.3    99  HIS99       0.1787
    105  C          2.3340   15.6060   22.0240 C.2    99  HIS99       0.2621
    106  O          2.7340   15.3740   23.1640 O.2    99  HIS99      -0.2715
    107  CB         1.1160   13.3630   21.7860 C.3    99  HIS99       0.0785
    108  CG        -0.2080   12.7040   21.5590 C.ar   99  HIS99       0.0821
    109  ND1       -0.4660   11.9830   20.4090 N.ar   99  HIS99      -0.2267
    110  CD2       -1.3220   12.7120   22.3300 C.ar   99  HIS99       0.1154
    111  CE1       -1.7180   11.5720   20.5160 C.ar   99  HIS99       0.1986
    112  NE2       -2.2720   11.9810   21.6580 N.ar   99  HIS99      -0.2212
    113  N          2.8840   16.5180   21.2160 N.am  100  GLY100     -0.1940
    114  CA         4.0390   17.3430   21.5680 C.3   100  GLY100      0.2014
    115  C          5.3550   16.6170   21.7280 C.2   100  GLY100      0.2638
    116  O          5.5570   15.5540   21.1340 O.2   100  GLY100     -0.2714
    117  N          6.2620   17.1930   22.5410 N.am  101  ASP101     -0.1971
    118  CA         7.5810   16.6220   22.7950 C.3   101  ASP101      0.1709
    119  C          7.5070   15.3270   23.6050 C.2   101  ASP101      0.2293
    120  O          6.5710   15.1470   24.3850 O.2   101  ASP101     -0.2864
    121  CB         8.5530   17.6550   23.4010 C.3   101  ASP101      0.1436
    122  CG         8.2500   18.0240   24.8400 C.2   101  ASP101      0.3671
    123  OD1        7.4710   18.9770   25.0560 O.co2 101  ASP101     -0.2456
    124  OD2        8.7980   17.3630   25.7500 O.co2 101  ASP101     -0.2456
    125  N          3.5630   12.7430   31.5580 N.3   108  SER108     -0.1217
    126  CA         2.1070   12.6470   31.6890 C.3   108  SER108      0.1889
    127  C          1.6290   11.2040   31.9470 C.2   108  SER108      0.2288
    128  O          0.5130   11.0180   32.4280 O.2   108  SER108     -0.2866
    129  CB         1.4150   13.2420   30.4650 C.3   108  SER108      0.2089
    130  OG         1.5250   12.4100   29.3210 O.3   108  SER108     -0.2183
    131  N         -2.0800   15.4820   34.7740 N.3   115  ASN115     -0.1240
    132  CA        -2.5780   15.4070   33.4030 C.3   115  ASN115      0.1653
    133  C         -2.4870   13.9870   32.8150 C.2   115  ASN115      0.2266
    134  O         -2.2340   13.8360   31.6220 O.2   115  ASN115     -0.2867
    135  CB        -1.8670   16.4510   32.5160 C.3   115  ASN115      0.1155
    136  CG        -0.3660   16.2820   32.3580 C.2   115  ASN115      0.2627
    137  OD1        0.3250   15.6460   33.1650 O.2   115  ASN115     -0.2716
    138  ND2        0.1740   16.8760   31.3100 N.am  115  ASN115     -0.0877
    139  N         -3.6030   10.8790   30.9580 N.3   117  PRO117     -0.2116
    140  CA        -4.7160   10.6630   30.0130 C.3   117  PRO117      0.1372
    141  C         -5.5020    9.3530   30.1770 C.2   117  PRO117      0.2244
    142  O         -6.3250    9.0220   29.3150 O.2   117  PRO117     -0.2868
    143  CB        -4.0410   10.7830   28.6440 C.3   117  PRO117      0.0268
    144  CG        -2.6280   10.3800   28.8790 C.3   117  PRO117      0.0207
    145  CD        -2.2920   10.6180   30.3230 C.3   117  PRO117      0.0892
    146  N         -4.0980    6.3250   30.4030 N.3   119  ARG119     -0.1245
    147  CA        -3.3740    5.3320   29.6040 C.3   119  ARG119      0.1563
    148  C         -2.2350    4.7340   30.4470 C.2   119  ARG119      0.2260
    149  O         -1.6820    5.4510   31.2870 O.2   119  ARG119     -0.2867
    150  CB        -2.7570    5.9900   28.3490 C.3   119  ARG119      0.0307
    151  CG        -3.7300    6.6970   27.4080 C.3   119  ARG119      0.0489
    152  CD        -2.9850    7.2860   26.2220 C.3   119  ARG119      0.2205
    153  NE        -3.7930    8.2450   25.4660 N.pl3 119  ARG119     -0.0865
    154  CZ        -3.3780    9.4550   25.1050 C.cat 119  ARG119      0.5346
    155  NH1       -4.1760   10.2560   24.4110 N.pl3 119  ARG119      0.1354
    156  NH2       -2.1600    9.8730   25.4310 N.pl3 119  ARG119      0.1354
    157  N         13.0760   15.9030   25.0750 N.3   154  ARG154     -0.1245
    158  CA        12.4790   17.2300   24.8660 C.3   154  ARG154      0.1563
    159  C         12.5060   17.6640   23.3880 C.2   154  ARG154      0.2260
    160  O         11.7670   18.5740   23.0200 O.2   154  ARG154     -0.2867
    161  CB        13.1710   18.2910   25.7530 C.3   154  ARG154      0.0307
    162  CG        14.6360   18.5370   25.3980 C.3   154  ARG154      0.0489
    163  CD        15.2880   19.6220   26.2360 C.3   154  ARG154      0.2205
    164  NE        16.7120   19.7490   25.9110 N.pl3 154  ARG154     -0.0865
    165  CZ        17.6960   19.1210   26.5500 C.cat 154  ARG154      0.5346
    166  NH1       18.9550   19.2900   26.1720 N.pl3 154  ARG154      0.1354
    167  NH2       17.4270   18.3220   27.5770 N.pl3 154  ARG154      0.1354
    168  N          9.4820   14.1990   19.1070 N.3   157  MET157     -0.1245
    169  CA         8.0770   14.5460   19.0550 C.3   157  MET157      0.1570
    170  C          7.1480   13.3600   18.8890 C.2   157  MET157      0.2261
    171  O          7.5050   12.4020   18.2970 O.2   157  MET157     -0.2867
    172  CB         7.8010   15.5320   17.9290 C.3   157  MET157      0.0387
    173  CG         8.5830   16.8200   17.9700 C.3   157  MET157      0.0595
    174  SD         8.3930   17.8660   19.3930 S.3   157  MET157     -0.1393
    175  CE         6.7310   18.3840   19.2060 C.3   157  MET157      0.0692
    176  N         12.5730   16.0950   15.9860 N.3   167  GLY167     -0.1210
    177  CA        12.1000   17.4700   15.8610 C.3   167  GLY167      0.1956
    178  C         13.1560   18.3520   15.2210 C.2   167  GLY167      0.2611
    179  O         13.6650   18.0260   14.1460 O.2   167  GLY167     -0.2717
    180  N         13.5040   19.4720   15.8830 N.am  168  ASP168     -0.1973
    181  CA        14.5230   20.4170   15.4030 C.3   168  ASP168      0.1709
    182  C         15.9120   19.9270   15.7850 C.2   168  ASP168      0.2293
    183  O         16.0660   19.2860   16.8290 O.2   168  ASP168     -0.2864
    184  CB        14.2610   21.8360   15.9460 C.3   168  ASP168      0.1436
    185  CG        12.9720   22.4890   15.4560 C.2   168  ASP168      0.3671
    186  OD1       12.5350   22.1790   14.3200 O.co2 168  ASP168     -0.2456
    187  OD2       12.4280   23.3460   16.1860 O.co2 168  ASP168     -0.2456
@<TRIPOS>BOND
     1    65    66    1
     2    81    79   ar
     3    71    72    1
     4    71    70    1
     5    66    67    1
     6    66    69    1
     7    77    74    1
     8    77    78    2
     9    73    67   am
    10    73    74    1
    11    61    60    2
    12    67    68    2
    13    60    59    1
    14    79    80   ar
    15    79    78    1
    16    74    75    1
    17    70    69    1
    18    59    58    1
    19    59    62    1
    20    52    51    2
    21    75    82   am
    22    75    76    2
    23    47    46    2
    24    82    83    1
    25    63    62    1
    26    44    45    1
    27    57    56    1
    28    62    64    1
    29    49    50    1
    30    46    45    1
    31    53    50    1
    32    53    54    1
    33    51    50    1
    34    56    55    1
    35    55    54    1
    36    45    48    1
    37    83    86    1
    38    83    84    1
    39    85    84    2
    40    86    87    1
    41   179   178    2
    42    84    90   am
    43   186   185   ar
    44    96    95    1
    45    96    97    1
    46   178   177    1
    47   178   180   am
    48    87    89    1
    49    87    88    1
    50   181   182    1
    51   181   180    1
    52   181   184    1
    53    90    91    1
    54   185   184    1
    55   185   187   ar
    56    95    94    1
    57   182   183    2
    58   177   176    1
    59    91    94    1
    60    91    92    1
    61    42    41    1
    62    43    41    1
    63    98    92   am
    64    98    99    1
    65    92    93    2
    66    38    41    1
    67    38    39    1
    68    38    37    1
    69   102    99    1
    70    39    40    2
    71   172   173    1
    72   172   169    1
    73   173   174    1
    74    18    17    1
    75    99   100    1
    76   171   170    2
    77     1     2    1
    78     4     3    2
    79   170   169    1
    80   169   168    1
    81   175   174    1
    82    17    19    1
    83    17    16    1
    84    35    34    1
    85    35    36    2
    86    34    33    1
    87   100   103   am
    88   100   101    2
    89     2     3    1
    90     2     5    1
    91   103   104    1
    92    16    13    1
    93    33    26   am
    94   109   111   ar
    95   109   108   ar
    96     6     5    1
    97     6     7    1
    98   111   112   ar
    99    23    22    2
   100    12    13    1
   101   116   115    2
   102   113   114    1
   103   113   105   am
   104    32    30   am
   105     8     7    1
   106     8     9    2
   107    13    14    1
   108   104   107    1
   109   104   105    1
   110    26    27    2
   111    26    25    1
   112   108   107    1
   113   108   110   ar
   114   114   115    1
   115   112   110   ar
   116   115   117   am
   117    11     9    1
   118   105   106    2
   119    20    14   am
   120    20    21    1
   121    22    24   am
   122    22    21    1
   123     9    10    1
   124    25    24    1
   125    25    28    1
   126    30    29    1
   127    30    31    2
   128    14    15    2
   129   117   118    1
   130   118   121    1
   131   118   119    1
   132    29    28    1
   133   160   159    2
   134   159   158    1
   135   121   122    1
   136   119   120    2
   137   155   154    1
   138   122   123   ar
   139   122   124   ar
   140   158   157    1
   141   158   161    1
   142   154   156    1
   143   154   153    2
   144   162   161    1
   145   162   163    1
   146   153   152    1
   147   164   163    1
   148   164   165    2
   149   166   165    1
   150   152   151    1
   151   165   167    1
   152   151   150    1
   153   150   147    1
   154   143   144    1
   155   143   140    1
   156   144   145    1
   157   142   141    2
   158   130   129    1
   159   147   146    1
   160   147   148    1
   161   140   141    1
   162   140   139    1
   163   145   139    1
   164   148   149    2
   165   129   126    1
   166   138   136   am
   167   125   126    1
   168   134   133    2
   169   126   127    1
   170   127   128    2
   171   136   135    1
   172   136   137    2
   173   135   132    1
   174   133   132    1
   175   132   131    1
