@<TRIPOS>MOLECULE
tmp/5e1xA00.pdb
 109 106 0 0 0
SMALL
GASTEIGER

@<TRIPOS>ATOM
      1  N         16.3040   22.5950   -3.3350 N.3    28  LYS28      -0.1245
      2  CA        15.9580   24.0060   -3.6500 C.3    28  LYS28       0.1561
      3  C         17.1450   24.6440   -4.4120 C.2    28  LYS28       0.2260
      4  O         16.8620   25.2700   -5.4520 O.2    28  LYS28      -0.2867
      5  CB        15.7110   24.7040   -2.3180 C.3    28  LYS28       0.0271
      6  CG        15.1850   26.1240   -2.5730 C.3    28  LYS28       0.0035
      7  CD        14.6870   26.7980   -1.3250 C.3    28  LYS28       0.0206
      8  CE        14.2870   28.2550   -1.6850 C.3    28  LYS28       0.1093
      9  NZ        15.3450   29.1830   -2.2070 N.3    28  LYS28      -0.1314
     10  N         16.6180   25.5450   -8.5060 N.3    32  GLU32      -0.1245
     11  CA        16.6390   26.9830   -8.7740 C.3    32  GLU32       0.1567
     12  C         17.8170   27.3720   -9.6590 C.2    32  GLU32       0.2260
     13  O         17.6830   28.2650  -10.4880 O.2    32  GLU32      -0.2867
     14  CB        16.6420   27.7990   -7.4450 C.3    32  GLU32       0.0388
     15  CG        15.2330   27.6980   -6.8550 C.3    32  GLU32       0.1160
     16  CD        15.0220   28.4980   -5.6200 C.2    32  GLU32       0.3649
     17  OE1       15.9670   28.9150   -4.9710 O.co2  32  GLU32      -0.2457
     18  OE2       13.8810   28.6500   -5.1260 O.co2  32  GLU32      -0.2457
     19  N         14.3420   33.8650   -9.1700 N.3    46  THR46      -0.1218
     20  CA        13.2480   33.2070   -8.5630 C.3    46  THR46       0.1862
     21  C         12.3810   34.1440   -7.7290 C.2    46  THR46       0.2287
     22  O         11.1760   34.0560   -7.7590 O.2    46  THR46      -0.2866
     23  CB        13.6630   31.9810   -7.7260 C.3    46  THR46       0.1770
     24  OG1       14.6060   32.4970   -6.7740 O.3    46  THR46      -0.2211
     25  CG2       14.3520   30.9180   -8.6610 C.3    46  THR46       0.0375
     26  N         10.3450   36.4740   -9.9500 N.3    49  PHE49      -0.1227
     27  CA         9.2060   35.7550  -10.5430 C.3    49  PHE49       0.1736
     28  C          8.1490   35.5210   -9.4870 C.2    49  PHE49       0.2595
     29  O          6.9210   35.6690   -9.7910 O.2    49  PHE49      -0.2718
     30  CB         9.6780   34.4060  -11.1280 C.3    49  PHE49       0.0547
     31  CG         8.5680   33.5780  -11.7190 C.ar   49  PHE49      -0.0202
     32  CD1        8.3440   33.5780  -13.0700 C.ar   49  PHE49      -0.0042
     33  CD2        7.9390   32.6550  -10.9450 C.ar   49  PHE49      -0.0042
     34  CE1        7.3390   32.7800  -13.6120 C.ar   49  PHE49      -0.0003
     35  CE2        6.9140   31.8330  -11.4330 C.ar   49  PHE49      -0.0003
     36  CZ         6.6270   31.8710  -12.7400 C.ar   49  PHE49      -0.0000
     37  N          8.5220   35.1120   -8.2590 N.am   50  ALA50      -0.1980
     38  CA         7.4790   34.8460   -7.2570 C.3    50  ALA50       0.1597
     39  C          6.6920   36.1270   -6.9660 C.2    50  ALA50       0.2287
     40  O          5.4560   36.0520   -6.8140 O.2    50  ALA50      -0.2864
     41  CB         8.1320   34.3590   -5.9150 C.3    50  ALA50       0.0319
     42  N          4.3630   36.8060   -9.8970 N.3    53  HIS53      -0.1226
     43  CA         3.2460   35.8590   -9.8080 C.3    53  HIS53       0.1752
     44  C          2.2330   36.2720   -8.7330 C.2    53  HIS53       0.2595
     45  O          1.0270   36.2650   -8.9780 O.2    53  HIS53      -0.2718
     46  CB         3.8530   34.4750   -9.5420 C.3    53  HIS53       0.0759
     47  CG         2.8440   33.3790   -9.5050 C.ar   53  HIS53       0.0818
     48  ND1        3.1330   32.1910   -8.8690 N.ar   53  HIS53      -0.2268
     49  CD2        1.5530   33.3150   -9.9830 C.ar   53  HIS53       0.1154
     50  CE1        2.0430   31.4050   -9.0180 C.ar   53  HIS53       0.1986
     51  NE2        1.0960   32.0540   -9.6880 N.ar   53  HIS53      -0.2212
     52  N          2.7130   36.5790   -7.4940 N.am   54  GLU54      -0.1979
     53  CA         1.7550   36.9870   -6.4960 C.3    54  GLU54       0.1602
     54  C          0.9800   38.2130   -6.8620 C.2    54  GLU54       0.2287
     55  O         -0.1970   38.3020   -6.5690 O.2    54  GLU54      -0.2864
     56  CB         2.5270   37.2300   -5.1630 C.3    54  GLU54       0.0415
     57  CG         3.2400   35.9650   -4.6080 C.3    54  GLU54       0.1163
     58  CD         2.3280   34.8640   -4.1010 C.2    54  GLU54       0.3649
     59  OE1        1.1150   35.1250   -3.8720 O.co2  54  GLU54      -0.2457
     60  OE2        2.7940   33.7540   -3.7660 O.co2  54  GLU54      -0.2457
     61  N          2.8180   36.0850    0.8220 N.3    71  ILE71      -0.1231
     62  CA         4.0730   35.3560    0.3980 C.3    71  ILE71       0.1692
     63  C          4.8370   35.0270    1.6700 C.2    71  ILE71       0.2592
     64  O          4.7350   35.7040    2.6840 O.2    71  ILE71      -0.2718
     65  CB         4.8280   36.1890   -0.6580 C.3    71  ILE71       0.0266
     66  CG1        5.8050   35.2810   -1.4360 C.3    71  ILE71       0.0019
     67  CG2        5.4690   37.4280   -0.0370 C.3    71  ILE71       0.0020
     68  CD1        6.4200   36.0640   -2.6060 C.3    71  ILE71       0.0001
     69  N          5.6620   34.0020    1.5930 N.am   72  VAL72      -0.1966
     70  CA         6.3400   33.5180    2.7570 C.3    72  VAL72       0.1727
     71  C          7.4870   34.4220    3.1730 C.2    72  VAL72       0.2616
     72  O          7.8940   34.3040    4.3400 O.2    72  VAL72      -0.2715
     73  CB         6.7580   32.0090    2.5270 C.3    72  VAL72       0.0290
     74  CG1        7.9910   31.8060    1.6140 C.3    72  VAL72       0.0023
     75  CG2        6.9980   31.3740    3.8720 C.3    72  VAL72       0.0023
     76  N          8.0230   35.1590    2.2070 N.am   73  PHE73      -0.1974
     77  CA         9.2950   35.8980    2.4400 C.3    73  PHE73       0.1639
     78  C          9.1300   36.9530    3.5340 C.2    73  PHE73       0.2290
     79  O          8.0480   37.4770    3.8200 O.2    73  PHE73      -0.2864
     80  CB         9.7600   36.6230    1.1790 C.3    73  PHE73       0.0560
     81  CG         9.9080   35.7940   -0.0610 C.ar   73  PHE73      -0.0200
     82  CD1       10.2620   34.4780    0.0060 C.ar   73  PHE73      -0.0042
     83  CD2        9.8390   36.4650   -1.3220 C.ar   73  PHE73      -0.0042
     84  CE1       10.4140   33.7070   -1.2380 C.ar   73  PHE73      -0.0003
     85  CE2       10.0600   35.7850   -2.5370 C.ar   73  PHE73      -0.0003
     86  CZ        10.3030   34.3950   -2.4830 C.ar   73  PHE73      -0.0000
     87  N          9.9850   23.1950  -14.9540 N.3   125  TYR125     -0.1241
     88  CA         9.6810   22.3740  -13.7920 C.3   125  TYR125      0.1605
     89  C          9.1800   20.9630  -14.2310 C.2   125  TYR125      0.2264
     90  O          9.5530   19.9660  -13.5790 O.2   125  TYR125     -0.2867
     91  CB         8.6880   23.1050  -12.8730 C.3   125  TYR125      0.0534
     92  CG         9.2870   24.2620  -12.0960 C.ar  125  TYR125     -0.0201
     93  CD1       10.5000   24.1240  -11.4240 C.ar  125  TYR125     -0.0009
     94  CD2        8.6410   25.5130  -12.1050 C.ar  125  TYR125     -0.0009
     95  CE1       11.0050   25.1960  -10.6770 C.ar  125  TYR125      0.0417
     96  CE2        9.1640   26.5700  -11.3560 C.ar  125  TYR125      0.0417
     97  CZ        10.3470   26.4030  -10.6820 C.ar  125  TYR125      0.1957
     98  OH        10.7790   27.5560   -9.9680 O.3   125  TYR125     -0.2866
     99  N         -2.7490   28.3160   -3.2510 N.3   165  PHE165     -0.1241
    100  CA        -2.5920   27.7020   -4.5920 C.3   165  PHE165      0.1605
    101  C         -3.1840   26.2900   -4.6550 C.2   165  PHE165      0.2264
    102  O         -3.1840   25.5320   -3.6580 O.2   165  PHE165     -0.2867
    103  CB        -1.1300   27.5540   -4.8540 C.3   165  PHE165      0.0534
    104  CG        -0.4540   28.8810   -5.0860 C.ar  165  PHE165     -0.0203
    105  CD1       -0.8110   29.7320   -6.1500 C.ar  165  PHE165     -0.0042
    106  CD2        0.6410   29.3240   -4.2710 C.ar  165  PHE165     -0.0042
    107  CE1       -0.1610   30.9500   -6.3640 C.ar  165  PHE165     -0.0003
    108  CE2        1.2960   30.5200   -4.5530 C.ar  165  PHE165     -0.0003
    109  CZ         0.9260   31.3460   -5.5510 C.ar  165  PHE165     -0.0000
@<TRIPOS>BOND
     1    87    88    1
     2    89    88    1
     3    89    90    2
     4    88    91    1
     5    34    32   ar
     6    34    36   ar
     7    32    31   ar
     8    91    92    1
     9    36    35   ar
    10    94    92   ar
    11    94    96   ar
    12    92    93   ar
    13    31    30    1
    14    31    33   ar
    15    35    33   ar
    16    93    95   ar
    17    96    97   ar
    18    30    27    1
    19    97    95   ar
    20    97    98    1
    21    27    26    1
    22    27    28    1
    23    13    12    2
    24    49    51   ar
    25    49    47   ar
    26    42    43    1
    27    43    46    1
    28    43    44    1
    29    29    28    2
    30    51    50   ar
    31    12    11    1
    32    46    47    1
    33    47    48   ar
    34    28    37   am
    35    19    20    1
    36    50    48   ar
    37    45    44    2
    38    11    10    1
    39    11    14    1
    40    44    52   am
    41    25    23    1
    42    20    21    1
    43    20    23    1
    44    37    38    1
    45    22    21    2
    46    23    24    1
    47    52    53    1
    48    14    15    1
    49    38    39    1
    50    38    41    1
    51    39    40    2
    52    54    55    2
    53    54    53    1
    54    15    16    1
    55    53    56    1
    56   107   105   ar
    57   107   109   ar
    58   105   104   ar
    59    16    18   ar
    60    16    17   ar
    61   109   108   ar
    62     4     3    2
    63    56    57    1
    64   104   103    1
    65   104   106   ar
    66   103   100    1
    67   101   100    1
    68   101   102    2
    69    57    58    1
    70   100    99    1
    71   108   106   ar
    72     3     2    1
    73    58    59   ar
    74    58    60   ar
    75     2     1    1
    76     2     5    1
    77    68    66    1
    78     6     5    1
    79     6     7    1
    80    85    86   ar
    81    85    83   ar
    82    86    84   ar
    83     9     8    1
    84     8     7    1
    85    66    65    1
    86    83    81   ar
    87    84    82   ar
    88    65    67    1
    89    65    62    1
    90    81    82   ar
    91    81    80    1
    92    62    61    1
    93    62    63    1
    94    80    77    1
    95    69    63   am
    96    69    70    1
    97    74    73    1
    98    63    64    2
    99    76    77    1
   100    76    71   am
   101    77    78    1
   102    73    70    1
   103    73    75    1
   104    70    71    1
   105    71    72    2
   106    78    79    2
