@<TRIPOS>MOLECULE
tmp/5e1zA00.pdb
 91 90 0 0 0
SMALL
GASTEIGER

@<TRIPOS>ATOM
      1  N        -14.2840   34.0930   23.4810 N.3    46  THR46      -0.1218
      2  CA       -13.1330   33.4400   22.9580 C.3    46  THR46       0.1862
      3  C        -12.3140   34.3570   22.0910 C.2    46  THR46       0.2287
      4  O        -11.0740   34.2920   22.1470 O.2    46  THR46      -0.2866
      5  CB       -13.4890   32.1730   22.1440 C.3    46  THR46       0.1770
      6  OG1      -14.3140   32.5510   21.0120 O.3    46  THR46      -0.2211
      7  CG2      -14.1690   31.1330   23.0450 C.3    46  THR46       0.0375
      8  N        -10.3100   36.7700   24.3800 N.3    49  PHE49      -0.1227
      9  CA        -9.1660   35.9770   24.9710 C.3    49  PHE49       0.1736
     10  C         -8.0560   35.7240   23.9360 C.2    49  PHE49       0.2595
     11  O         -6.8660   35.9090   24.2700 O.2    49  PHE49      -0.2718
     12  CB        -9.6810   34.6430   25.5520 C.3    49  PHE49       0.0547
     13  CG        -8.5330   33.8180   26.1600 C.ar   49  PHE49      -0.0202
     14  CD1       -8.1240   34.0570   27.4660 C.ar   49  PHE49      -0.0042
     15  CD2       -7.9980   32.7870   25.4420 C.ar   49  PHE49      -0.0042
     16  CE1       -7.0920   33.2800   28.0320 C.ar   49  PHE49      -0.0003
     17  CE2       -6.9570   32.0090   26.0190 C.ar   49  PHE49      -0.0003
     18  CZ        -6.5360   32.2230   27.2970 C.ar   49  PHE49      -0.0000
     19  N         -8.4330   35.3180   22.7190 N.am   50  ALA50      -0.1980
     20  CA        -7.3740   35.0660   21.6980 C.3    50  ALA50       0.1597
     21  C         -6.5320   36.3370   21.4650 C.2    50  ALA50       0.2287
     22  O         -5.3150   36.2500   21.3020 O.2    50  ALA50      -0.2864
     23  CB        -8.0490   34.6140   20.3850 C.3    50  ALA50       0.0319
     24  N         -4.2770   37.0270   24.3240 N.3    53  HIS53      -0.1226
     25  CA        -3.1660   36.0880   24.2820 C.3    53  HIS53       0.1752
     26  C         -2.1040   36.4600   23.1980 C.2    53  HIS53       0.2595
     27  O         -0.9130   36.4810   23.4450 O.2    53  HIS53      -0.2718
     28  CB        -3.7470   34.7030   24.0470 C.3    53  HIS53       0.0759
     29  CG        -2.7410   33.6220   24.0060 C.ar   53  HIS53       0.0818
     30  ND1       -2.9970   32.4110   23.3710 N.ar   53  HIS53      -0.2268
     31  CD2       -1.4860   33.5550   24.5350 C.ar   53  HIS53       0.1154
     32  CE1       -1.9030   31.6470   23.4940 C.ar   53  HIS53       0.1986
     33  NE2       -0.9750   32.3170   24.2150 N.ar   53  HIS53      -0.2212
     34  N         -2.6000   36.7850   21.9830 N.am   54  GLU54      -0.1979
     35  CA        -1.6310   37.1730   20.9630 C.3    54  GLU54       0.1602
     36  C         -0.8990   38.4130   21.3640 C.2    54  GLU54       0.2287
     37  O          0.2840   38.5360   21.0640 O.2    54  GLU54      -0.2864
     38  CB        -2.4040   37.4280   19.6340 C.3    54  GLU54       0.0415
     39  CG        -3.1180   36.1970   19.0870 C.3    54  GLU54       0.1163
     40  CD        -2.1580   35.1420   18.5080 C.2    54  GLU54       0.3649
     41  OE1       -0.9290   35.4100   18.3810 O.co2  54  GLU54      -0.2457
     42  OE2       -2.5650   33.9930   18.2520 O.co2  54  GLU54      -0.2457
     43  N         -2.7040   36.3890   13.6910 N.3    71  ILE71      -0.1231
     44  CA        -3.9890   35.6980   14.1550 C.3    71  ILE71       0.1692
     45  C         -4.8140   35.2930   12.9290 C.2    71  ILE71       0.2592
     46  O         -4.7160   35.9510   11.8870 O.2    71  ILE71      -0.2718
     47  CB        -4.7480   36.6080   15.1560 C.3    71  ILE71       0.0266
     48  CG1       -5.7000   35.7670   16.0820 C.3    71  ILE71       0.0019
     49  CG2       -5.5190   37.7220   14.4050 C.3    71  ILE71       0.0020
     50  CD1       -6.3150   36.7210   17.1360 C.3    71  ILE71       0.0001
     51  N         -5.5950   34.2100   13.0490 N.am   72  VAL72      -0.1966
     52  CA        -6.3220   33.7210   11.8470 C.3    72  VAL72       0.1727
     53  C         -7.4730   34.6360   11.4330 C.2    72  VAL72       0.2616
     54  O         -7.8910   34.5730   10.2450 O.2    72  VAL72      -0.2715
     55  CB        -6.7980   32.2480   12.1050 C.3    72  VAL72       0.0290
     56  CG1       -7.9980   32.1850   13.0480 C.3    72  VAL72       0.0023
     57  CG2       -7.1490   31.5880   10.8060 C.3    72  VAL72       0.0023
     58  N         -8.0820   35.4300   12.3520 N.am   73  PHE73      -0.1974
     59  CA        -9.3010   36.1590   12.0430 C.3    73  PHE73       0.1639
     60  C         -9.1200   37.2230   10.9530 C.2    73  PHE73       0.2290
     61  O         -7.9930   37.7630   10.7370 O.2    73  PHE73      -0.2864
     62  CB        -9.8020   36.8870   13.2960 C.3    73  PHE73       0.0560
     63  CG        -9.9330   36.0130   14.5280 C.ar   73  PHE73      -0.0200
     64  CD1      -10.3660   34.6830   14.4490 C.ar   73  PHE73      -0.0042
     65  CD2       -9.6930   36.6140   15.7890 C.ar   73  PHE73      -0.0042
     66  CE1      -10.4620   33.8800   15.6490 C.ar   73  PHE73      -0.0003
     67  CE2       -9.8990   35.8790   16.9710 C.ar   73  PHE73      -0.0003
     68  CZ       -10.2290   34.4950   16.8980 C.ar   73  PHE73      -0.0000
     69  N        -10.0040   23.5570   29.2870 N.3   126  TYR126     -0.1241
     70  CA        -9.7400   22.6880   28.1350 C.3   126  TYR126      0.1605
     71  C         -9.2670   21.3150   28.5460 C.2   126  TYR126      0.2264
     72  O         -9.5430   20.3620   27.8800 O.2   126  TYR126     -0.2867
     73  CB        -8.7720   23.3350   27.1370 C.3   126  TYR126      0.0534
     74  CG        -9.3790   24.5280   26.4160 C.ar  126  TYR126     -0.0201
     75  CD1      -10.5870   24.4130   25.7690 C.ar  126  TYR126     -0.0009
     76  CD2       -8.7330   25.7420   26.3890 C.ar  126  TYR126     -0.0009
     77  CE1      -11.1540   25.5290   25.1230 C.ar  126  TYR126      0.0417
     78  CE2       -9.2710   26.8380   25.7630 C.ar  126  TYR126      0.0417
     79  CZ       -10.4620   26.7370   25.1300 C.ar  126  TYR126      0.1957
     80  OH       -10.9270   27.9060   24.5020 O.3   126  TYR126     -0.2866
     81  N          2.8380   28.4460   17.7090 N.3   166  PHE166     -0.1298
     82  CA         2.6460   27.8850   19.0390 C.3   166  PHE166      0.1290
     83  C          3.2470   26.4910   19.1410 C.3   166  PHE166      0.2013
     84  O          3.2110   25.6940   18.1320 O.3   166  PHE166     -0.2188
     85  CB         1.1470   27.7840   19.3890 C.3   166  PHE166      0.0480
     86  CG         0.5190   29.1070   19.5890 C.ar  166  PHE166     -0.0206
     87  CD1        0.9320   29.9500   20.6590 C.ar  166  PHE166     -0.0042
     88  CD2       -0.5360   29.5060   18.7560 C.ar  166  PHE166     -0.0042
     89  CE1        0.2890   31.1430   20.8720 C.ar  166  PHE166     -0.0003
     90  CE2       -1.1700   30.7190   18.9820 C.ar  166  PHE166     -0.0003
     91  CZ        -0.7500   31.5810   20.0160 C.ar  166  PHE166     -0.0000
@<TRIPOS>BOND
     1    54    53    2
     2    61    60    2
     3    57    55    1
     4    60    59    1
     5    53    52    1
     6    53    58   am
     7    52    55    1
     8    52    51    1
     9    46    45    2
    10    59    58    1
    11    59    62    1
    12    55    56    1
    13    45    51   am
    14    45    44    1
    15    62    63    1
    16    43    44    1
    17    44    47    1
    18    49    47    1
    19    64    63   ar
    20    64    66   ar
    21    63    65   ar
    22    47    48    1
    23    66    68   ar
    24    65    67   ar
    25    48    50    1
    26    68    67   ar
    27    81    82    1
    28    84    83    1
    29    42    40   ar
    30    41    40   ar
    31    40    39    1
    32    88    90   ar
    33    88    86   ar
    34    90    91   ar
    35    82    83    1
    36    82    85    1
    37    39    38    1
    38    85    86    1
    39    86    87   ar
    40    38    35    1
    41    91    89   ar
    42    23    20    1
    43    87    89   ar
    44    35    36    1
    45    35    34    1
    46     6     5    1
    47    37    36    2
    48    22    21    2
    49    21    20    1
    50    20    19    1
    51    34    26   am
    52     3     4    2
    53     3     2    1
    54     5     2    1
    55     5     7    1
    56    19    10   am
    57     2     1    1
    58    26    27    2
    59    26    25    1
    60    30    32   ar
    61    30    29   ar
    62    32    33   ar
    63    10    11    2
    64    10     9    1
    65    29    28    1
    66    29    31   ar
    67    28    25    1
    68    33    31   ar
    69    25    24    1
    70     8     9    1
    71    80    79    1
    72     9    12    1
    73    77    79   ar
    74    77    75   ar
    75    79    78   ar
    76    15    17   ar
    77    15    13   ar
    78    12    13    1
    79    78    76   ar
    80    75    74   ar
    81    17    18   ar
    82    13    14   ar
    83    76    74   ar
    84    74    73    1
    85    73    70    1
    86    18    16   ar
    87    14    16   ar
    88    72    71    2
    89    70    71    1
    90    70    69    1
