@<TRIPOS>MOLECULE
tmp/5e20A00.pdb
 91 90 0 0 0
SMALL
GASTEIGER

@<TRIPOS>ATOM
      1  N        -14.2020  -33.9500   -8.4870 N.3    46  THR46      -0.1218
      2  CA       -13.0140  -33.2210   -7.9900 C.3    46  THR46       0.1862
      3  C        -12.1280  -34.1540   -7.1440 C.2    46  THR46       0.2287
      4  O        -10.9090  -34.1020   -7.2480 O.2    46  THR46      -0.2866
      5  CB       -13.3860  -31.9490   -7.1980 C.3    46  THR46       0.1770
      6  OG1      -14.3140  -32.3100   -6.2350 O.3    46  THR46      -0.2211
      7  CG2      -13.9970  -30.8840   -8.0500 C.3    46  THR46       0.0375
      8  N        -10.2200  -36.5830   -9.4790 N.3    49  PHE49      -0.1227
      9  CA        -9.1010  -35.8800  -10.1760 C.3    49  PHE49       0.1736
     10  C         -7.9340  -35.6110   -9.1870 C.2    49  PHE49       0.2595
     11  O         -6.7520  -35.7610   -9.4980 O.2    49  PHE49      -0.2718
     12  CB        -9.5590  -34.5060  -10.7660 C.3    49  PHE49       0.0547
     13  CG        -8.4140  -33.7730  -11.4190 C.ar   49  PHE49      -0.0202
     14  CD1       -7.8810  -34.2090  -12.6350 C.ar   49  PHE49      -0.0042
     15  CD2       -7.7880  -32.7340  -10.7650 C.ar   49  PHE49      -0.0042
     16  CE1       -6.8120  -33.5040  -13.2590 C.ar   49  PHE49      -0.0003
     17  CE2       -6.7000  -32.0560  -11.3480 C.ar   49  PHE49      -0.0003
     18  CZ        -6.2360  -32.4180  -12.6140 C.ar   49  PHE49      -0.0000
     19  N         -8.2730  -35.1700   -7.9720 N.am   50  ALA50      -0.1980
     20  CA        -7.2570  -34.9680   -6.9120 C.3    50  ALA50       0.1597
     21  C         -6.4270  -36.2180   -6.7020 C.2    50  ALA50       0.2287
     22  O         -5.2130  -36.1410   -6.6210 O.2    50  ALA50      -0.2864
     23  CB        -7.9010  -34.5220   -5.5600 C.3    50  ALA50       0.0319
     24  N         -4.1430  -36.7610   -9.6420 N.3    53  HIS53      -0.1226
     25  CA        -3.0440  -35.7780   -9.5060 C.3    53  HIS53       0.1752
     26  C         -2.0120  -36.1930   -8.4470 C.2    53  HIS53       0.2595
     27  O         -0.8080  -36.2870   -8.7180 O.2    53  HIS53      -0.2718
     28  CB        -3.5520  -34.3370   -9.2760 C.3    53  HIS53       0.0759
     29  CG        -2.5530  -33.3000   -9.6820 C.ar   53  HIS53       0.0818
     30  ND1       -2.7980  -32.3790  -10.6700 N.ar   53  HIS53      -0.2268
     31  CD2       -1.2710  -33.0930   -9.2870 C.ar   53  HIS53       0.1154
     32  CE1       -1.7070  -31.6580  -10.8810 C.ar   53  HIS53       0.1986
     33  NE2       -0.7750  -32.0540  -10.0340 N.ar   53  HIS53      -0.2212
     34  N         -2.4880  -36.5630   -7.2570 N.am   54  GLU54      -0.1979
     35  CA        -1.5510  -36.9350   -6.1880 C.3    54  GLU54       0.1602
     36  C         -0.7510  -38.1780   -6.6210 C.2    54  GLU54       0.2287
     37  O          0.4460  -38.2780   -6.3830 O.2    54  GLU54      -0.2864
     38  CB        -2.3440  -37.2210   -4.8960 C.3    54  GLU54       0.0415
     39  CG        -2.9750  -35.9330   -4.3570 C.3    54  GLU54       0.1163
     40  CD        -1.9620  -34.8740   -3.8700 C.2    54  GLU54       0.3649
     41  OE1       -0.7400  -35.1840   -3.7150 O.co2  54  GLU54      -0.2457
     42  OE2       -2.3770  -33.7090   -3.6040 O.co2  54  GLU54      -0.2457
     43  N         -2.5070  -36.2450    0.9470 N.3    71  ILE71      -0.1231
     44  CA        -3.7320  -35.5690    0.4680 C.3    71  ILE71       0.1692
     45  C         -4.5520  -35.1560    1.6770 C.2    71  ILE71       0.2592
     46  O         -4.4850  -35.8420    2.7120 O.2    71  ILE71      -0.2718
     47  CB        -4.5780  -36.5040   -0.4810 C.3    71  ILE71       0.0266
     48  CG1       -5.4740  -35.6770   -1.4410 C.3    71  ILE71       0.0019
     49  CG2       -5.4370  -37.5340    0.3010 C.3    71  ILE71       0.0020
     50  CD1       -6.1480  -36.6180   -2.4700 C.3    71  ILE71       0.0001
     51  N         -5.3350  -34.0610    1.5420 N.am   72  VAL72      -0.1966
     52  CA        -6.1220  -33.5480    2.6600 C.3    72  VAL72       0.1727
     53  C         -7.2640  -34.4540    3.1170 C.2    72  VAL72       0.2616
     54  O         -7.6010  -34.3940    4.2850 O.2    72  VAL72      -0.2715
     55  CB        -6.6320  -32.0570    2.4080 C.3    72  VAL72       0.0290
     56  CG1       -7.7590  -31.9950    1.4040 C.3    72  VAL72       0.0023
     57  CG2       -7.0740  -31.4280    3.6830 C.3    72  VAL72       0.0023
     58  N         -7.8760  -35.2730    2.2250 N.am   73  PHE73      -0.1974
     59  CA        -9.1300  -35.9590    2.5670 C.3    73  PHE73       0.1639
     60  C         -8.9280  -37.0600    3.6440 C.2    73  PHE73       0.2290
     61  O         -7.7780  -37.5540    3.8530 O.2    73  PHE73      -0.2864
     62  CB        -9.7900  -36.5140    1.3020 C.3    73  PHE73       0.0560
     63  CG        -9.9300  -35.4720    0.1880 C.ar   73  PHE73      -0.0200
     64  CD1      -10.6910  -34.3040    0.3870 C.ar   73  PHE73      -0.0042
     65  CD2       -9.3010  -35.6560   -1.0360 C.ar   73  PHE73      -0.0042
     66  CE1      -10.7900  -33.3350   -0.6110 C.ar   73  PHE73      -0.0003
     67  CE2       -9.4260  -34.6840   -2.0640 C.ar   73  PHE73      -0.0003
     68  CZ       -10.1340  -33.5300   -1.8220 C.ar   73  PHE73      -0.0000
     69  N         -9.9810  -23.2090  -14.6750 N.3   126  TYR126     -0.1241
     70  CA        -9.6760  -22.3540  -13.4800 C.3   126  TYR126      0.1605
     71  C         -9.1970  -20.9770  -13.9110 C.2   126  TYR126      0.2264
     72  O         -9.5090  -19.9730  -13.3070 O.2   126  TYR126     -0.2867
     73  CB        -8.6210  -23.0140  -12.5640 C.3   126  TYR126      0.0534
     74  CG        -9.0490  -24.3970  -11.9840 C.ar  126  TYR126     -0.0201
     75  CD1      -10.3070  -24.5500  -11.3730 C.ar  126  TYR126     -0.0009
     76  CD2       -8.1840  -25.5280  -12.0610 C.ar  126  TYR126     -0.0009
     77  CE1      -10.7110  -25.7900  -10.8400 C.ar  126  TYR126      0.0417
     78  CE2       -8.5750  -26.7670  -11.5230 C.ar  126  TYR126      0.0417
     79  CZ        -9.8490  -26.8660  -10.9500 C.ar  126  TYR126      0.1957
     80  OH       -10.2730  -28.0700  -10.4020 O.3   126  TYR126     -0.2866
     81  N          2.9410  -28.2740   -3.1400 N.3   166  PHE166     -0.1241
     82  CA         2.7220  -27.6750   -4.4480 C.3   166  PHE166      0.1605
     83  C          3.3100  -26.2940   -4.5850 C.2   166  PHE166      0.2264
     84  O          3.2310  -25.5030   -3.6610 O.2   166  PHE166     -0.2867
     85  CB         1.2370  -27.5490   -4.7060 C.3   166  PHE166      0.0534
     86  CG         0.5850  -28.8670   -4.9550 C.ar  166  PHE166     -0.0203
     87  CD1        0.9810  -29.6360   -6.0520 C.ar  166  PHE166     -0.0042
     88  CD2       -0.4260  -29.3490   -4.0780 C.ar  166  PHE166     -0.0042
     89  CE1        0.3540  -30.8440   -6.3250 C.ar  166  PHE166     -0.0003
     90  CE2       -1.0330  -30.5560   -4.3360 C.ar  166  PHE166     -0.0003
     91  CZ        -0.6600  -31.3150   -5.4340 C.ar  166  PHE166     -0.0000
@<TRIPOS>BOND
     1    69    70    1
     2    71    70    1
     3    71    72    2
     4    70    73    1
     5    16    14   ar
     6    16    18   ar
     7    14    13   ar
     8    18    17   ar
     9    73    74    1
    10    76    74   ar
    11    76    78   ar
    12    74    75   ar
    13    78    79   ar
    14    13    12    1
    15    13    15   ar
    16    75    77   ar
    17    17    15   ar
    18    79    77   ar
    19    79    80    1
    20    32    30   ar
    21    32    33   ar
    22    12     9    1
    23    30    29   ar
    24     9     8    1
    25     9    10    1
    26    33    31   ar
    27    29    31   ar
    28    29    28    1
    29    24    25    1
    30    25    28    1
    31    25    26    1
    32    11    10    2
    33    10    19   am
    34    27    26    2
    35     1     2    1
    36    26    34   am
    37     7     5    1
    38     2     5    1
    39     2     3    1
    40    19    20    1
    41    34    35    1
    42     4     3    2
    43     5     6    1
    44    20    21    1
    45    20    23    1
    46    21    22    2
    47    36    37    2
    48    36    35    1
    49    89    87   ar
    50    89    91   ar
    51    35    38    1
    52    87    86   ar
    53    91    90   ar
    54    86    85    1
    55    86    88   ar
    56    38    39    1
    57    85    82    1
    58    83    82    1
    59    83    84    2
    60    82    81    1
    61    39    40    1
    62    90    88   ar
    63    40    41   ar
    64    40    42   ar
    65    50    48    1
    66    67    68   ar
    67    67    65   ar
    68    68    66   ar
    69    48    47    1
    70    65    63   ar
    71    66    64   ar
    72    47    49    1
    73    47    44    1
    74    63    64   ar
    75    63    62    1
    76    44    43    1
    77    44    45    1
    78    62    59    1
    79    56    55    1
    80    51    45   am
    81    51    52    1
    82    45    46    2
    83    58    59    1
    84    58    53   am
    85    55    52    1
    86    55    57    1
    87    59    60    1
    88    52    53    1
    89    53    54    2
    90    60    61    2
