@<TRIPOS>MOLECULE
tmp/5e24C00.pdb
 235 230 0 0 0
SMALL
GASTEIGER

@<TRIPOS>ATOM
      1  N        -49.6440   21.8950    6.5830 N.3    12  ASN12      -0.1240
      2  CA       -50.5100   22.8300    5.8730 C.3    12  ASN12       0.1653
      3  C        -50.3370   24.2970    6.3190 C.2    12  ASN12       0.2266
      4  O        -50.0990   24.5610    7.5000 O.2    12  ASN12      -0.2867
      5  CB       -51.9780   22.4000    5.9410 C.3    12  ASN12       0.1155
      6  CG       -52.7920   22.9580    4.7940 C.2    12  ASN12       0.2627
      7  OD1      -52.3840   22.9350    3.6260 O.2    12  ASN12      -0.2716
      8  ND2      -53.9650   23.4400    5.0880 N.am   12  ASN12      -0.0877
      9  N        -52.4220   26.6150    6.9030 N.3    14  ASP14      -0.1225
     10  CA       -53.3540   27.1800    7.8880 C.3    14  ASP14       0.1805
     11  C        -52.9760   26.7710    9.3390 C.2    14  ASP14       0.2597
     12  O        -53.6080   27.2190   10.2880 O.2    14  ASP14      -0.2718
     13  CB       -54.8140   26.8110    7.5550 C.3    14  ASP14       0.1424
     14  CG       -55.1170   25.3220    7.4790 C.2    14  ASP14       0.3668
     15  OD1      -54.1950   24.5070    7.7300 O.co2  14  ASP14      -0.2456
     16  OD2      -56.2610   24.9720    7.1260 O.co2  14  ASP14      -0.2456
     17  N        -51.9540   25.9140    9.5020 N.am   15  LYS15      -0.1979
     18  CA       -51.5120   25.4240   10.8180 C.3    15  LYS15       0.1596
     19  C        -50.3560   26.2740   11.3940 C.2    15  LYS15       0.2287
     20  O        -49.7780   27.0900   10.6720 O.2    15  LYS15      -0.2864
     21  CB       -51.1360   23.9240   10.7410 C.3    15  LYS15       0.0298
     22  CG       -52.2460   22.9770   10.2320 C.3    15  LYS15       0.0038
     23  CD       -53.5430   23.0760   11.0540 C.3    15  LYS15       0.0206
     24  CE       -54.6550   22.1280   10.6840 C.3    15  LYS15       0.1093
     25  NZ       -55.0450   22.2340    9.2600 N.3    15  LYS15      -0.1314
     26  N        -48.1400   24.2340   -1.1330 N.3    41  ASP41      -0.1225
     27  CA       -49.5550   24.0890   -1.4980 C.3    41  ASP41       0.1805
     28  C        -49.7420   22.6660   -2.0270 C.2    41  ASP41       0.2597
     29  O        -48.7820   22.0700   -2.5260 O.2    41  ASP41      -0.2718
     30  CB       -50.0080   25.1220   -2.5490 C.3    41  ASP41       0.1424
     31  CG       -51.5180   25.1510   -2.7960 C.2    41  ASP41       0.3668
     32  OD1      -52.2930   24.7700   -1.8710 O.co2  41  ASP41      -0.2456
     33  OD2      -51.9270   25.5400   -3.9070 O.co2  41  ASP41      -0.2456
     34  N        -50.9480   22.1050   -1.8590 N.am   42  LYS42      -0.1979
     35  CA       -51.3100   20.7160   -2.2800 C.3    42  LYS42       0.1596
     36  C        -50.3110   19.6440   -1.7810 C.2    42  LYS42       0.2287
     37  O        -50.0230   18.6790   -2.4920 O.2    42  LYS42      -0.2864
     38  CB       -51.4550   20.6160   -3.8180 C.3    42  LYS42       0.0298
     39  CG       -52.4320   21.5950   -4.4490 C.3    42  LYS42       0.0038
     40  CD       -52.2630   21.5770   -5.9580 C.3    42  LYS42       0.0206
     41  CE       -53.1120   22.6470   -6.6370 C.3    42  LYS42       0.1093
     42  NZ       -54.4540   22.1390   -6.9830 N.3    42  LYS42      -0.1314
     43  N        -50.5900   17.3740    0.3240 N.3    44  GLU44      -0.1231
     44  CA       -51.2430   16.0730    0.4950 C.3    44  GLU44       0.1699
     45  C        -51.3270   15.2860   -0.8350 C.2    44  GLU44       0.2592
     46  O        -51.4500   14.0670   -0.8180 O.2    44  GLU44      -0.2718
     47  CB       -52.6120   16.2230    1.2040 C.3    44  GLU44       0.0402
     48  CG       -53.7650   16.6320    0.2900 C.3    44  GLU44       0.1161
     49  CD       -53.7150   18.0020   -0.3600 C.2    44  GLU44       0.3649
     50  OE1      -52.9050   18.8660    0.0520 O.co2  44  GLU44      -0.2457
     51  OE2      -54.4950   18.2040   -1.3130 O.co2  44  GLU44      -0.2457
     52  N        -51.2510   15.9860   -1.9680 N.am   45  GLU45      -0.1979
     53  CA       -51.2310   15.3790   -3.3060 C.3    45  GLU45       0.1602
     54  C        -49.7780   15.1860   -3.7710 C.2    45  GLU45       0.2287
     55  O        -49.4780   14.2140   -4.4600 O.2    45  GLU45      -0.2864
     56  CB       -51.9730   16.2630   -4.3110 C.3    45  GLU45       0.0415
     57  CG       -53.4810   16.2200   -4.1460 C.3    45  GLU45       0.1163
     58  CD       -54.2250   17.0670   -5.1540 C.2    45  GLU45       0.3649
     59  OE1      -53.5810   17.9050   -5.8220 O.co2  45  GLU45      -0.2457
     60  OE2      -55.4490   16.8680   -5.3040 O.co2  45  GLU45      -0.2457
     61  N        -51.0680   16.0960    8.2100 N.3    62  TRP62      -0.1227
     62  CA       -52.3780   16.2640    7.5670 C.3    62  TRP62       0.1737
     63  C        -53.4050   15.6300    8.4860 C.2    62  TRP62       0.2595
     64  O        -53.0190   14.8690    9.3810 O.2    62  TRP62      -0.2718
     65  CB       -52.4150   15.5840    6.1610 C.3    62  TRP62       0.0564
     66  CG       -53.5310   16.0800    5.2830 C.ar   62  TRP62       0.0003
     67  CD1      -54.7400   15.4820    5.0840 C.ar   62  TRP62       0.0946
     68  CD2      -53.5680   17.3170    4.5530 C.ar   62  TRP62       0.0152
     69  NE1      -55.5150   16.2470    4.2410 N.ar   62  TRP62      -0.2442
     70  CE2      -54.8260   17.3860    3.9110 C.ar   62  TRP62       0.0810
     71  CE3      -52.6500   18.3700    4.3640 C.ar   62  TRP62       0.0012
     72  CZ2      -55.1880   18.4600    3.0890 C.ar   62  TRP62       0.0191
     73  CZ3      -53.0010   19.4280    3.5470 C.ar   62  TRP62       0.0001
     74  CH2      -54.2630   19.4780    2.9300 C.ar   62  TRP62       0.0015
     75  N        -54.7130   15.8930    8.2650 N.am   63  ALA63      -0.1980
     76  CA       -55.7410   15.1660    9.0090 C.3    63  ALA63       0.1597
     77  C        -55.6060   13.6640    8.6120 C.2    63  ALA63       0.2287
     78  O        -55.1040   13.3360    7.5250 O.2    63  ALA63      -0.2864
     79  CB       -57.1160   15.6780    8.6640 C.3    63  ALA63       0.0319
     80  N        -57.5560   11.4130    7.5420 N.3    65  ASP65      -0.1225
     81  CA       -58.3060   10.8500    6.4080 C.3    65  ASP65       0.1805
     82  C        -57.4340   10.4710    5.1950 C.2    65  ASP65       0.2597
     83  O        -57.7790    9.5260    4.4990 O.2    65  ASP65      -0.2718
     84  CB       -59.4730   11.7480    5.9740 C.3    65  ASP65       0.1424
     85  CG       -59.0590   13.1010    5.4440 C.2    65  ASP65       0.3668
     86  OD1      -58.4250   13.8720    6.2100 O.co2  65  ASP65      -0.2456
     87  OD2      -59.3720   13.3960    4.2720 O.co2  65  ASP65      -0.2456
     88  N        -56.3190   11.1890    4.9590 N.am   66  ARG66      -0.1979
     89  CA       -55.3980   10.9450    3.8440 C.3    66  ARG66       0.1597
     90  C        -54.4250    9.7810    4.0300 C.2    66  ARG66       0.2287
     91  O        -53.8390    9.3150    3.0500 O.2    66  ARG66      -0.2864
     92  CB       -54.5590   12.2170    3.5950 C.3    66  ARG66       0.0334
     93  CG       -55.1210   13.1560    2.5020 C.3    66  ARG66       0.0492
     94  CD       -54.9250   12.5220    1.1420 C.3    66  ARG66       0.2205
     95  NE       -55.3980   13.3580    0.0370 N.pl3  66  ARG66      -0.0865
     96  CZ       -55.2100   13.0580   -1.2430 C.cat  66  ARG66       0.5346
     97  NH1      -54.5840   11.9350   -1.5850 N.pl3  66  ARG66       0.1354
     98  NH2      -55.6620   13.8610   -2.1900 N.pl3  66  ARG66       0.1354
     99  N        -59.7460   18.1260   15.6860 N.3   111  GLU111     -0.1245
    100  CA       -60.3430   19.3120   15.1000 C.3   111  GLU111      0.1567
    101  C        -61.7690   19.0650   14.6590 C.2   111  GLU111      0.2260
    102  O        -62.0890   18.0280   14.0760 O.2   111  GLU111     -0.2867
    103  CB       -59.5630   19.7770   13.8450 C.3   111  GLU111      0.0388
    104  CG       -58.0460   19.6400   13.8570 C.3   111  GLU111      0.1160
    105  CD       -57.4280   19.6910   12.4670 C.2   111  GLU111      0.3649
    106  OE1      -58.1660   19.5410   11.4650 O.co2 111  GLU111     -0.2457
    107  OE2      -56.1940   19.8680   12.3800 O.co2 111  GLU111     -0.2457
    108  N        -66.3900   29.3980    3.9160 N.3   150  ASN150     -0.1240
    109  CA       -65.7880   28.7800    2.7370 C.3   150  ASN150      0.1653
    110  C        -66.7270   27.7810    2.0190 C.2   150  ASN150      0.2266
    111  O        -66.9790   26.6990    2.5270 O.2   150  ASN150     -0.2867
    112  CB       -64.4280   28.1300    3.1080 C.3   150  ASN150      0.1155
    113  CG       -63.6640   27.5880    1.9300 C.2   150  ASN150      0.2627
    114  OD1      -64.0180   27.8290    0.7880 O.2   150  ASN150     -0.2716
    115  ND2      -62.5760   26.8620    2.1880 N.am  150  ASN150     -0.0877
    116  N        -64.6130   24.3750   -0.3310 N.3   153  GLU153     -0.1231
    117  CA       -64.1250   23.1240    0.2380 C.3   153  GLU153      0.1684
    118  C        -65.2760   22.3470    0.8680 C.2   153  GLU153      0.2434
    119  O        -65.9490   22.8910    1.7450 O.2   153  GLU153     -0.2733
    120  CB       -62.9830   23.4030    1.2350 C.3   153  GLU153      0.0402
    121  CG       -61.6550   23.6850    0.5460 C.3   153  GLU153      0.1161
    122  CD       -60.9610   22.5320   -0.1700 C.2   153  GLU153      0.3649
    123  OE1      -61.3160   21.3490    0.0450 O.co2 153  GLU153     -0.2457
    124  OE2      -59.9940   22.8220   -0.9050 O.co2 153  GLU153     -0.2457
    125  N        -65.5160   21.0780    0.4170 N.am  154  PRO154     -0.2718
    126  CA       -66.6450   20.2850    0.9400 C.3   154  PRO154      0.1535
    127  C        -66.6060   20.0150    2.4380 C.2   154  PRO154      0.2599
    128  O        -67.6530   19.7380    3.0200 O.2   154  PRO154     -0.2715
    129  CB       -66.6030   18.9920    0.1060 C.3   154  PRO154      0.0310
    130  CG       -65.1860   18.8740   -0.3470 C.3   154  PRO154      0.0237
    131  CD       -64.7790   20.3190   -0.6110 C.3   154  PRO154      0.0939
    132  N        -65.4240   20.1160    3.0620 N.am  155  TYR155     -0.1960
    133  CA       -65.2570   19.9810    4.5090 C.3   155  TYR155      0.1771
    134  C        -66.2070   20.9520    5.2700 C.2   155  TYR155      0.2619
    135  O        -66.7830   20.5850    6.2950 O.2   155  TYR155     -0.2715
    136  CB       -63.8000   20.3320    4.8700 C.3   155  TYR155      0.0574
    137  CG       -63.4550   20.2340    6.3460 C.ar  155  TYR155     -0.0198
    138  CD1      -63.3060   18.9950    6.9680 C.ar  155  TYR155     -0.0009
    139  CD2      -63.1940   21.3800    7.1010 C.ar  155  TYR155     -0.0009
    140  CE1      -62.9320   18.9000    8.3120 C.ar  155  TYR155      0.0417
    141  CE2      -62.8070   21.2950    8.4400 C.ar  155  TYR155      0.0417
    142  CZ       -62.6950   20.0560    9.0480 C.ar  155  TYR155      0.1957
    143  OH       -62.3360   20.0020   10.3780 O.3   155  TYR155     -0.2866
    144  N        -66.3610   22.1810    4.7480 N.am  156  PHE156     -0.1974
    145  CA       -67.1890   23.2290    5.3570 C.3   156  PHE156      0.1639
    146  C        -68.6810   23.0850    5.1220 C.2   156  PHE156      0.2290
    147  O        -69.4590   23.5260    5.9650 O.2   156  PHE156     -0.2864
    148  CB       -66.7220   24.6210    4.9110 C.3   156  PHE156      0.0560
    149  CG       -65.3120   24.9550    5.3480 C.ar  156  PHE156     -0.0200
    150  CD1      -64.2130   24.5180    4.6060 C.ar  156  PHE156     -0.0042
    151  CD2      -65.0820   25.7240    6.4900 C.ar  156  PHE156     -0.0042
    152  CE1      -62.9080   24.8090    5.0200 C.ar  156  PHE156     -0.0003
    153  CE2      -63.7770   26.0110    6.9090 C.ar  156  PHE156     -0.0003
    154  CZ       -62.6990   25.5530    6.1710 C.ar  156  PHE156     -0.0000
    155  N        -62.1810   30.6430    1.5580 N.3   210  TYR210     -0.1241
    156  CA       -61.5790   30.7710    2.8750 C.3   210  TYR210      0.1605
    157  C        -61.1620   32.2210    3.1980 C.2   210  TYR210      0.2264
    158  O        -61.5870   32.7620    4.2240 O.2   210  TYR210     -0.2867
    159  CB       -60.3990   29.7720    3.0610 C.3   210  TYR210      0.0534
    160  CG       -59.9490   29.6870    4.5060 C.ar  210  TYR210     -0.0201
    161  CD1      -59.0120   30.5840    5.0230 C.ar  210  TYR210     -0.0009
    162  CD2      -60.4950   28.7450    5.3710 C.ar  210  TYR210     -0.0009
    163  CE1      -58.6470   30.5560    6.3690 C.ar  210  TYR210      0.0417
    164  CE2      -60.1210   28.6940    6.7150 C.ar  210  TYR210      0.0417
    165  CZ       -59.2030   29.6060    7.2110 C.ar  210  TYR210      0.1957
    166  OH       -58.8510   29.5640    8.5440 O.3   210  TYR210     -0.2866
    167  N        -57.7400   26.5260   14.2580 N.3   230  TRP230     -0.1241
    168  CA       -56.6180   27.2260   13.6170 C.3   230  TRP230      0.1605
    169  C        -56.9350   28.7120   13.3060 C.2   230  TRP230      0.2264
    170  O        -56.0200   29.5370   13.2640 O.2   230  TRP230     -0.2867
    171  CB       -56.2050   26.5060   12.3210 C.3   230  TRP230      0.0550
    172  CG       -57.3540   26.2720   11.3700 C.ar  230  TRP230      0.0003
    173  CD1      -57.8520   27.1490   10.4500 C.ar  230  TRP230      0.0946
    174  CD2      -58.1830   25.1020   11.3020 C.ar  230  TRP230      0.0152
    175  NE1      -58.9380   26.5970    9.8080 N.ar  230  TRP230     -0.2442
    176  CE2      -59.1650   25.3400   10.3140 C.ar  230  TRP230      0.0810
    177  CE3      -58.1850   23.8650   11.9780 C.ar  230  TRP230      0.0012
    178  CZ2      -60.1420   24.3900    9.9840 C.ar  230  TRP230      0.0191
    179  CZ3      -59.1580   22.9280   11.6590 C.ar  230  TRP230      0.0001
    180  CH2      -60.1150   23.1890   10.6650 C.ar  230  TRP230      0.0015
    181  N        -61.6240   15.6240   12.2120 N.3   260  GLY260     -0.1225
    182  CA       -60.2590   15.3920   11.7720 C.3   260  GLY260      0.1811
    183  C        -59.2870   15.2830   12.9240 C.2   260  GLY260      0.2280
    184  O        -59.4110   15.9870   13.9270 O.2   260  GLY260     -0.2866
    185  N        -63.8070   10.9930   10.5730 N.3   330  MET330     -0.1245
    186  CA       -63.5380   10.7020    9.1790 C.3   330  MET330      0.1570
    187  C        -62.9600    9.2860    9.0660 C.2   330  MET330      0.2261
    188  O        -62.0680    8.9310    9.8470 O.2   330  MET330     -0.2867
    189  CB       -62.4880   11.6640    8.5950 C.3   330  MET330      0.0387
    190  CG       -62.9830   13.0630    8.4060 C.3   330  MET330      0.0595
    191  SD       -61.9030   14.0600    7.3690 S.3   330  MET330     -0.1393
    192  CE       -60.6140   14.3930    8.4520 C.3   330  MET330      0.0692
    193  N        -60.3900   10.0970   -0.3180 N.3   337  SER337     -0.1217
    194  CA       -60.0070   11.1760   -1.2360 C.3   337  SER337      0.1889
    195  C        -60.9410   11.2130   -2.4550 C.2   337  SER337      0.2288
    196  O        -61.3670   12.2960   -2.8330 O.2   337  SER337     -0.2866
    197  CB       -58.5340   11.0800   -1.6250 C.3   337  SER337      0.2089
    198  OG       -58.2330    9.8040   -2.1600 O.3   337  SER337     -0.2183
    199  N        -64.1320   12.9430   -1.3350 N.3   340  TRP340     -0.1227
    200  CA       -63.9190   14.3900   -1.2580 C.3   340  TRP340      0.1737
    201  C        -63.8700   15.0830   -2.6250 C.2   340  TRP340      0.2595
    202  O        -64.4690   16.1470   -2.7760 O.2   340  TRP340     -0.2718
    203  CB       -62.6610   14.7300   -0.4530 C.3   340  TRP340      0.0564
    204  CG       -62.7440   14.5610    1.0370 C.ar  340  TRP340      0.0003
    205  CD1      -61.8640   13.8710    1.8220 C.ar  340  TRP340      0.0946
    206  CD2      -63.6580   15.2210    1.9400 C.ar  340  TRP340      0.0152
    207  NE1      -62.1950   14.0230    3.1470 N.ar  340  TRP340     -0.2442
    208  CE2      -63.2970   14.8380    3.2500 C.ar  340  TRP340      0.0810
    209  CE3      -64.7800   16.0610    1.7670 C.ar  340  TRP340      0.0012
    210  CZ2      -63.9990   15.2800    4.3840 C.ar  340  TRP340      0.0191
    211  CZ3      -65.4770   16.4960    2.8950 C.ar  340  TRP340      0.0001
    212  CH2      -65.0760   16.1210    4.1810 C.ar  340  TRP340      0.0015
    213  N        -63.1320   14.5110   -3.6040 N.am  341  TYR341     -0.1976
    214  CA       -63.0360   15.0820   -4.9570 C.3   341  TYR341      0.1639
    215  C        -64.4230   15.1750   -5.6160 C.2   341  TYR341      0.2290
    216  O        -64.7470   16.2070   -6.2190 O.2   341  TYR341     -0.2864
    217  CB       -62.1150   14.2500   -5.8580 C.3   341  TYR341      0.0560
    218  CG       -60.6350   14.3440   -5.5510 C.ar  341  TYR341     -0.0198
    219  CD1      -59.9840   15.5760   -5.5140 C.ar  341  TYR341     -0.0009
    220  CD2      -59.8620   13.1960   -5.4050 C.ar  341  TYR341     -0.0009
    221  CE1      -58.6070   15.6630   -5.3040 C.ar  341  TYR341      0.0417
    222  CE2      -58.4880   13.2700   -5.1680 C.ar  341  TYR341      0.0417
    223  CZ       -57.8650   14.5060   -5.1140 C.ar  341  TYR341      0.1957
    224  OH       -56.5100   14.5560   -4.8990 O.3   341  TYR341     -0.2866
    225  N        -66.6430   17.8140   -3.7150 N.3   344  ARG344     -0.1245
    226  CA       -66.1320   19.1650   -3.9900 C.3   344  ARG344      0.1563
    227  C        -66.7540   19.7240   -5.2730 C.2   344  ARG344      0.2260
    228  O        -67.2080   20.8720   -5.2830 O.2   344  ARG344     -0.2867
    229  CB       -64.5930   19.1850   -4.0950 C.3   344  ARG344      0.0307
    230  CG       -63.9850   20.6030   -4.1840 C.3   344  ARG344      0.0489
    231  CD       -62.7260   20.6650   -5.0460 C.3   344  ARG344      0.2205
    232  NE       -63.0340   20.3950   -6.4520 N.pl3 344  ARG344     -0.0865
    233  CZ       -63.1030   21.3090   -7.4130 C.cat 344  ARG344      0.5346
    234  NH1      -62.8430   22.5810   -7.1490 N.pl3 344  ARG344      0.1354
    235  NH2      -63.4010   20.9520   -8.6530 N.pl3 344  ARG344      0.1354
@<TRIPOS>BOND
     1   235   233    1
     2   233   234    1
     3   233   232    2
     4    42    41    1
     5    41    40    1
     6   232   231    1
     7   216   215    2
     8    40    39    1
     9   217   218    1
    10   217   214    1
    11    59    58   ar
    12   215   214    1
    13   218   219   ar
    14   218   220   ar
    15   219   221   ar
    16   220   222   ar
    17   221   223   ar
    18    60    58   ar
    19   228   227    2
    20   227   226    1
    21   222   223   ar
    22    58    57    1
    23   223   224    1
    24   231   230    1
    25   214   213    1
    26    55    54    2
    27    39    38    1
    28    56    57    1
    29    56    53    1
    30   230   229    1
    31   229   226    1
    32   226   225    1
    33    33    31   ar
    34    38    35    1
    35    54    53    1
    36   213   201   am
    37    53    52    1
    38   196   195    2
    39    31    30    1
    40    31    32   ar
    41   202   201    2
    42   201   200    1
    43    30    27    1
    44    29    28    2
    45    37    36    2
    46   195   194    1
    47    35    34    1
    48    35    36    1
    49    98    96    1
    50   198   197    1
    51    28    34   am
    52    28    27    1
    53    52    45   am
    54   197   194    1
    55    97    96    1
    56    27    26    1
    57   199   200    1
    58    51    49   ar
    59   200   203    1
    60    96    95    2
    61   194   193    1
    62   124   122   ar
    63    45    46    2
    64    45    44    1
    65   131   130    1
    66   131   125    1
    67   203   204    1
    68    49    50   ar
    69    49    48    1
    70   130   129    1
    71   116   117    1
    72   122   123   ar
    73   122   121    1
    74    95    94    1
    75   129   126    1
    76   117   118    1
    77   117   120    1
    78    48    47    1
    79    43    44    1
    80   125   118   am
    81   125   126    1
    82    44    47    1
    83   121   120    1
    84   114   113    2
    85   118   119    2
    86   126   127    1
    87   204   205   ar
    88   204   206   ar
    89    94    93    1
    90   155   156    1
    91   209   206   ar
    92   209   211   ar
    93   205   207   ar
    94   113   115   am
    95   113   112    1
    96   206   208   ar
    97   110   111    2
    98   110   109    1
    99   127   128    2
   100   127   132   am
   101    93    92    1
   102   109   112    1
   103   109   108    1
   104   156   159    1
   105   156   157    1
   106   211   212   ar
   107    74    72   ar
   108    74    73   ar
   109    91    90    2
   110   159   160    1
   111   132   133    1
   112    72    70   ar
   113   207   208   ar
   114   157   158    2
   115   208   210   ar
   116    73    71   ar
   117    92    89    1
   118     7     6    2
   119    89    90    1
   120    89    88    1
   121    70    69   ar
   122    70    68   ar
   123   212   210   ar
   124    69    67   ar
   125    87    85   ar
   126    71    68   ar
   127    83    82    2
   128   160   161   ar
   129   160   162   ar
   130   133   136    1
   131   133   134    1
   132    68    66   ar
   133   150   152   ar
   134   150   149   ar
   135   144   134   am
   136   144   145    1
   137     6     8   am
   138     6     5    1
   139   136   137    1
   140   148   149    1
   141   148   145    1
   142    88    82   am
   143   152   154   ar
   144   161   163   ar
   145    67    66   ar
   146   146   145    1
   147   146   147    2
   148    82    81    1
   149   134   135    2
   150    66    65    1
   151   149   151   ar
   152   162   164   ar
   153    85    84    1
   154    85    86   ar
   155     2     5    1
   156     2     3    1
   157     2     1    1
   158    84    81    1
   159    65    62    1
   160   154   153   ar
   161     3     4    2
   162   137   138   ar
   163   137   139   ar
   164   163   165   ar
   165    81    80    1
   166   151   153   ar
   167   164   165   ar
   168     9    10    1
   169   138   140   ar
   170   139   141   ar
   171    16    14   ar
   172   165   166    1
   173   191   190    1
   174   191   192    1
   175    14    13    1
   176    14    15   ar
   177    78    77    2
   178    13    10    1
   179    62    61    1
   180    62    63    1
   181    10    11    1
   182    75    63   am
   183    75    76    1
   184   140   142   ar
   185   190   189    1
   186   141   142   ar
   187    63    64    2
   188   189   186    1
   189    77    76    1
   190    79    76    1
   191   142   143    1
   192   187   186    1
   193   187   188    2
   194   186   185    1
   195    25    24    1
   196    11    17   am
   197    11    12    2
   198    17    18    1
   199   175   176   ar
   200   175   173   ar
   201   178   176   ar
   202   178   180   ar
   203    22    21    1
   204    22    23    1
   205   176   174   ar
   206   173   172   ar
   207   180   179   ar
   208    20    19    2
   209    24    23    1
   210    21    18    1
   211    18    19    1
   212   174   172   ar
   213   174   177   ar
   214   172   171    1
   215   106   105   ar
   216   179   177   ar
   217   182   181    1
   218   182   183    1
   219   171   168    1
   220   107   105   ar
   221   105   104    1
   222   183   184    2
   223   170   169    2
   224   169   168    1
   225   168   167    1
   226   103   104    1
   227   103   100    1
   228   102   101    2
   229   101   100    1
   230   100    99    1
