@<TRIPOS>MOLECULE
tmp/5e25A00.pdb
 167 157 0 0 0
SMALL
GASTEIGER

@<TRIPOS>ATOM
      1  N         69.6390  -23.1620  -58.6780 N.3    33  PHE33      -0.1241
      2  CA        70.8890  -23.8750  -58.5000 C.3    33  PHE33       0.1605
      3  C         70.9930  -24.3890  -57.0860 C.2    33  PHE33       0.2264
      4  O         70.1110  -24.0860  -56.2650 O.2    33  PHE33      -0.2867
      5  CB        72.1590  -23.0640  -58.8370 C.3    33  PHE33       0.0534
      6  CG        72.5290  -22.0300  -57.8050 C.ar   33  PHE33      -0.0203
      7  CD1       71.9150  -20.7480  -57.8330 C.ar   33  PHE33      -0.0042
      8  CD2       73.4860  -22.3020  -56.8130 C.ar   33  PHE33      -0.0042
      9  CE1       72.2890  -19.7630  -56.8920 C.ar   33  PHE33      -0.0003
     10  CE2       73.8650  -21.3230  -55.8730 C.ar   33  PHE33      -0.0003
     11  CZ        73.2600  -20.0500  -55.9170 C.ar   33  PHE33      -0.0000
     12  N         74.1300  -26.0650  -54.1050 N.3    35  GLY35      -0.1225
     13  CA        75.5190  -26.1690  -53.6880 C.3    35  GLY35       0.1811
     14  C         75.5770  -27.3350  -52.7230 C.2    35  GLY35       0.2280
     15  O         74.8330  -27.3440  -51.7330 O.2    35  GLY35      -0.2866
     16  N         69.2790  -31.2980  -50.5060 N.3    49  HIS49      -0.1241
     17  CA        69.6300  -30.3220  -51.4890 C.3    49  HIS49       0.1621
     18  C         68.7710  -30.4660  -52.7450 C.2    49  HIS49       0.2264
     19  O         68.2570  -29.4710  -53.3280 O.2    49  HIS49      -0.2867
     20  CB        71.1180  -30.3900  -51.7390 C.3    49  HIS49       0.0745
     21  CG        71.9220  -29.7070  -50.6690 C.ar   49  HIS49       0.0817
     22  ND1       72.1220  -28.3380  -50.6440 N.ar   49  HIS49      -0.2268
     23  CD2       72.5780  -30.1990  -49.5900 C.ar   49  HIS49       0.1154
     24  CE1       72.8780  -28.0220  -49.6030 C.ar   49  HIS49       0.1986
     25  NE2       73.1860  -29.1330  -48.9580 N.ar   49  HIS49      -0.2212
     26  N         65.3050  -29.1840  -52.1130 N.3    52  ARG52      -0.1245
     27  CA        65.2540  -27.7000  -52.1730 C.3    52  ARG52       0.1563
     28  C         65.3090  -27.2540  -53.6600 C.2    52  ARG52       0.2260
     29  O         64.4910  -26.4170  -54.1310 O.2    52  ARG52      -0.2867
     30  CB        66.3490  -27.0600  -51.2850 C.3    52  ARG52       0.0307
     31  CG        66.0810  -25.5670  -51.0960 C.3    52  ARG52       0.0489
     32  CD        67.1210  -24.8590  -50.2740 C.3    52  ARG52       0.2205
     33  NE        68.4840  -24.9860  -50.7750 N.pl3  52  ARG52      -0.0865
     34  CZ        69.5420  -24.8510  -49.9760 C.cat  52  ARG52       0.5346
     35  NH1       69.3360  -24.5620  -48.6760 N.pl3  52  ARG52       0.1354
     36  NH2       70.7810  -24.9370  -50.4580 N.pl3  52  ARG52       0.1354
     37  N         68.1410   -6.8450  -48.3700 N.3   140  ARG140     -0.1245
     38  CA        67.9300   -8.1540  -49.0440 C.3   140  ARG140      0.1563
     39  C         66.7300   -8.0150  -49.9430 C.2   140  ARG140      0.2260
     40  O         65.7660   -7.3070  -49.5670 O.2   140  ARG140     -0.2867
     41  CB        67.6210   -9.2530  -48.0170 C.3   140  ARG140      0.0307
     42  CG        67.6380  -10.6870  -48.6060 C.3   140  ARG140      0.0489
     43  CD        69.1110  -11.1440  -48.7650 C.3   140  ARG140      0.2205
     44  NE        69.2290  -12.5590  -49.1450 N.pl3 140  ARG140     -0.0865
     45  CZ        69.1070  -13.0670  -50.3750 C.cat 140  ARG140      0.5346
     46  NH1       68.8360  -12.3060  -51.4830 N.pl3 140  ARG140      0.1354
     47  NH2       69.2030  -14.3830  -50.4790 N.pl3 140  ARG140      0.1354
     48  N         66.8530  -20.2290  -54.3910 N.3   151  LYS151     -0.1245
     49  CA        68.2870  -20.2690  -54.7550 C.3   151  LYS151      0.1561
     50  C         68.3080  -20.2210  -56.2630 C.2   151  LYS151      0.2260
     51  O         68.2960  -21.2740  -56.9330 O.2   151  LYS151     -0.2867
     52  CB        68.9420  -21.5720  -54.3000 C.3   151  LYS151      0.0271
     53  CG        70.3660  -21.3670  -53.8600 C.3   151  LYS151      0.0035
     54  CD        70.7120  -22.5660  -53.0000 C.3   151  LYS151      0.0206
     55  CE        72.1970  -22.4770  -52.8070 C.3   151  LYS151      0.1093
     56  NZ        72.5630  -21.4100  -51.9080 N.3   151  LYS151     -0.1314
     57  N         71.2880  -13.4820  -58.7270 N.3   155  TYR155     -0.1241
     58  CA        72.0710  -13.2270  -57.5340 C.3   155  TYR155      0.1605
     59  C         72.7630  -11.8810  -57.5040 C.2   155  TYR155      0.2264
     60  O         73.7320  -11.7000  -56.7760 O.2   155  TYR155     -0.2867
     61  CB        73.0630  -14.4160  -57.2350 C.3   155  TYR155      0.0534
     62  CG        72.5040  -15.3680  -56.1660 C.ar  155  TYR155     -0.0201
     63  CD1       71.1690  -15.7830  -56.2370 C.ar  155  TYR155     -0.0009
     64  CD2       73.2920  -15.7930  -55.0710 C.ar  155  TYR155     -0.0009
     65  CE1       70.6160  -16.6020  -55.2510 C.ar  155  TYR155      0.0417
     66  CE2       72.7670  -16.6230  -54.0920 C.ar  155  TYR155      0.0417
     67  CZ        71.4160  -17.0110  -54.2070 C.ar  155  TYR155      0.1957
     68  OH        70.8280  -17.8020  -53.2940 O.3   155  TYR155     -0.2866
     69  N         72.8730  -10.2520  -54.0910 N.3   158  ASN158     -0.1240
     70  CA        73.9110  -10.8250  -53.2280 C.3   158  ASN158      0.1653
     71  C         75.2500  -10.2670  -53.6660 C.2   158  ASN158      0.2266
     72  O         76.0720   -9.9190  -52.8250 O.2   158  ASN158     -0.2867
     73  CB        73.8680  -12.3300  -53.3570 C.3   158  ASN158      0.1155
     74  CG        72.4770  -12.8940  -53.1220 C.2   158  ASN158      0.2627
     75  OD1       72.2380  -13.5730  -52.1040 O.2   158  ASN158     -0.2716
     76  ND2       71.5530  -12.6190  -54.0200 N.am  158  ASN158     -0.0877
     77  N         70.8430  -12.1330  -43.3300 N.3   184  GLU184     -0.1245
     78  CA        71.8640  -13.1730  -43.5640 C.3   184  GLU184      0.1567
     79  C         73.0730  -12.5160  -44.1710 C.2   184  GLU184      0.2260
     80  O         73.0190  -11.3490  -44.5920 O.2   184  GLU184     -0.2867
     81  CB        71.3370  -14.2810  -44.5190 C.3   184  GLU184      0.0388
     82  CG        70.8260  -13.8120  -45.8710 C.3   184  GLU184      0.1160
     83  CD        70.5320  -14.9700  -46.8240 C.2   184  GLU184      0.3649
     84  OE1       71.0750  -16.0630  -46.5890 O.co2 184  GLU184     -0.2457
     85  OE2       69.7860  -14.8140  -47.8220 O.co2 184  GLU184     -0.2457
     86  N         75.8680  -12.5570  -47.5240 N.3   186  SER186     -0.1202
     87  CA        75.5790  -12.5400  -48.9920 C.3   186  SER186      0.2020
     88  C         75.3320  -13.9250  -49.5450 C.2   186  SER186      0.2619
     89  O         74.6420  -14.0790  -50.5640 O.2   186  SER186     -0.2717
     90  CB        76.7320  -11.9350  -49.7840 C.3   186  SER186      0.2103
     91  OG        77.9500  -12.6290  -49.5020 O.3   186  SER186     -0.2182
     92  N         75.9440  -14.9200  -48.9010 N.am  187  GLY187     -0.1942
     93  CA        75.8610  -16.3050  -49.3180 C.3   187  GLY187      0.2014
     94  C         75.7600  -17.3300  -48.2020 C.2   187  GLY187      0.2639
     95  O         75.9340  -18.5540  -48.4500 O.2   187  GLY187     -0.2714
     96  N         75.4930  -16.8560  -46.9890 N.am  188  ASP188     -0.1957
     97  CA        75.3590  -17.7890  -45.8560 C.3   188  ASP188      0.1840
     98  C         74.4260  -17.2810  -44.7600 C.2   188  ASP188      0.2622
     99  O         74.2050  -16.0810  -44.6440 O.2   188  ASP188     -0.2715
    100  CB        76.7480  -18.1630  -45.3240 C.3   188  ASP188      0.1450
    101  CG        77.7530  -17.0850  -45.5090 C.2   188  ASP188      0.3671
    102  OD1       77.4240  -15.8820  -45.2960 O.co2 188  ASP188     -0.2456
    103  OD2       78.8920  -17.4290  -45.8620 O.co2 188  ASP188     -0.2456
    104  N         73.8570  -18.1830  -43.9770 N.am  189  ASN189     -0.1972
    105  CA        72.9330  -17.8080  -42.8710 C.3   189  ASN189      0.1688
    106  C         73.6820  -17.2560  -41.7090 C.2   189  ASN189      0.2292
    107  O         74.8920  -17.4010  -41.6710 O.2   189  ASN189     -0.2864
    108  CB        72.0630  -18.9720  -42.4430 C.3   189  ASN189      0.1181
    109  CG        71.0680  -19.3380  -43.5110 C.2   189  ASN189      0.2629
    110  OD1       71.2070  -20.3900  -44.1650 O.2   189  ASN189     -0.2716
    111  ND2       70.0500  -18.4610  -43.7270 N.am  189  ASN189     -0.0877
    112  N         67.1060  -17.4870  -46.4160 N.3   207  LEU207     -0.1245
    113  CA        67.1370  -18.6790  -47.2360 C.3   207  LEU207      0.1561
    114  C         67.2000  -19.8340  -46.2440 C.2   207  LEU207      0.2260
    115  O         68.0090  -19.7790  -45.2810 O.2   207  LEU207     -0.2867
    116  CB        68.3620  -18.6580  -48.1930 C.3   207  LEU207      0.0270
    117  CG        68.2890  -19.7530  -49.3310 C.3   207  LEU207      0.0019
    118  CD1       68.8150  -19.2640  -50.6540 C.3   207  LEU207      0.0001
    119  CD2       68.9670  -21.0990  -48.9600 C.3   207  LEU207      0.0001
    120  N         68.6480  -22.5540  -45.1390 N.3   209  GLY209     -0.1210
    121  CA        69.9720  -23.1950  -45.2840 C.3   209  GLY209      0.1956
    122  C         69.9620  -24.6520  -44.8290 C.2   209  GLY209      0.2612
    123  O         69.4260  -24.9820  -43.7680 O.2   209  GLY209     -0.2717
    124  N         70.5610  -25.5330  -45.6190 N.am  210  ILE210     -0.1965
    125  CA        70.7360  -26.9340  -45.1650 C.3   210  ILE210      0.1727
    126  C         71.7960  -26.9720  -44.0630 C.2   210  ILE210      0.2617
    127  O         71.6260  -27.6530  -43.0450 O.2   210  ILE210     -0.2715
    128  CB        70.8930  -27.8930  -46.3720 C.3   210  ILE210      0.0290
    129  CG1       69.4680  -28.0970  -46.9420 C.3   210  ILE210      0.0022
    130  CG2       71.5490  -29.2190  -45.9520 C.3   210  ILE210      0.0023
    131  CD1       69.3730  -28.2880  -48.4470 C.3   210  ILE210      0.0001
    132  N         72.8250  -26.1240  -44.1690 N.am  211  THR211     -0.1937
    133  CA        73.8120  -26.1040  -43.0780 C.3   211  THR211      0.2028
    134  C         73.1910  -25.5660  -41.7640 C.2   211  THR211      0.2642
    135  O         73.4710  -26.0720  -40.6650 O.2   211  THR211     -0.2714
    136  CB        75.0240  -25.2510  -43.4170 C.3   211  THR211      0.1808
    137  OG1       75.4150  -25.5390  -44.7470 O.3   211  THR211     -0.2208
    138  CG2       76.1860  -25.5240  -42.4270 C.3   211  THR211      0.0379
    139  N         72.3940  -24.4960  -41.9030 N.am  212  ARG212     -0.1977
    140  CA        71.6890  -23.8780  -40.7960 C.3   212  ARG212      0.1597
    141  C         70.8110  -24.9690  -40.1690 C.2   212  ARG212      0.2287
    142  O         70.7750  -25.0690  -38.9940 O.2   212  ARG212     -0.2864
    143  CB        70.8670  -22.6770  -41.3400 C.3   212  ARG212      0.0334
    144  CG        69.7490  -22.2160  -40.4540 C.3   212  ARG212      0.0492
    145  CD        68.9320  -21.0870  -41.1440 C.3   212  ARG212      0.2205
    146  NE        67.9970  -20.4630  -40.2180 N.pl3 212  ARG212     -0.0865
    147  CZ        66.8970  -21.0150  -39.6540 C.cat 212  ARG212      0.5346
    148  NH1       66.4980  -22.2980  -39.8870 N.pl3 212  ARG212      0.1354
    149  NH2       66.1650  -20.2350  -38.8430 N.pl3 212  ARG212      0.1354
    150  N         76.8160  -19.6630  -41.7030 N.3   245  THR245     -0.1203
    151  CA        76.7470  -21.0170  -42.2020 C.3   245  THR245      0.1994
    152  C         76.3310  -21.1340  -43.6270 C.2   245  THR245      0.2618
    153  O         75.3850  -20.4690  -44.0520 O.2   245  THR245     -0.2717
    154  CB        75.7470  -21.9120  -41.3820 C.3   245  THR245      0.1784
    155  OG1       74.3770  -21.5870  -41.7070 O.3   245  THR245     -0.2211
    156  CG2       75.9880  -21.7610  -39.9190 C.3   245  THR245      0.0376
    157  N         76.9500  -22.0810  -44.3360 N.am  246  GLY246     -0.1942
    158  CA        76.5280  -22.4940  -45.6880 C.3   246  GLY246      0.2014
    159  C         77.3440  -23.6910  -46.1980 C.2   246  GLY246      0.2639
    160  O         78.3480  -24.0600  -45.5800 O.2   246  GLY246     -0.2714
    161  N         76.9280  -24.2930  -47.3190 N.am  247  THR247     -0.1950
    162  CA        77.6280  -25.4770  -47.8470 C.3   247  THR247      0.1897
    163  C         79.0900  -25.1780  -48.1210 C.2   247  THR247      0.2313
    164  O         79.9540  -25.8810  -47.6220 O.2   247  THR247     -0.2863
    165  CB        76.9420  -26.1160  -49.0460 C.3   247  THR247      0.1794
    166  OG1       75.6210  -26.4960  -48.6380 O.3   247  THR247     -0.2208
    167  CG2       77.7520  -27.3980  -49.5510 C.3   247  THR247      0.0378
@<TRIPOS>BOND
     1     5     2    1
     2     5     6    1
     3    57    58    1
     4     1     2    1
     5     2     3    1
     6     7     6   ar
     7     7     9   ar
     8     6     8   ar
     9    58    59    1
    10    58    61    1
    11    59    60    2
    12    61    62    1
    13     3     4    2
    14    51    50    2
    15     9    11   ar
    16     8    10   ar
    17    50    49    1
    18    63    62   ar
    19    63    65   ar
    20    62    64   ar
    21    11    10   ar
    22    65    67   ar
    23    64    66   ar
    24    49    48    1
    25    49    52    1
    26    52    53    1
    27    67    66   ar
    28    67    68    1
    29    29    28    2
    30    12    13    1
    31    69    70    1
    32    76    74   am
    33    53    54    1
    34    13    14    1
    35    71    70    1
    36    71    72    2
    37    28    27    1
    38    73    70    1
    39    73    74    1
    40    19    18    2
    41    74    75    2
    42    54    55    1
    43    55    56    1
    44    18    17    1
    45    14    15    2
    46    27    26    1
    47    27    30    1
    48    20    17    1
    49    20    21    1
    50    17    16    1
    51    46    45    1
    52    30    31    1
    53    31    32    1
    54    33    32    1
    55    33    34    2
    56    21    22   ar
    57    21    23   ar
    58   118   117    1
    59    22    24   ar
    60    89    88    2
    61    47    45    1
    62    36    34    1
    63    45    44    2
    64    34    35    1
    65    39    40    2
    66    39    38    1
    67    90    91    1
    68    90    87    1
    69    24    25   ar
    70    23    25   ar
    71   167   165    1
    72    88    87    1
    73    88    92   am
    74   117   119    1
    75   117   116    1
    76    93    92    1
    77    93    94    1
    78    44    43    1
    79   165   166    1
    80   165   162    1
    81    38    37    1
    82    38    41    1
    83    87    86    1
    84    43    42    1
    85    42    41    1
    86    95    94    2
    87   131   129    1
    88    94    96   am
    89   116   113    1
    90   163   162    1
    91   163   164    2
    92   162   161    1
    93    85    83   ar
    94   161   159   am
    95   113   112    1
    96   113   114    1
    97    96    97    1
    98   129   128    1
    99    83    84   ar
   100    83    82    1
   101   128   130    1
   102   128   125    1
   103   114   115    2
   104   159   158    1
   105   159   160    2
   106    82    81    1
   107   103   101   ar
   108    97   100    1
   109    97    98    1
   110   158   157    1
   111   124   125    1
   112   124   122   am
   113   101   100    1
   114   101   102   ar
   115   121   120    1
   116   121   122    1
   117   125   126    1
   118   122   123    2
   119    98    99    2
   120    98   104   am
   121   137   136    1
   122    80    79    2
   123    81    78    1
   124   157   152   am
   125    79    78    1
   126   132   126   am
   127   132   133    1
   128   110   109    2
   129   126   127    2
   130   153   152    2
   131   104   105    1
   132   111   109   am
   133   152   151    1
   134    78    77    1
   135   109   108    1
   136   136   133    1
   137   136   138    1
   138   133   134    1
   139   105   108    1
   140   105   106    1
   141   151   150    1
   142   151   154    1
   143   139   134   am
   144   139   140    1
   145   134   135    2
   146   106   107    2
   147   155   154    1
   148   154   156    1
   149   143   140    1
   150   143   144    1
   151   145   144    1
   152   145   146    1
   153   140   141    1
   154   146   147    2
   155   141   142    2
   156   148   147    1
   157   147   149    1
