@<TRIPOS>MOLECULE
tmp/5e25A01.pdb
 106 101 0 0 0
SMALL
GASTEIGER

@<TRIPOS>ATOM
      1  N         69.6390  -23.1620  -58.6780 N.3    33  PHE33      -0.1241
      2  CA        70.8890  -23.8750  -58.5000 C.3    33  PHE33       0.1605
      3  C         70.9930  -24.3890  -57.0860 C.2    33  PHE33       0.2264
      4  O         70.1110  -24.0860  -56.2650 O.2    33  PHE33      -0.2867
      5  CB        72.1590  -23.0640  -58.8370 C.3    33  PHE33       0.0534
      6  CG        72.5290  -22.0300  -57.8050 C.ar   33  PHE33      -0.0203
      7  CD1       71.9150  -20.7480  -57.8330 C.ar   33  PHE33      -0.0042
      8  CD2       73.4860  -22.3020  -56.8130 C.ar   33  PHE33      -0.0042
      9  CE1       72.2890  -19.7630  -56.8920 C.ar   33  PHE33      -0.0003
     10  CE2       73.8650  -21.3230  -55.8730 C.ar   33  PHE33      -0.0003
     11  CZ        73.2600  -20.0500  -55.9170 C.ar   33  PHE33      -0.0000
     12  N         74.1300  -26.0650  -54.1050 N.3    35  GLY35      -0.1225
     13  CA        75.5190  -26.1690  -53.6880 C.3    35  GLY35       0.1811
     14  C         75.5770  -27.3350  -52.7230 C.2    35  GLY35       0.2280
     15  O         74.8330  -27.3440  -51.7330 O.2    35  GLY35      -0.2866
     16  N         82.9840  -29.9500  -54.3810 N.3    88  TYR88      -0.1241
     17  CA        81.8540  -29.0590  -54.4700 C.3    88  TYR88       0.1605
     18  C         81.0250  -29.3770  -55.7090 C.2    88  TYR88       0.2264
     19  O         81.5420  -29.4380  -56.8430 O.2    88  TYR88      -0.2867
     20  CB        82.3250  -27.5750  -54.5270 C.3    88  TYR88       0.0534
     21  CG        81.1390  -26.6070  -54.4830 C.ar   88  TYR88      -0.0201
     22  CD1       80.4910  -26.3310  -53.2580 C.ar   88  TYR88      -0.0009
     23  CD2       80.6330  -26.0150  -55.6590 C.ar   88  TYR88      -0.0009
     24  CE1       79.4150  -25.4580  -53.1940 C.ar   88  TYR88       0.0417
     25  CE2       79.5290  -25.1370  -55.6200 C.ar   88  TYR88       0.0417
     26  CZ        78.9230  -24.8690  -54.3730 C.ar   88  TYR88       0.1957
     27  OH        77.8360  -24.0120  -54.2710 O.3    88  TYR88      -0.2866
     28  N         77.7820  -28.0260  -58.0230 N.3    90  ARG90      -0.1245
     29  CA        76.8110  -27.0140  -58.4950 C.3    90  ARG90       0.1563
     30  C         75.8370  -27.5070  -59.5780 C.2    90  ARG90       0.2260
     31  O         76.0840  -27.2910  -60.7820 O.2    90  ARG90      -0.2867
     32  CB        77.6120  -25.7750  -59.0120 C.3    90  ARG90       0.0307
     33  CG        76.7820  -24.6020  -59.6410 C.3    90  ARG90       0.0489
     34  CD        75.7230  -24.0020  -58.7070 C.3    90  ARG90       0.2205
     35  NE        76.4220  -23.5050  -57.5280 N.pl3  90  ARG90      -0.0865
     36  CZ        77.0370  -22.3030  -57.4330 C.cat  90  ARG90       0.5346
     37  NH1       76.9140  -21.3860  -58.3830 N.pl3  90  ARG90       0.1354
     38  NH2       77.7580  -21.9890  -56.3580 N.pl3  90  ARG90       0.1354
     39  N         86.8620  -27.4740  -54.4810 N.3   119  TRP119     -0.1241
     40  CA        86.7240  -26.0070  -54.1950 C.3   119  TRP119      0.1605
     41  C         86.8280  -25.8370  -52.6770 C.2   119  TRP119      0.2264
     42  O         85.9310  -26.3030  -51.9240 O.2   119  TRP119     -0.2867
     43  CB        85.4010  -25.4010  -54.7780 C.3   119  TRP119      0.0550
     44  CG        85.2020  -23.8630  -54.6270 C.ar  119  TRP119      0.0003
     45  CD1       86.1660  -22.8810  -54.7460 C.ar  119  TRP119      0.0946
     46  CD2       83.9550  -23.1580  -54.3810 C.ar  119  TRP119      0.0152
     47  NE1       85.6020  -21.6320  -54.5630 N.ar  119  TRP119     -0.2442
     48  CE2       84.2520  -21.7700  -54.3450 C.ar  119  TRP119      0.0810
     49  CE3       82.6220  -23.5630  -54.1850 C.ar  119  TRP119      0.0012
     50  CZ2       83.2610  -20.7900  -54.0980 C.ar  119  TRP119      0.0191
     51  CZ3       81.6330  -22.5760  -53.9620 C.ar  119  TRP119      0.0001
     52  CH2       81.9640  -21.2220  -53.9000 C.ar  119  TRP119      0.0015
     53  N         84.8430  -21.7240  -48.4170 N.3   122  LEU122     -0.1245
     54  CA        84.7350  -20.3470  -48.9550 C.3   122  LEU122      0.1561
     55  C         85.8030  -19.3770  -48.3740 C.2   122  LEU122      0.2260
     56  O         86.4910  -18.6780  -49.1380 O.2   122  LEU122     -0.2867
     57  CB        83.3210  -19.7930  -48.8130 C.3   122  LEU122      0.0270
     58  CG        82.9330  -18.4790  -49.5240 C.3   122  LEU122      0.0019
     59  CD1       83.0940  -18.4870  -51.0650 C.3   122  LEU122      0.0001
     60  CD2       81.5100  -18.1060  -49.0760 C.3   122  LEU122      0.0001
     61  N         66.8530  -20.2290  -54.3910 N.3   151  LYS151     -0.1245
     62  CA        68.2870  -20.2690  -54.7550 C.3   151  LYS151      0.1561
     63  C         68.3080  -20.2210  -56.2630 C.2   151  LYS151      0.2260
     64  O         68.2960  -21.2740  -56.9330 O.2   151  LYS151     -0.2867
     65  CB        68.9420  -21.5720  -54.3000 C.3   151  LYS151      0.0271
     66  CG        70.3660  -21.3670  -53.8600 C.3   151  LYS151      0.0035
     67  CD        70.7120  -22.5660  -53.0000 C.3   151  LYS151      0.0206
     68  CE        72.1970  -22.4770  -52.8070 C.3   151  LYS151      0.1093
     69  NZ        72.5630  -21.4100  -51.9080 N.3   151  LYS151     -0.1314
     70  N         71.2880  -13.4820  -58.7270 N.3   155  TYR155     -0.1241
     71  CA        72.0710  -13.2270  -57.5340 C.3   155  TYR155      0.1605
     72  C         72.7630  -11.8810  -57.5040 C.2   155  TYR155      0.2264
     73  O         73.7320  -11.7000  -56.7760 O.2   155  TYR155     -0.2867
     74  CB        73.0630  -14.4160  -57.2350 C.3   155  TYR155      0.0534
     75  CG        72.5040  -15.3680  -56.1660 C.ar  155  TYR155     -0.0201
     76  CD1       71.1690  -15.7830  -56.2370 C.ar  155  TYR155     -0.0009
     77  CD2       73.2920  -15.7930  -55.0710 C.ar  155  TYR155     -0.0009
     78  CE1       70.6160  -16.6020  -55.2510 C.ar  155  TYR155      0.0417
     79  CE2       72.7670  -16.6230  -54.0920 C.ar  155  TYR155      0.0417
     80  CZ        71.4160  -17.0110  -54.2070 C.ar  155  TYR155      0.1957
     81  OH        70.8280  -17.8020  -53.2940 O.3   155  TYR155     -0.2866
     82  N         75.9440  -14.9200  -48.9010 N.3   187  GLY187     -0.1225
     83  CA        75.8610  -16.3050  -49.3180 C.3   187  GLY187      0.1811
     84  C         75.7600  -17.3300  -48.2020 C.2   187  GLY187      0.2280
     85  O         75.9340  -18.5540  -48.4500 O.2   187  GLY187     -0.2866
     86  N         76.9500  -22.0810  -44.3360 N.3   246  GLY246     -0.1210
     87  CA        76.5280  -22.4940  -45.6880 C.3   246  GLY246      0.1956
     88  C         77.3440  -23.6910  -46.1980 C.2   246  GLY246      0.2613
     89  O         78.3480  -24.0600  -45.5800 O.2   246  GLY246     -0.2717
     90  N         76.9280  -24.2930  -47.3190 N.am  247  THR247     -0.1938
     91  CA        77.6280  -25.4770  -47.8470 C.3   247  THR247      0.2028
     92  C         79.0900  -25.1780  -48.1210 C.2   247  THR247      0.2642
     93  O         79.9540  -25.8810  -47.6220 O.2   247  THR247     -0.2714
     94  CB        76.9420  -26.1160  -49.0460 C.3   247  THR247      0.1808
     95  OG1       75.6210  -26.4960  -48.6380 O.3   247  THR247     -0.2208
     96  CG2       77.7520  -27.3980  -49.5510 C.3   247  THR247      0.0379
     97  N         79.3600  -24.0820  -48.8030 N.am  248  ALA248     -0.1963
     98  CA        80.7100  -23.7660  -49.1910 C.3   248  ALA248      0.1728
     99  C         81.4900  -23.3280  -47.9720 C.2   248  ALA248      0.2616
    100  O         82.6140  -23.8140  -47.7290 O.2   248  ALA248     -0.2715
    101  CB        80.7010  -22.6910  -50.2590 C.3   248  ALA248      0.0334
    102  N         80.8790  -22.4550  -47.1670 N.am  249  ALA249     -0.1977
    103  CA        81.5830  -21.8520  -46.0410 C.3   249  ALA249      0.1597
    104  C         81.7010  -22.8000  -44.8540 C.2   249  ALA249      0.2287
    105  O         82.5200  -22.5960  -43.9660 O.2   249  ALA249     -0.2864
    106  CB        80.8740  -20.5590  -45.6150 C.3   249  ALA249      0.0319
@<TRIPOS>BOND
     1    31    30    2
     2    33    32    1
     3    33    34    1
     4    30    29    1
     5    32    29    1
     6     5     2    1
     7     5     6    1
     8    70    71    1
     9    34    35    1
    10     1     2    1
    11     2     3    1
    12    29    28    1
    13    37    36    1
    14     7     6   ar
    15     7     9   ar
    16     6     8   ar
    17    71    72    1
    18    71    74    1
    19    35    36    2
    20    72    73    2
    21    36    38    1
    22    74    75    1
    23     3     4    2
    24    64    63    2
    25     9    11   ar
    26    19    18    2
    27     8    10   ar
    28    63    62    1
    29    76    75   ar
    30    76    78   ar
    31    75    77   ar
    32    11    10   ar
    33    18    17    1
    34    23    25   ar
    35    23    21   ar
    36    25    26   ar
    37    78    80   ar
    38    77    79   ar
    39    43    44    1
    40    43    40    1
    41    62    61    1
    42    62    65    1
    43    45    44   ar
    44    45    47   ar
    45    44    46   ar
    46    47    48   ar
    47    20    21    1
    48    20    17    1
    49    21    22   ar
    50    39    40    1
    51    17    16    1
    52    46    48   ar
    53    46    49   ar
    54    26    27    1
    55    26    24   ar
    56    48    50   ar
    57    65    66    1
    58    80    79   ar
    59    80    81    1
    60    40    41    1
    61    49    51   ar
    62    12    13    1
    63    50    52   ar
    64    51    52   ar
    65    66    67    1
    66    13    14    1
    67    22    24   ar
    68    67    68    1
    69    68    69    1
    70    14    15    2
    71    41    42    2
    72    59    58    1
    73   101    98    1
    74    96    94    1
    75    58    60    1
    76    58    57    1
    77    83    82    1
    78    83    84    1
    79    98    97    1
    80    98    99    1
    81    56    55    2
    82    94    95    1
    83    94    91    1
    84    54    57    1
    85    54    53    1
    86    54    55    1
    87    97    92   am
    88    85    84    2
    89    92    91    1
    90    92    93    2
    91    99   100    2
    92    99   102   am
    93    91    90    1
    94    90    88   am
    95   102   103    1
    96    88    87    1
    97    88    89    2
    98   103   106    1
    99   103   104    1
   100    87    86    1
   101   104   105    2
