@<TRIPOS>MOLECULE
tmp/5e26C01.pdb
 84 77 0 0 0
SMALL
GASTEIGER

@<TRIPOS>ATOM
      1  N         13.6460   87.2200    4.1850 N.3    14  GLY14      -0.1225
      2  CA        12.4620   87.9420    4.6590 C.3    14  GLY14       0.1811
      3  C         11.1980   87.6490    3.8790 C.2    14  GLY14       0.2280
      4  O         10.1280   87.5410    4.4630 O.2    14  GLY14      -0.2866
      5  N         18.2520   85.0950    7.3860 N.3   110  GLY110     -0.1225
      6  CA        17.7760   85.2680    8.7540 C.3   110  GLY110      0.1811
      7  C         16.9140   84.1330    9.2600 C.2   110  GLY110      0.2280
      8  O         16.9160   83.8460   10.4520 O.2   110  GLY110     -0.2866
      9  N         24.4540   85.3160    5.6230 N.3   132  GLU132     -0.1231
     10  CA        23.8070   85.5710    4.3190 C.3   132  GLU132      0.1699
     11  C         24.6970   86.2840    3.3080 C.2   132  GLU132      0.2592
     12  O         24.5700   86.0430    2.1080 O.2   132  GLU132     -0.2718
     13  CB        22.4630   86.3040    4.4670 C.3   132  GLU132      0.0402
     14  CG        22.5120   87.7110    5.0350 C.3   132  GLU132      0.1161
     15  CD        21.1450   88.3690    5.0170 C.2   132  GLU132      0.3649
     16  OE1       20.4210   88.2300    6.0130 O.co2 132  GLU132     -0.2457
     17  OE2       20.7830   88.9960    4.0040 O.co2 132  GLU132     -0.2457
     18  N         25.5840   87.1490    3.7980 N.am  133  LEU133     -0.1980
     19  CA        26.4780   87.9230    2.9440 C.3   133  LEU133      0.1596
     20  C         27.7420   87.1510    2.5710 C.2   133  LEU133      0.2287
     21  O         28.2030   87.2760    1.4420 O.2   133  LEU133     -0.2864
     22  CB        26.7990   89.2700    3.5950 C.3   133  LEU133      0.0297
     23  CG        25.5620   90.0990    3.9730 C.3   133  LEU133      0.0022
     24  CD1       25.9770   91.4640    4.5070 C.3   133  LEU133      0.0001
     25  CD2       24.5830   90.2630    2.8170 C.3   133  LEU133      0.0001
     26  N         22.7040   94.0780   -2.9690 N.3   183  ASN183     -0.1240
     27  CA        21.8090   92.9470   -2.8020 C.3   183  ASN183      0.1653
     28  C         20.4250   93.4670   -2.4520 C.2   183  ASN183      0.2266
     29  O         20.1570   93.7800   -1.3010 O.2   183  ASN183     -0.2867
     30  CB        22.3460   92.0320   -1.6960 C.3   183  ASN183      0.1155
     31  CG        21.4650   90.8250   -1.4430 C.2   183  ASN183      0.2627
     32  OD1       20.7610   90.3570   -2.3270 O.2   183  ASN183     -0.2716
     33  ND2       21.5060   90.3170   -0.2300 N.am  183  ASN183     -0.0877
     34  N         14.1620   91.9840    0.1880 N.3   186  SER186     -0.1202
     35  CA        13.1260   92.7040    0.9410 C.3   186  SER186      0.2020
     36  C         13.7020   94.0460    1.3840 C.2   186  SER186      0.2619
     37  O         13.0780   95.0930    1.1880 O.2   186  SER186     -0.2717
     38  CB        12.6670   91.9140    2.1580 C.3   186  SER186      0.2103
     39  OG        12.2570   90.6000    1.8100 O.3   186  SER186     -0.2182
     40  N         14.8940   93.9820    1.9740 N.am  187  GLY187     -0.1942
     41  CA        15.7530   95.1320    2.2180 C.3   187  GLY187      0.2014
     42  C         17.0280   95.0010    1.4080 C.2   187  GLY187      0.2639
     43  O         17.1730   94.0630    0.6200 O.2   187  GLY187     -0.2714
     44  N         17.9520   95.9360    1.6050 N.am  188  VAL188     -0.1963
     45  CA        19.1230   96.0860    0.7300 C.3   188  VAL188      0.1727
     46  C         20.4050   96.1820    1.5440 C.2   188  VAL188      0.2616
     47  O         20.4890   97.0230    2.4320 O.2   188  VAL188     -0.2715
     48  CB        19.0000   97.3570   -0.1560 C.3   188  VAL188      0.0290
     49  CG1       20.1510   97.4550   -1.1540 C.3   188  VAL188      0.0023
     50  CG2       17.6490   97.4000   -0.8600 C.3   188  VAL188      0.0023
     51  N         21.3740   95.3020    1.2540 N.am  189  SER189     -0.1950
     52  CA        22.7480   95.4120    1.7670 C.3   189  SER189      0.1924
     53  C         23.6610   95.7910    0.6240 C.2   189  SER189      0.2314
     54  O         23.5260   95.2540   -0.4770 O.2   189  SER189     -0.2863
     55  CB        23.2450   94.1030    2.3790 C.3   189  SER189      0.2116
     56  OG        22.6100   93.8140    3.6070 O.3   189  SER189     -0.2180
     57  N         30.2800   95.3570    4.6720 N.3   201  ARG201     -0.1245
     58  CA        28.9450   95.9170    4.4530 C.3   201  ARG201      0.1563
     59  C         29.0150   97.4330    4.6640 C.2   201  ARG201      0.2260
     60  O         28.9310   97.9120    5.7960 O.2   201  ARG201     -0.2867
     61  CB        27.9200   95.2820    5.4020 C.3   201  ARG201      0.0307
     62  CG        26.4830   95.7430    5.1670 C.3   201  ARG201      0.0489
     63  CD        25.5210   95.0030    6.0830 C.3   201  ARG201      0.2205
     64  NE        24.1070   95.2210    5.7480 N.pl3 201  ARG201     -0.0865
     65  CZ        23.4190   96.3440    5.9820 C.cat 201  ARG201      0.5346
     66  NH1       23.9900   97.4110    6.5480 N.pl3 201  ARG201      0.1354
     67  NH2       22.1360   96.4070    5.6410 N.pl3 201  ARG201      0.1354
     68  N         23.3240   99.9910    3.9090 N.3   204  GLY204     -0.1210
     69  CA        22.1380   99.3610    3.3870 C.3   204  GLY204      0.1956
     70  C         20.9870  100.3390    3.4030 C.2   204  GLY204      0.2613
     71  O         21.1350  101.4830    3.8620 O.2   204  GLY204     -0.2717
     72  N         19.8480   99.8860    2.8870 N.am  205  THR205     -0.1938
     73  CA        18.5990  100.6260    3.0060 C.3   205  THR205      0.2028
     74  C         17.4240   99.6810    3.1560 C.2   205  THR205      0.2642
     75  O         17.3630   98.6290    2.5180 O.2   205  THR205     -0.2714
     76  CB        18.3550  101.6020    1.8270 C.3   205  THR205      0.1808
     77  OG1       17.1070  102.2910    2.0190 O.3   205  THR205     -0.2208
     78  CG2       18.3410  100.8930    0.4870 C.3   205  THR205      0.0379
     79  N         16.4950  100.0730    4.0230 N.am  206  SER206     -0.1949
     80  CA        15.2580   99.3450    4.2120 C.3   206  SER206      0.1924
     81  C         14.2600   99.6320    3.0800 C.2   206  SER206      0.2314
     82  O         13.2370   98.9510    2.9800 O.2   206  SER206     -0.2863
     83  CB        14.6420   99.6940    5.5600 C.3   206  SER206      0.2116
     84  OG        14.2020  101.0420    5.6030 O.3   206  SER206     -0.2180
@<TRIPOS>BOND
     1    26    27    1
     2    27    28    1
     3    27    30    1
     4    28    29    2
     5    32    31    2
     6    30    31    1
     7    31    33   am
     8    49    48    1
     9    50    48    1
    10    54    53    2
    11    48    45    1
    12    34    35    1
    13    78    76    1
    14    43    42    2
    15    53    52    1
    16    45    46    1
    17    45    44    1
    18    35    36    1
    19    35    38    1
    20    37    36    2
    21    51    46   am
    22    51    52    1
    23    36    40   am
    24    42    44   am
    25    42    41    1
    26    21    20    2
    27    46    47    2
    28    52    55    1
    29    39    38    1
    30    76    77    1
    31    76    73    1
    32    40    41    1
    33    12    11    2
    34    55    56    1
    35    75    74    2
    36    20    19    1
    37    25    23    1
    38    72    73    1
    39    72    70   am
    40    19    22    1
    41    19    18    1
    42    82    81    2
    43    73    74    1
    44    81    80    1
    45    74    79   am
    46    11    18   am
    47    11    10    1
    48    69    70    1
    49    69    68    1
    50    70    71    2
    51    22    23    1
    52     3     4    2
    53     3     2    1
    54    23    24    1
    55    17    15   ar
    56    79    80    1
    57     1     2    1
    58    80    83    1
    59    10    13    1
    60    10     9    1
    61    58    59    1
    62    58    57    1
    63    58    61    1
    64    13    14    1
    65    59    60    2
    66    15    14    1
    67    15    16   ar
    68    62    61    1
    69    62    63    1
    70    83    84    1
    71    67    65    1
    72    64    65    2
    73    64    63    1
    74    65    66    1
    75     5     6    1
    76     6     7    1
    77     7     8    2
