@<TRIPOS>MOLECULE
tmp/5e26C00.pdb
 174 163 0 0 0
SMALL
GASTEIGER

@<TRIPOS>ATOM
      1  N         18.4470   79.2940    1.5770 N.3    11  ASP11      -0.1239
      2  CA        18.5360   80.7010    1.9710 C.3    11  ASP11       0.1674
      3  C         17.1390   81.1560    2.3540 C.2    11  ASP11       0.2266
      4  O         16.3180   81.4070    1.4860 O.2    11  ASP11      -0.2867
      5  CB        19.0890   81.5520    0.8260 C.3    11  ASP11       0.1410
      6  CG        19.2710   83.0130    1.2110 C.2    11  ASP11       0.3668
      7  OD1       18.7280   83.4540    2.2570 O.co2  11  ASP11      -0.2456
      8  OD2       19.9840   83.7210    0.4670 O.co2  11  ASP11      -0.2456
      9  N         14.9360   83.8360    3.5080 N.3    13  GLY13      -0.1210
     10  CA        14.9540   85.2960    3.5650 C.3    13  GLY13       0.1956
     11  C         13.7140   85.8910    4.1960 C.2    13  GLY13       0.2612
     12  O         12.8450   85.1720    4.6940 O.2    13  GLY13      -0.2717
     13  N         13.6460   87.2200    4.1850 N.am   14  GLY14      -0.1942
     14  CA        12.4620   87.9420    4.6590 C.3    14  GLY14       0.2014
     15  C         11.1980   87.6490    3.8790 C.2    14  GLY14       0.2640
     16  O         10.1280   87.5410    4.4630 O.2    14  GLY14      -0.2714
     17  N         11.3230   87.5110    2.5600 N.am   15  THR15      -0.1936
     18  CA        10.1820   87.2880    1.6780 C.3    15  THR15       0.2028
     19  C         10.2290   85.8920    1.0260 C.2    15  THR15       0.2642
     20  O          9.2310   85.1620    1.0810 O.2    15  THR15      -0.2714
     21  CB        10.0870   88.3880    0.5960 C.3    15  THR15       0.1808
     22  OG1        9.9390   89.6730    1.2210 O.3    15  THR15      -0.2208
     23  CG2        8.8960   88.1410   -0.3450 C.3    15  THR15       0.0379
     24  N         11.3670   85.5290    0.4270 N.am   16  LEU16      -0.1977
     25  CA        11.4930   84.2720   -0.3150 C.3    16  LEU16       0.1596
     26  C         12.5070   83.3080    0.3150 C.2    16  LEU16       0.2287
     27  O         13.5250   83.7290    0.8790 O.2    16  LEU16      -0.2864
     28  CB        11.8730   84.5500   -1.7880 C.3    16  LEU16       0.0297
     29  CG        10.8330   85.2880   -2.6430 C.3    16  LEU16       0.0022
     30  CD1       11.3740   85.5900   -4.0350 C.3    16  LEU16       0.0001
     31  CD2        9.5280   84.5060   -2.7440 C.3    16  LEU16       0.0001
     32  N         15.0180   80.3490   -0.8730 N.3    18  LYS18      -0.1245
     33  CA        15.6740   79.8540   -2.0800 C.3    18  LYS18       0.1561
     34  C         16.3370   78.5370   -1.7280 C.2    18  LYS18       0.2260
     35  O         16.9540   78.4160   -0.6690 O.2    18  LYS18      -0.2867
     36  CB        16.7130   80.8540   -2.6120 C.3    18  LYS18       0.0271
     37  CG        16.1210   82.0500   -3.3590 C.3    18  LYS18       0.0035
     38  CD        15.4060   83.0790   -2.4860 C.3    18  LYS18       0.0206
     39  CE        16.2580   83.5530   -1.3160 C.3    18  LYS18       0.1093
     40  NZ        15.7420   84.8030   -0.6950 N.3    18  LYS18      -0.1314
     41  N          8.0880   76.7650   -6.6330 N.3    57  ILE57      -0.1245
     42  CA         8.3640   76.8260   -8.0800 C.3    57  ILE57       0.1561
     43  C          9.8180   76.4920   -8.3680 C.2    57  ILE57       0.2260
     44  O         10.7140   76.9700   -7.6730 O.2    57  ILE57      -0.2867
     45  CB         8.0830   78.2360   -8.6700 C.3    57  ILE57       0.0252
     46  CG1        6.6280   78.6410   -8.4090 C.3    57  ILE57       0.0019
     47  CG2        8.4120   78.2720  -10.1710 C.3    57  ILE57       0.0019
     48  CD1        6.2570   80.0280   -8.8910 C.3    57  ILE57       0.0001
     49  N         12.2960   78.0620   -5.4930 N.3    80  ARG80      -0.1245
     50  CA        11.8410   79.1100   -4.5760 C.3    80  ARG80       0.1563
     51  C         10.4010   78.9080   -4.1070 C.2    80  ARG80       0.2260
     52  O          9.5890   78.3010   -4.7970 O.2    80  ARG80      -0.2867
     53  CB        11.9920   80.5000   -5.2110 C.3    80  ARG80       0.0307
     54  CG        11.2860   80.6840   -6.5530 C.3    80  ARG80       0.0489
     55  CD        11.5990   82.0450   -7.1630 C.3    80  ARG80       0.2205
     56  NE        11.3040   82.0800   -8.6000 N.pl3  80  ARG80      -0.0865
     57  CZ        10.1480   82.4590   -9.1590 C.cat  80  ARG80       0.5346
     58  NH1        9.1170   82.8800   -8.4330 N.pl3  80  ARG80       0.1354
     59  NH2       10.0330   82.4290  -10.4830 N.pl3  80  ARG80       0.1354
     60  N          7.5490   81.1380   -0.9440 N.3    82  PRO82      -0.2116
     61  CA         7.5050   82.2410    0.0320 C.3    82  PRO82       0.1372
     62  C          7.8980   81.7830    1.4340 C.2    82  PRO82       0.2244
     63  O          7.4870   80.7080    1.8430 O.2    82  PRO82      -0.2868
     64  CB         6.0260   82.6860    0.0310 C.3    82  PRO82       0.0268
     65  CG         5.3360   81.8750   -1.0060 C.3    82  PRO82       0.0207
     66  CD         6.1950   80.6840   -1.3090 C.3    82  PRO82       0.0892
     67  N         24.4540   85.3160    5.6230 N.3   132  GLU132     -0.1245
     68  CA        23.8070   85.5710    4.3190 C.3   132  GLU132      0.1567
     69  C         24.6970   86.2840    3.3080 C.2   132  GLU132      0.2260
     70  O         24.5700   86.0430    2.1080 O.2   132  GLU132     -0.2867
     71  CB        22.4630   86.3040    4.4670 C.3   132  GLU132      0.0388
     72  CG        22.5120   87.7110    5.0350 C.3   132  GLU132      0.1160
     73  CD        21.1450   88.3690    5.0170 C.2   132  GLU132      0.3649
     74  OE1       20.4210   88.2300    6.0130 O.co2 132  GLU132     -0.2457
     75  OE2       20.7830   88.9960    4.0040 O.co2 132  GLU132     -0.2457
     76  N         22.7040   94.0780   -2.9690 N.3   183  ASN183     -0.1240
     77  CA        21.8090   92.9470   -2.8020 C.3   183  ASN183      0.1653
     78  C         20.4250   93.4670   -2.4520 C.2   183  ASN183      0.2266
     79  O         20.1570   93.7800   -1.3010 O.2   183  ASN183     -0.2867
     80  CB        22.3460   92.0320   -1.6960 C.3   183  ASN183      0.1155
     81  CG        21.4650   90.8250   -1.4430 C.2   183  ASN183      0.2627
     82  OD1       20.7610   90.3570   -2.3270 O.2   183  ASN183     -0.2716
     83  ND2       21.5060   90.3170   -0.2300 N.am  183  ASN183     -0.0877
     84  N         16.9650   92.7000   -1.8540 N.3   185  GLY185     -0.1210
     85  CA        15.9300   91.7480   -1.4570 C.3   185  GLY185      0.1956
     86  C         14.7320   92.4930   -0.9050 C.2   185  GLY185      0.2613
     87  O         14.3390   93.5270   -1.4530 O.2   185  GLY185     -0.2717
     88  N         14.1620   91.9840    0.1880 N.am  186  SER186     -0.1938
     89  CA        13.1260   92.7040    0.9410 C.3   186  SER186      0.2055
     90  C         13.7020   94.0460    1.3840 C.2   186  SER186      0.2643
     91  O         13.0780   95.0930    1.1880 O.2   186  SER186     -0.2714
     92  CB        12.6670   91.9140    2.1580 C.3   186  SER186      0.2130
     93  OG        12.2570   90.6000    1.8100 O.3   186  SER186     -0.2179
     94  N         14.8940   93.9820    1.9740 N.am  187  GLY187     -0.1954
     95  CA        15.7530   95.1320    2.2180 C.3   187  GLY187      0.1869
     96  C         17.0280   95.0010    1.4080 C.2   187  GLY187      0.2309
     97  O         17.1730   94.0630    0.6200 O.2   187  GLY187     -0.2863
     98  N         13.0480   95.8560   -2.1270 N.3   209  GLY209     -0.1210
     99  CA        12.0240   95.1270   -2.8580 C.3   209  GLY209      0.1956
    100  C         10.7270   94.9870   -2.0930 C.2   209  GLY209      0.2612
    101  O          9.6490   94.9450   -2.6910 O.2   209  GLY209     -0.2717
    102  N         10.8220   94.9000   -0.7660 N.am  210  GLY210     -0.1956
    103  CA         9.6410   94.7650    0.0750 C.3   210  GLY210      0.1869
    104  C          8.8370   96.0520    0.1340 C.2   210  GLY210      0.2309
    105  O          7.6140   96.0180    0.2690 O.2   210  GLY210     -0.2863
    106  N          7.0370   96.3210   -3.3850 N.3   213  PHE213     -0.1241
    107  CA         5.9270   95.3480   -3.4140 C.3   213  PHE213      0.1605
    108  C          4.7990   95.7650   -2.4700 C.2   213  PHE213      0.2264
    109  O          3.6260   95.8290   -2.8730 O.2   213  PHE213     -0.2867
    110  CB         6.4850   93.9490   -3.0780 C.3   213  PHE213      0.0534
    111  CG         5.5100   92.7950   -3.2350 C.ar  213  PHE213     -0.0203
    112  CD1        4.3130   92.8960   -3.9560 C.ar  213  PHE213     -0.0042
    113  CD2        5.8250   91.5670   -2.6550 C.ar  213  PHE213     -0.0042
    114  CE1        3.4590   91.8120   -4.0650 C.ar  213  PHE213     -0.0003
    115  CE2        4.9710   90.4770   -2.7720 C.ar  213  PHE213     -0.0003
    116  CZ         3.7870   90.5990   -3.4810 C.ar  213  PHE213     -0.0000
    117  N          3.8390   90.1510   -6.9250 N.3   225  PHE225     -0.1227
    118  CA         4.9600   90.9170   -7.4680 C.3   225  PHE225      0.1736
    119  C          4.8740   91.0210   -8.9940 C.2   225  PHE225      0.2595
    120  O          5.1470   92.0760   -9.5610 O.2   225  PHE225     -0.2718
    121  CB         6.2830   90.2530   -7.0500 C.3   225  PHE225      0.0547
    122  CG         7.5030   90.8580   -7.6870 C.ar  225  PHE225     -0.0202
    123  CD1        8.0440   92.0270   -7.1940 C.ar  225  PHE225     -0.0042
    124  CD2        8.1110   90.2450   -8.7720 C.ar  225  PHE225     -0.0042
    125  CE1        9.1730   92.5820   -7.7630 C.ar  225  PHE225     -0.0003
    126  CE2        9.2430   90.7920   -9.3520 C.ar  225  PHE225     -0.0003
    127  CZ         9.7740   91.9630   -8.8440 C.ar  225  PHE225     -0.0000
    128  N          4.4880   89.9190   -9.6430 N.am  226  GLU226     -0.1979
    129  CA         4.3200   89.8850  -11.0950 C.3   226  GLU226      0.1602
    130  C          3.2350   90.8740  -11.5350 C.2   226  GLU226      0.2287
    131  O          3.3740   91.5510  -12.5650 O.2   226  GLU226     -0.2864
    132  CB         3.9690   88.4650  -11.5780 C.3   226  GLU226      0.0415
    133  CG         5.0940   87.4300  -11.4640 C.3   226  GLU226      0.1163
    134  CD         5.2360   86.7820  -10.0860 C.2   226  GLU226      0.3649
    135  OE1        4.4090   87.0350   -9.1840 O.co2 226  GLU226     -0.2457
    136  OE2        6.2030   86.0140   -9.8970 O.co2 226  GLU226     -0.2457
    137  N         19.6180   90.1380   -6.3550 N.3   315  GLY315     -0.1210
    138  CA        18.4510   90.0330   -5.4860 C.3   315  GLY315      0.1956
    139  C         17.1760   89.9190   -6.2890 C.2   315  GLY315      0.2612
    140  O         17.0960   90.3930   -7.4220 O.2   315  GLY315     -0.2717
    141  N         16.1610   89.3050   -5.6970 N.am  316  ASN316     -0.1960
    142  CA        14.9190   89.0380   -6.4230 C.3   316  ASN316      0.1819
    143  C         14.0070   90.2340   -6.7100 C.2   316  ASN316      0.2621
    144  O         13.0200   90.0720   -7.4330 O.2   316  ASN316     -0.2715
    145  CB        14.1380   87.8930   -5.7730 C.3   316  ASN316      0.1195
    146  CG        14.7490   86.5480   -6.0900 C.2   316  ASN316      0.2630
    147  OD1       14.8530   86.1830   -7.2520 O.2   316  ASN316     -0.2716
    148  ND2       15.1740   85.8170   -5.0690 N.am  316  ASN316     -0.0877
    149  N         14.3180   91.4180   -6.1800 N.am  317  PHE317     -0.1974
    150  CA        13.6770   92.6450   -6.6760 C.3   317  PHE317      0.1639
    151  C         13.8450   92.7810   -8.1960 C.2   317  PHE317      0.2290
    152  O         12.9250   93.2320   -8.8780 O.2   317  PHE317     -0.2864
    153  CB        14.2520   93.8790   -5.9900 C.3   317  PHE317      0.0560
    154  CG        13.7610   95.1740   -6.5740 C.ar  317  PHE317     -0.0200
    155  CD1       12.4020   95.4920   -6.5410 C.ar  317  PHE317     -0.0042
    156  CD2       14.6460   96.0740   -7.1750 C.ar  317  PHE317     -0.0042
    157  CE1       11.9310   96.6820   -7.0830 C.ar  317  PHE317     -0.0003
    158  CE2       14.1810   97.2660   -7.7130 C.ar  317  PHE317     -0.0003
    159  CZ        12.8190   97.5690   -7.6660 C.ar  317  PHE317     -0.0000
    160  N         14.2780   90.3120  -10.4730 N.3   319  ARG319     -0.1245
    161  CA        13.6960   89.2180  -11.2640 C.3   319  ARG319      0.1563
    162  C         12.6150   89.7720  -12.1860 C.2   319  ARG319      0.2260
    163  O         11.7470   90.5140  -11.7270 O.2   319  ARG319     -0.2867
    164  CB        13.0860   88.1460  -10.3490 C.3   319  ARG319      0.0307
    165  CG        12.7610   86.8510  -11.0730 C.3   319  ARG319      0.0489
    166  CD        12.2000   85.8150  -10.1210 C.3   319  ARG319      0.2205
    167  NE        10.8870   86.2150   -9.6670 N.pl3 319  ARG319     -0.0865
    168  CZ         9.7480   86.0370  -10.3360 C.cat 319  ARG319      0.5346
    169  NH1        8.6280   86.4640   -9.7920 N.pl3 319  ARG319      0.1354
    170  NH2        9.7050   85.4370  -11.5250 N.pl3 319  ARG319      0.1354
    171  N         18.8410   85.8660   -7.7800 N.3   349  GLY349     -0.1225
    172  CA        18.1800   85.5600   -6.5240 C.3   349  GLY349      0.1811
    173  C         18.7820   84.4260   -5.7090 C.2   349  GLY349      0.2280
    174  O         18.4610   84.2950   -4.5410 O.2   349  GLY349     -0.2866
@<TRIPOS>BOND
     1   131   130    2
     2   162   163    2
     3   162   161    1
     4   132   133    1
     5   132   129    1
     6   130   129    1
     7   170   168    1
     8   133   134    1
     9   161   160    1
    10   161   164    1
    11   129   128    1
    12   165   164    1
    13   165   166    1
    14    59    57    1
    15   168   169    1
    16   168   167    2
    17    47    45    1
    18   166   167    1
    19   134   136   ar
    20   134   135   ar
    21   128   119   am
    22   120   119    2
    23   126   127   ar
    24   126   124   ar
    25    57    56    2
    26    57    58    1
    27   119   118    1
    28    48    46    1
    29   152   151    2
    30   127   125   ar
    31   124   122   ar
    32    45    46    1
    33    45    42    1
    34    56    55    1
    35    43    42    1
    36    43    44    2
    37   151   150    1
    38    42    41    1
    39   171   172    1
    40   125   123   ar
    41   158   159   ar
    42   158   156   ar
    43   122   123   ar
    44   122   121    1
    45   159   157   ar
    46   118   121    1
    47   118   117    1
    48   144   143    2
    49   140   139    2
    50   147   146    2
    51   156   154   ar
    52    55    54    1
    53   157   155   ar
    54   143   142    1
    55   143   149   am
    56   150   149    1
    57   150   153    1
    58   154   155   ar
    59   154   153    1
    60    54    53    1
    61   172   173    1
    62   142   145    1
    63   142   141    1
    64   137   138    1
    65   139   141   am
    66   139   138    1
    67   146   145    1
    68   146   148   am
    69   173   174    2
    70    49    50    1
    71    53    50    1
    72    52    51    2
    73    50    51    1
    74   114   112   ar
    75   114   116   ar
    76    30    29    1
    77   112   111   ar
    78   116   115   ar
    79   107   106    1
    80   107   110    1
    81   107   108    1
    82    37    36    1
    83    37    38    1
    84   111   110    1
    85   111   113   ar
    86    76    77    1
    87   109   108    2
    88    99    98    1
    89    99   100    1
    90    77    78    1
    91    77    80    1
    92   115   113   ar
    93    31    29    1
    94   101   100    2
    95    29    28    1
    96    36    33    1
    97    38    39    1
    98    78    79    2
    99    82    81    2
   100   100   102   am
   101    33    34    1
   102    33    32    1
   103    84    85    1
   104    28    25    1
   105    34    35    2
   106    80    81    1
   107    85    86    1
   108    87    86    2
   109    81    83   am
   110    39    40    1
   111    66    65    1
   112    66    60    1
   113    65    64    1
   114    60    61    1
   115    86    88   am
   116   102   103    1
   117    23    21    1
   118    25    26    1
   119    25    24    1
   120    64    61    1
   121    61    62    1
   122   103   104    1
   123   104   105    2
   124    88    89    1
   125    26    27    2
   126    24    19   am
   127     8     6   ar
   128    21    22    1
   129    21    18    1
   130    97    96    2
   131     5     6    1
   132     5     2    1
   133    89    90    1
   134    89    92    1
   135    19    20    2
   136    19    18    1
   137    91    90    2
   138     6     7   ar
   139    90    94   am
   140    96    95    1
   141    62    63    2
   142     4     3    2
   143     1     2    1
   144    18    17    1
   145    93    92    1
   146     2     3    1
   147    94    95    1
   148    70    69    2
   149    17    15   am
   150    69    68    1
   151     9    10    1
   152    10    11    1
   153    15    16    2
   154    15    14    1
   155    75    73   ar
   156    13    11   am
   157    13    14    1
   158    11    12    2
   159    68    71    1
   160    68    67    1
   161    71    72    1
   162    73    72    1
   163    73    74   ar
