@<TRIPOS>MOLECULE
tmp/5e29A01.pdb
 80 75 0 0 0
SMALL
GASTEIGER

@<TRIPOS>ATOM
      1  N        -28.0680   34.4970  -20.9450 N.3    36  PHE36      -0.1241
      2  CA       -28.0450   33.7200  -19.7110 C.3    36  PHE36       0.1605
      3  C        -28.6260   34.5900  -18.5790 C.2    36  PHE36       0.2264
      4  O        -27.8810   35.1770  -17.7730 O.2    36  PHE36      -0.2867
      5  CB       -26.5980   33.3050  -19.4020 C.3    36  PHE36       0.0534
      6  CG       -25.8600   32.7650  -20.5900 C.ar   36  PHE36      -0.0203
      7  CD1      -24.9920   33.5710  -21.3120 C.ar   36  PHE36      -0.0042
      8  CD2      -26.0450   31.4420  -21.0030 C.ar   36  PHE36      -0.0042
      9  CE1      -24.3160   33.0750  -22.4350 C.ar   36  PHE36      -0.0003
     10  CE2      -25.3780   30.9410  -22.1200 C.ar   36  PHE36      -0.0003
     11  CZ       -24.5080   31.7600  -22.8380 C.ar   36  PHE36      -0.0000
     12  N        -19.1540   29.3990  -12.2510 N.3    96  VAL96      -0.1245
     13  CA       -19.7120   29.0880  -13.5690 C.3    96  VAL96       0.1561
     14  C        -19.9880   30.3270  -14.4190 C.2    96  VAL96       0.2260
     15  O        -19.8690   30.2980  -15.6430 O.2    96  VAL96      -0.2867
     16  CB       -21.0470   28.2920  -13.4680 C.3    96  VAL96       0.0252
     17  CG1      -20.8280   26.9830  -12.7430 C.3    96  VAL96       0.0019
     18  CG2      -22.0950   29.1210  -12.7460 C.3    96  VAL96       0.0019
     19  N        -17.3890   31.6880  -17.2310 N.3    99  LYS99      -0.1231
     20  CA       -17.3690   31.0580  -18.5510 C.3    99  LYS99       0.1693
     21  C        -18.4350   31.7050  -19.4280 C.2    99  LYS99       0.2591
     22  O        -18.3100   31.7480  -20.6540 O.2    99  LYS99      -0.2718
     23  CB       -17.6760   29.5630  -18.4410 C.3    99  LYS99       0.0285
     24  CG       -16.7030   28.7720  -17.6110 C.3    99  LYS99       0.0035
     25  CD       -17.1040   27.3060  -17.5570 C.3    99  LYS99       0.0206
     26  CE       -16.0960   26.5040  -16.7430 C.3    99  LYS99       0.1093
     27  NZ       -14.7050   26.7100  -17.2490 N.3    99  LYS99      -0.1314
     28  N        -19.5060   32.1670  -18.7870 N.am  100  LEU100     -0.1980
     29  CA       -20.6010   32.8140  -19.4930 C.3   100  LEU100      0.1596
     30  C        -20.1820   34.2010  -20.0140 C.2   100  LEU100      0.2287
     31  O        -20.4660   34.5620  -21.1650 O.2   100  LEU100     -0.2864
     32  CB       -21.8210   32.9280  -18.5770 C.3   100  LEU100      0.0297
     33  CG       -22.3530   31.6050  -18.0060 C.3   100  LEU100      0.0022
     34  CD1      -23.6190   31.8660  -17.1780 C.3   100  LEU100      0.0001
     35  CD2      -22.6290   30.6220  -19.1600 C.3   100  LEU100      0.0001
     36  N        -17.4790   33.7730  -22.8860 N.3   103  HIS103     -0.1241
     37  CA       -18.0820   33.3810  -24.1550 C.3   103  HIS103      0.1621
     38  C        -18.6850   34.6150  -24.8440 C.2   103  HIS103      0.2264
     39  O        -18.5120   34.8240  -26.0480 O.2   103  HIS103     -0.2867
     40  CB       -19.1540   32.3080  -23.9120 C.3   103  HIS103      0.0745
     41  CG       -20.0150   32.0150  -25.1050 C.ar  103  HIS103      0.0817
     42  ND1      -19.5320   31.3990  -26.2410 N.ar  103  HIS103     -0.2268
     43  CD2      -21.3320   32.2390  -25.3310 C.ar  103  HIS103      0.1154
     44  CE1      -20.5170   31.2530  -27.1110 C.ar  103  HIS103      0.1986
     45  NE2      -21.6180   31.7540  -26.5830 N.ar  103  HIS103     -0.2212
     46  N         -9.5170   32.7830  -25.9350 N.3   126  ASP126     -0.1225
     47  CA       -10.2560   31.8920  -25.0360 C.3   126  ASP126      0.1805
     48  C         -9.3730   31.4630  -23.8620 C.2   126  ASP126      0.2597
     49  O         -9.8250   31.4630  -22.7200 O.2   126  ASP126     -0.2718
     50  CB       -10.7750   30.6680  -25.8120 C.3   126  ASP126      0.1424
     51  CG       -11.9020   29.9400  -25.0840 C.2   126  ASP126      0.3668
     52  OD1      -12.8720   30.5980  -24.6660 O.co2 126  ASP126     -0.2456
     53  OD2      -11.8330   28.7090  -24.9360 O.co2 126  ASP126     -0.2456
     54  N         -8.1200   31.1080  -24.1320 N.am  127  LYS127     -0.1979
     55  CA        -7.1950   30.7070  -23.0630 C.3   127  LYS127      0.1596
     56  C         -6.9400   31.8980  -22.1400 C.2   127  LYS127      0.2287
     57  O         -6.8710   31.7570  -20.9160 O.2   127  LYS127     -0.2864
     58  CB        -5.8500   30.2460  -23.6320 C.3   127  LYS127      0.0298
     59  CG        -5.8470   28.8470  -24.2280 C.3   127  LYS127      0.0038
     60  CD        -4.4710   28.5190  -24.7870 C.3   127  LYS127      0.0206
     61  CE        -3.4090   28.4820  -23.6970 C.3   127  LYS127      0.1093
     62  NZ        -2.0980   28.0240  -24.2390 N.3   127  LYS127     -0.1314
     63  N         -9.9480   32.4880  -19.8900 N.3   130  ALA130     -0.1231
     64  CA       -10.0640   31.4080  -18.9160 C.3   130  ALA130      0.1694
     65  C         -9.0380   31.6660  -17.8190 C.2   130  ALA130      0.2592
     66  O         -9.2670   31.3700  -16.6440 O.2   130  ALA130     -0.2718
     67  CB        -9.7930   30.0660  -19.5770 C.3   130  ALA130      0.0304
     68  N         -7.9050   32.2330  -18.2190 N.am  131  SER131     -0.1952
     69  CA        -6.8260   32.5460  -17.2960 C.3   131  SER131      0.1924
     70  C         -7.2060   33.6860  -16.3480 C.2   131  SER131      0.2314
     71  O         -6.9770   33.5890  -15.1410 O.2   131  SER131     -0.2863
     72  CB        -5.5670   32.9080  -18.0780 C.3   131  SER131      0.2116
     73  OG        -4.4730   33.0930  -17.2060 O.3   131  SER131     -0.2180
     74  N         -9.5840   32.3280  -13.8680 N.3   134  THR134     -0.1218
     75  CA        -8.9180   31.5080  -12.8620 C.3   134  THR134      0.1862
     76  C         -8.2960   32.3940  -11.7890 C.2   134  THR134      0.2287
     77  O         -8.4070   32.1180  -10.5910 O.2   134  THR134     -0.2866
     78  CB        -7.8260   30.6640  -13.5100 C.3   134  THR134      0.1770
     79  OG1       -8.4490   29.6630  -14.3220 O.3   134  THR134     -0.2211
     80  CG2       -6.9290   30.0140  -12.4520 C.3   134  THR134      0.0375
@<TRIPOS>BOND
     1    44    45   ar
     2    44    42   ar
     3    45    43   ar
     4    42    41   ar
     5    39    38    2
     6    46    47    1
     7    50    51    1
     8    50    47    1
     9    43    41   ar
    10    41    40    1
    11    51    53   ar
    12    51    52   ar
    13    47    48    1
    14    38    37    1
    15    60    59    1
    16    60    61    1
    17    62    61    1
    18    59    58    1
    19    37    40    1
    20    37    36    1
    21    54    48   am
    22    54    55    1
    23    48    49    2
    24    58    55    1
    25    55    56    1
    26    11     9   ar
    27    11    10   ar
    28     9     7   ar
    29    56    57    2
    30    10     8   ar
    31     7     6   ar
    32    31    30    2
    33     8     6   ar
    34     1     2    1
    35    22    21    2
    36     6     5    1
    37    30    29    1
    38    63    64    1
    39     2     5    1
    40     2     3    1
    41    67    64    1
    42    29    28    1
    43    29    32    1
    44    21    28   am
    45    21    20    1
    46    35    33    1
    47    64    65    1
    48     3     4    2
    49    32    33    1
    50    20    23    1
    51    20    19    1
    52    23    24    1
    53    68    65   am
    54    68    69    1
    55    72    69    1
    56    72    73    1
    57    33    34    1
    58    65    66    2
    59    24    25    1
    60    25    26    1
    61    69    70    1
    62    27    26    1
    63    70    71    2
    64    15    14    2
    65    14    13    1
    66    79    78    1
    67    74    75    1
    68    13    16    1
    69    13    12    1
    70    78    75    1
    71    78    80    1
    72    16    18    1
    73    16    17    1
    74    75    76    1
    75    76    77    2
