@<TRIPOS>MOLECULE
tmp/5e2aA00.pdb
 143 138 0 0 0
SMALL
GASTEIGER

@<TRIPOS>ATOM
      1  N          9.3630   45.1210  -20.2880 N.3    24  TRP24      -0.1241
      2  CA         9.8860   45.0890  -18.9020 C.3    24  TRP24       0.1605
      3  C         10.2320   46.4860  -18.4290 C.2    24  TRP24       0.2264
      4  O         10.1400   46.7610  -17.2280 O.2    24  TRP24      -0.2867
      5  CB        11.0800   44.1240  -18.7560 C.3    24  TRP24       0.0550
      6  CG        10.5560   42.7070  -18.8320 C.ar   24  TRP24       0.0003
      7  CD1       10.6840   41.8300  -19.8590 C.ar   24  TRP24       0.0946
      8  CD2        9.7980   42.0390  -17.8200 C.ar   24  TRP24       0.0152
      9  NE1       10.0260   40.6450  -19.5480 N.ar   24  TRP24      -0.2442
     10  CE2        9.4850   40.7530  -18.2990 C.ar   24  TRP24       0.0810
     11  CE3        9.3440   42.4230  -16.5450 C.ar   24  TRP24       0.0012
     12  CZ2        8.7030   39.8590  -17.5800 C.ar   24  TRP24       0.0191
     13  CZ3        8.5890   41.5330  -15.8240 C.ar   24  TRP24       0.0001
     14  CH2        8.2540   40.2740  -16.3390 C.ar   24  TRP24       0.0015
     15  N          7.6740   41.4670  -10.8010 N.3    34  MET34      -0.1230
     16  CA         8.4740   40.3340  -11.1520 C.3    34  MET34       0.1702
     17  C          7.6030   39.1050  -11.4000 C.2    34  MET34       0.2592
     18  O          7.8710   38.3200  -12.3160 O.2    34  MET34      -0.2718
     19  CB         9.4860   39.9470  -10.0510 C.3    34  MET34       0.0401
     20  CG        10.4480   41.0340   -9.6290 C.3    34  MET34       0.0596
     21  SD        11.4810   41.6920  -10.9510 S.3    34  MET34      -0.1393
     22  CE        10.5470   43.0730  -11.4750 C.3    34  MET34       0.0692
     23  N          6.5270   38.9740  -10.6090 N.am   35  LEU35      -0.1966
     24  CA         5.7130   37.7650  -10.6910 C.3    35  LEU35       0.1728
     25  C          4.4110   37.9880  -11.4290 C.2    35  LEU35       0.2616
     26  O          3.4680   37.2070  -11.3250 O.2    35  LEU35      -0.2715
     27  CB         5.5100   37.1610   -9.3130 C.3    35  LEU35       0.0311
     28  CG         6.8140   36.7710   -8.6130 C.3    35  LEU35       0.0022
     29  CD1        6.5070   36.0700   -7.2950 C.3    35  LEU35       0.0001
     30  CD2        7.6520   35.8890   -9.4960 C.3    35  LEU35       0.0001
     31  N          4.3220   39.0440  -12.2330 N.am   36  GLY36      -0.1955
     32  CA         3.1730   39.1230  -13.1080 C.3    36  GLY36       0.1869
     33  C          1.8020   39.1940  -12.4350 C.2    36  GLY36       0.2309
     34  O          0.8490   38.7160  -12.9930 O.2    36  GLY36      -0.2863
     35  N          1.2930   37.8110   -9.4970 N.3    38  TYR38      -0.1241
     36  CA         1.3000   36.6840   -8.6010 C.3    38  TYR38       0.1605
     37  C          2.3520   36.8740   -7.5030 C.2    38  TYR38       0.2264
     38  O          2.8860   35.9030   -6.9600 O.2    38  TYR38      -0.2867
     39  CB         1.4780   35.3550   -9.3570 C.3    38  TYR38       0.0534
     40  CG         0.3030   35.0030  -10.2360 C.ar   38  TYR38      -0.0201
     41  CD1        0.3010   35.3990  -11.5700 C.ar   38  TYR38      -0.0009
     42  CD2       -0.7630   34.2460   -9.7760 C.ar   38  TYR38      -0.0009
     43  CE1       -0.7560   35.0740  -12.4020 C.ar   38  TYR38       0.0417
     44  CE2       -1.8290   33.9200  -10.5820 C.ar   38  TYR38       0.0417
     45  CZ        -1.8380   34.3370  -11.8940 C.ar   38  TYR38       0.1957
     46  OH        -2.9110   34.0060  -12.7050 O.3    38  TYR38      -0.2866
     47  N          2.4860   34.3710   -4.4720 N.3    41  ILE41      -0.1245
     48  CA         3.0880   33.0320   -4.4960 C.3    41  ILE41       0.1561
     49  C          4.5840   32.9900   -4.2020 C.2    41  ILE41       0.2260
     50  O          5.1730   31.9010   -4.2500 O.2    41  ILE41      -0.2867
     51  CB         2.8450   32.2870   -5.8460 C.3    41  ILE41       0.0252
     52  CG1        3.7330   32.8220   -6.9840 C.3    41  ILE41       0.0019
     53  CG2        1.3850   32.3740   -6.1850 C.3    41  ILE41       0.0019
     54  CD1        3.7370   31.9470   -8.2100 C.3    41  ILE41       0.0001
     55  N         12.3140   32.0270  -14.6540 N.3   140  TRP140     -0.1241
     56  CA        11.3050   32.8440  -15.2620 C.3   140  TRP140      0.1605
     57  C         11.9180   33.8520  -16.2710 C.2   140  TRP140      0.2264
     58  O         11.5620   35.0600  -16.3380 O.2   140  TRP140     -0.2867
     59  CB        10.4100   33.4770  -14.1810 C.3   140  TRP140      0.0550
     60  CG         9.3340   32.5410  -13.7700 C.ar  140  TRP140      0.0003
     61  CD1        8.6260   31.7080  -14.5690 C.ar  140  TRP140      0.0946
     62  CD2        8.8390   32.3330  -12.4460 C.ar  140  TRP140      0.0152
     63  NE1        7.7220   30.9830  -13.8380 N.ar  140  TRP140     -0.2442
     64  CE2        7.8150   31.3720  -12.5330 C.ar  140  TRP140      0.0810
     65  CE3        9.0940   32.9120  -11.1960 C.ar  140  TRP140      0.0012
     66  CZ2        7.1150   30.9180  -11.4190 C.ar  140  TRP140      0.0191
     67  CZ3        8.3530   32.4690  -10.0860 C.ar  140  TRP140      0.0001
     68  CH2        7.3850   31.4780  -10.2180 C.ar  140  TRP140      0.0015
     69  N         12.3790   34.1700  -22.8580 N.3   144  HIS144     -0.1241
     70  CA        12.8100   35.3800  -23.5610 C.3   144  HIS144      0.1621
     71  C         13.9560   35.1850  -24.4990 C.2   144  HIS144      0.2264
     72  O         14.3030   36.1330  -25.1960 O.2   144  HIS144     -0.2867
     73  CB        13.1280   36.5110  -22.5680 C.3   144  HIS144      0.0745
     74  CG        11.9080   37.1740  -22.0980 C.ar  144  HIS144      0.0817
     75  ND1       11.0750   37.8510  -22.9460 N.ar  144  HIS144     -0.2268
     76  CD2       11.3380   37.2340  -20.8780 C.ar  144  HIS144      0.1154
     77  CE1       10.0470   38.3310  -22.2720 C.ar  144  HIS144      0.1986
     78  NE2       10.2010   37.9870  -21.0090 N.ar  144  HIS144     -0.2212
     79  N          8.1660   28.3630  -16.4930 N.3   172  ASN172     -0.1240
     80  CA         6.9210   27.9350  -17.0460 C.3   172  ASN172      0.1653
     81  C          7.1550   26.8970  -18.1470 C.2   172  ASN172      0.2266
     82  O          8.1260   27.0590  -18.9590 O.2   172  ASN172     -0.2867
     83  CB         6.2230   29.0990  -17.7380 C.3   172  ASN172      0.1155
     84  CG         5.8440   30.2130  -16.7760 C.2   172  ASN172      0.2627
     85  OD1        5.6410   29.9770  -15.5680 O.2   172  ASN172     -0.2716
     86  ND2        5.7040   31.4110  -17.3320 N.am  172  ASN172     -0.0877
     87  N          3.7380   34.2440  -26.4560 N.3   181  ASP181     -0.1239
     88  CA         3.0010   35.3290  -25.7920 C.3   181  ASP181      0.1674
     89  C          3.4750   36.6570  -26.4680 C.2   181  ASP181      0.2266
     90  O          4.6000   37.1170  -26.2160 O.2   181  ASP181     -0.2867
     91  CB         3.2870   35.3290  -24.2950 C.3   181  ASP181      0.1410
     92  CG         2.4910   36.4680  -23.5000 C.2   181  ASP181      0.3668
     93  OD1        2.1860   37.5060  -24.0860 O.co2 181  ASP181     -0.2456
     94  OD2        2.2650   36.2350  -22.2900 O.co2 181  ASP181     -0.2456
     95  N          4.1140   40.0920  -23.7490 N.3   184  ASP184     -0.1239
     96  CA         5.4430   40.2550  -23.1050 C.3   184  ASP184      0.1674
     97  C          6.6130   39.8440  -24.0170 C.2   184  ASP184      0.2266
     98  O          7.7740   40.0520  -23.6810 O.2   184  ASP184     -0.2867
     99  CB         5.5400   39.6310  -21.7070 C.3   184  ASP184      0.1410
    100  CG         5.5630   38.1300  -21.6890 C.2   184  ASP184      0.3668
    101  OD1        5.4790   37.4920  -22.7630 O.co2 184  ASP184     -0.2456
    102  OD2        5.6370   37.6020  -20.5450 O.co2 184  ASP184     -0.2456
    103  N          7.5770   36.5940  -25.3850 N.3   186  SER186     -0.1217
    104  CA         8.2460   35.4310  -24.7780 C.3   186  SER186      0.1889
    105  C          7.5740   34.1640  -25.3580 C.2   186  SER186      0.2288
    106  O          6.4730   34.2290  -25.9420 O.2   186  SER186     -0.2866
    107  CB         8.1320   35.3880  -23.2490 C.3   186  SER186      0.2089
    108  OG         6.7960   35.1970  -22.8270 O.3   186  SER186     -0.2183
    109  N          6.6900   29.8780  -24.2400 N.3   188  CYS188     -0.1235
    110  CA         6.5390   28.8550  -23.2290 C.3   188  CYS188      0.1677
    111  C          6.7450   27.5480  -24.0210 C.2   188  CYS188      0.2270
    112  O          5.9980   27.3250  -24.9700 O.2   188  CYS188     -0.2867
    113  CB         5.0430   28.9200  -22.6260 C.3   188  CYS188      0.0956
    114  SG         5.0130   27.8630  -21.2480 S.3   188  CYS188     -0.0801
    115  N         -4.7410   28.0220  -12.5670 N.3   217  GLU217     -0.1231
    116  CA        -4.9270   28.6500  -13.8620 C.3   217  GLU217      0.1699
    117  C         -3.6630   28.9700  -14.6220 C.2   217  GLU217      0.2592
    118  O         -3.7370   29.3430  -15.8040 O.2   217  GLU217     -0.2718
    119  CB        -5.8080   29.8750  -13.7510 C.3   217  GLU217      0.0402
    120  CG        -5.0750   31.0990  -13.2300 C.3   217  GLU217      0.1161
    121  CD        -5.1710   31.3090  -11.7510 C.2   217  GLU217      0.3649
    122  OE1       -4.7310   32.4520  -11.3920 O.co2 217  GLU217     -0.2457
    123  OE2       -5.7140   30.4250  -10.9810 O.co2 217  GLU217     -0.2457
    124  N         -2.5080   28.8740  -13.9440 N.am  218  ILE218     -0.1966
    125  CA        -1.2420   29.2690  -14.5500 C.3   218  ILE218      0.1727
    126  C         -0.5250   28.0890  -15.1830 C.2   218  ILE218      0.2616
    127  O         -0.7870   26.9540  -14.8550 O.2   218  ILE218     -0.2715
    128  CB        -0.3080   30.0210  -13.5790 C.3   218  ILE218      0.0290
    129  CG1        0.2010   29.1520  -12.4310 C.3   218  ILE218      0.0022
    130  CG2       -0.9890   31.2840  -13.0320 C.3   218  ILE218      0.0023
    131  CD1        1.2670   29.8670  -11.5840 C.3   218  ILE218      0.0001
    132  N          0.4120   28.3870  -16.0620 N.am  219  TYR219     -0.1974
    133  CA         1.2720   27.3470  -16.6380 C.3   219  TYR219      0.1639
    134  C          1.9700   26.5730  -15.5130 C.2   219  TYR219      0.2290
    135  O          2.3940   27.1440  -14.4870 O.2   219  TYR219     -0.2864
    136  CB         2.3160   27.9190  -17.5660 C.3   219  TYR219      0.0560
    137  CG         1.7640   28.3700  -18.9030 C.ar  219  TYR219     -0.0198
    138  CD1        1.3990   27.4440  -19.8450 C.ar  219  TYR219     -0.0009
    139  CD2        1.6430   29.7150  -19.2090 C.ar  219  TYR219     -0.0009
    140  CE1        0.8570   27.8320  -21.0730 C.ar  219  TYR219      0.0417
    141  CE2        1.1040   30.1470  -20.4330 C.ar  219  TYR219      0.0417
    142  CZ         0.7220   29.2110  -21.3700 C.ar  219  TYR219      0.1957
    143  OH         0.1350   29.5940  -22.5710 O.3   219  TYR219     -0.2866
@<TRIPOS>BOND
     1    89    90    2
     2    89    88    1
     3    87    88    1
     4   106   105    2
     5    88    91    1
     6   103   104    1
     7   105   104    1
     8    72    71    2
     9   112   111    2
    10   104   107    1
    11    71    70    1
    12    91    92    1
    13   109   110    1
    14    93    92   ar
    15   111   110    1
    16    97    98    2
    17    97    96    1
    18    95    96    1
    19    70    69    1
    20    70    73    1
    21    92    94   ar
    22   107   108    1
    23   110   113    1
    24    96    99    1
    25    75    77   ar
    26    75    74   ar
    27   101   100   ar
    28   113   114    1
    29   143   142    1
    30    73    74    1
    31    77    78   ar
    32    74    76   ar
    33    99   100    1
    34   100   102   ar
    35   142   140   ar
    36   142   141   ar
    37   140   138   ar
    38    78    76   ar
    39   141   139   ar
    40     1     2    1
    41     7     9   ar
    42     7     6   ar
    43   138   137   ar
    44     9    10   ar
    45   139   137   ar
    46    82    81    2
    47   137   136    1
    48     2     5    1
    49     2     3    1
    50     6     5    1
    51     6     8   ar
    52     3     4    2
    53    10     8   ar
    54    10    12   ar
    55    81    80    1
    56     8    11   ar
    57    83    80    1
    58    83    84    1
    59    12    14   ar
    60   136   133    1
    61    86    84   am
    62    80    79    1
    63    84    85    2
    64   133   132    1
    65   133   134    1
    66    11    13   ar
    67    14    13   ar
    68    58    57    2
    69    57    56    1
    70   132   126   am
    71   118   117    2
    72   134   135    2
    73    56    55    1
    74    56    59    1
    75   126   127    2
    76   126   125    1
    77   117   124   am
    78   117   116    1
    79    61    63   ar
    80    61    60   ar
    81   125   124    1
    82   125   128    1
    83    59    60    1
    84   116   119    1
    85   116   115    1
    86    63    64   ar
    87    60    62   ar
    88   119   120    1
    89   128   130    1
    90   128   129    1
    91   120   121    1
    92    32    33    1
    93    32    31    1
    94    34    33    2
    95    46    45    1
    96    64    62   ar
    97    64    66   ar
    98    62    65   ar
    99   129   131    1
   100    43    45   ar
   101    43    41   ar
   102    18    17    2
   103    31    25   am
   104    45    44   ar
   105   121   122   ar
   106   121   123   ar
   107    41    40   ar
   108    22    21    1
   109    25    26    2
   110    25    24    1
   111    66    68   ar
   112    17    16    1
   113    17    23   am
   114    65    67   ar
   115    16    15    1
   116    16    19    1
   117    21    20    1
   118    24    23    1
   119    24    27    1
   120    44    42   ar
   121    40    42   ar
   122    40    39    1
   123    68    67   ar
   124    19    20    1
   125    35    36    1
   126    30    28    1
   127    39    36    1
   128    27    28    1
   129    28    29    1
   130    36    37    1
   131    54    52    1
   132    37    38    2
   133    52    51    1
   134    53    51    1
   135    51    48    1
   136    48    47    1
   137    48    49    1
   138    50    49    2
