@<TRIPOS>MOLECULE
tmp/5e2bA00.pdb
 126 119 0 0 0
SMALL
GASTEIGER

@<TRIPOS>ATOM
      1  N          7.7940   41.5350  -10.9190 N.3    34  MET34      -0.1230
      2  CA         8.6110   40.3740  -11.2190 C.3    34  MET34       0.1702
      3  C          7.7340   39.1440  -11.4720 C.2    34  MET34       0.2592
      4  O          8.0480   38.3460  -12.3410 O.2    34  MET34      -0.2718
      5  CB         9.5740   40.0200  -10.0510 C.3    34  MET34       0.0401
      6  CG        10.5710   41.1210   -9.6730 C.3    34  MET34       0.0596
      7  SD        11.5680   41.7910  -11.0010 S.3    34  MET34      -0.1393
      8  CE        10.5960   43.1790  -11.5580 C.3    34  MET34       0.0692
      9  N          6.6370   39.0050  -10.7170 N.am   35  LEU35      -0.1966
     10  CA         5.8080   37.8040  -10.7750 C.3    35  LEU35       0.1728
     11  C          4.4860   38.0200  -11.5030 C.2    35  LEU35       0.2616
     12  O          3.5640   37.2370  -11.4070 O.2    35  LEU35      -0.2715
     13  CB         5.6090   37.2170   -9.3730 C.3    35  LEU35       0.0311
     14  CG         6.9010   36.7510   -8.6900 C.3    35  LEU35       0.0022
     15  CD1        6.5990   36.1050   -7.2990 C.3    35  LEU35       0.0001
     16  CD2        7.7290   35.8420   -9.5660 C.3    35  LEU35       0.0001
     17  N          4.4040   39.0530  -12.3260 N.am   36  GLY36      -0.1955
     18  CA         3.2500   39.1880  -13.1710 C.3    36  GLY36       0.1869
     19  C          1.8900   39.2200  -12.4580 C.2    36  GLY36       0.2309
     20  O          0.9200   38.6930  -12.9930 O.2    36  GLY36      -0.2863
     21  N          1.3890   37.8670   -9.5590 N.3    38  TYR38      -0.1241
     22  CA         1.3630   36.7260   -8.6380 C.3    38  TYR38       0.1605
     23  C          2.3940   36.8900   -7.5110 C.2    38  TYR38       0.2264
     24  O          2.9720   35.8980   -6.9970 O.2    38  TYR38      -0.2867
     25  CB         1.5930   35.4010   -9.4190 C.3    38  TYR38       0.0534
     26  CG         0.4330   35.0120  -10.2870 C.ar   38  TYR38      -0.0201
     27  CD1       -0.6460   34.2950   -9.7860 C.ar   38  TYR38      -0.0009
     28  CD2        0.4060   35.3810  -11.6070 C.ar   38  TYR38      -0.0009
     29  CE1       -1.7360   33.9610  -10.5480 C.ar   38  TYR38       0.0417
     30  CE2       -0.6870   35.0610  -12.4090 C.ar   38  TYR38       0.0417
     31  CZ        -1.7410   34.3450  -11.8950 C.ar   38  TYR38       0.1957
     32  OH        -2.7940   34.0310  -12.7230 O.3    38  TYR38      -0.2866
     33  N          2.5790   34.3720   -4.5130 N.3    41  ILE41      -0.1245
     34  CA         3.1730   33.0410   -4.5630 C.3    41  ILE41       0.1561
     35  C          4.6560   33.0090   -4.2330 C.2    41  ILE41       0.2260
     36  O          5.2500   31.9350   -4.2420 O.2    41  ILE41      -0.2867
     37  CB         2.9380   32.2970   -5.9270 C.3    41  ILE41       0.0252
     38  CG1        3.8290   32.8010   -7.0750 C.3    41  ILE41       0.0019
     39  CG2        1.4810   32.3850   -6.2820 C.3    41  ILE41       0.0019
     40  CD1        3.9910   31.8570   -8.2850 C.3    41  ILE41       0.0001
     41  N         12.3870   32.0550  -14.6740 N.3   140  TRP140     -0.1241
     42  CA        11.3380   32.8610  -15.2360 C.3   140  TRP140      0.1605
     43  C         11.9330   33.8880  -16.2490 C.2   140  TRP140      0.2264
     44  O         11.5840   35.0940  -16.2710 O.2   140  TRP140     -0.2867
     45  CB        10.4660   33.4900  -14.1290 C.3   140  TRP140      0.0550
     46  CG         9.3770   32.5680  -13.6930 C.ar  140  TRP140      0.0003
     47  CD1        8.6650   31.7440  -14.4850 C.ar  140  TRP140      0.0946
     48  CD2        8.8910   32.3480  -12.3680 C.ar  140  TRP140      0.0152
     49  NE1        7.7750   31.0210  -13.7710 N.ar  140  TRP140     -0.2442
     50  CE2        7.8710   31.3710  -12.4600 C.ar  140  TRP140      0.0810
     51  CE3        9.1560   32.9130  -11.1190 C.ar  140  TRP140      0.0012
     52  CZ2        7.1720   30.9090  -11.3660 C.ar  140  TRP140      0.0191
     53  CZ3        8.4350   32.4520  -10.0180 C.ar  140  TRP140      0.0001
     54  CH2        7.4680   31.4390  -10.1450 C.ar  140  TRP140      0.0015
     55  N          8.2090   28.3250  -16.4740 N.3   172  ASN172     -0.1240
     56  CA         6.9650   27.9270  -17.0580 C.3   172  ASN172      0.1653
     57  C          7.1940   26.9200  -18.1650 C.2   172  ASN172      0.2266
     58  O          8.1380   27.0690  -18.9550 O.2   172  ASN172     -0.2867
     59  CB         6.2590   29.0920  -17.7410 C.3   172  ASN172      0.1155
     60  CG         5.8800   30.2230  -16.7880 C.2   172  ASN172      0.2627
     61  OD1        5.7130   30.0230  -15.5800 O.2   172  ASN172     -0.2716
     62  ND2        5.7960   31.4300  -17.3330 N.am  172  ASN172     -0.0877
     63  N          3.7440   34.2920  -26.3730 N.3   181  ASP181     -0.1239
     64  CA         3.0410   35.3990  -25.7010 C.3   181  ASP181      0.1674
     65  C          3.4800   36.7470  -26.3610 C.2   181  ASP181      0.2266
     66  O          4.6070   37.2330  -26.1210 O.2   181  ASP181     -0.2867
     67  CB         3.3190   35.3900  -24.1930 C.3   181  ASP181      0.1410
     68  CG         2.4970   36.5200  -23.4190 C.2   181  ASP181      0.3668
     69  OD1        2.1200   37.5050  -24.0640 O.co2 181  ASP181     -0.2456
     70  OD2        2.3590   36.3470  -22.2030 O.co2 181  ASP181     -0.2456
     71  N          4.1520   40.1400  -23.6390 N.3   184  ASP184     -0.1239
     72  CA         5.4700   40.3150  -23.0650 C.3   184  ASP184      0.1674
     73  C          6.6750   39.8970  -23.9750 C.2   184  ASP184      0.2266
     74  O          7.8340   40.1430  -23.6250 O.2   184  ASP184     -0.2867
     75  CB         5.5900   39.7310  -21.6500 C.3   184  ASP184      0.1410
     76  CG         5.6110   38.2330  -21.6050 C.2   184  ASP184      0.3668
     77  OD1        5.5850   37.5910  -22.6780 O.co2 184  ASP184     -0.2456
     78  OD2        5.5740   37.7200  -20.4660 O.co2 184  ASP184     -0.2456
     79  N          7.6310   36.6920  -25.2960 N.3   186  SER186     -0.1217
     80  CA         8.2770   35.4900  -24.7490 C.3   186  SER186      0.1889
     81  C          7.5730   34.2380  -25.2780 C.2   186  SER186      0.2288
     82  O          6.4590   34.3250  -25.8340 O.2   186  SER186     -0.2866
     83  CB         8.2310   35.4280  -23.2090 C.3   186  SER186      0.2089
     84  OG         6.9220   35.2780  -22.6800 O.3   186  SER186     -0.2183
     85  N          6.7330   29.9680  -24.2490 N.3   188  CYS188     -0.1235
     86  CA         6.5820   28.9520  -23.2490 C.3   188  CYS188      0.1677
     87  C          6.7850   27.6390  -24.0120 C.2   188  CYS188      0.2270
     88  O          6.0540   27.3910  -24.9710 O.2   188  CYS188     -0.2867
     89  CB         5.1180   29.0100  -22.6540 C.3   188  CYS188      0.0956
     90  SG         5.0890   27.9560  -21.2360 S.3   188  CYS188     -0.0801
     91  N         -4.7280   28.0860  -12.6710 N.3   217  GLU217     -0.1231
     92  CA        -4.8790   28.6850  -13.9850 C.3   217  GLU217      0.1699
     93  C         -3.5940   28.9930  -14.7130 C.2   217  GLU217      0.2592
     94  O         -3.6540   29.3650  -15.8790 O.2   217  GLU217     -0.2718
     95  CB        -5.7620   29.9330  -13.8900 C.3   217  GLU217      0.0402
     96  CG        -5.0460   31.1540  -13.3620 C.3   217  GLU217      0.1161
     97  CD        -5.0980   31.3490  -11.8550 C.2   217  GLU217      0.3649
     98  OE1       -4.5130   32.4200  -11.4660 O.co2 217  GLU217     -0.2457
     99  OE2       -5.6560   30.4930  -11.0870 O.co2 217  GLU217     -0.2457
    100  N         -2.4470   28.8670  -14.0300 N.am  218  ILE218     -0.1966
    101  CA        -1.1850   29.2400  -14.6320 C.3   218  ILE218      0.1727
    102  C         -0.4540   28.0560  -15.2470 C.2   218  ILE218      0.2616
    103  O         -0.7410   26.9280  -14.9200 O.2   218  ILE218     -0.2715
    104  CB        -0.2640   30.0250  -13.6680 C.3   218  ILE218      0.0290
    105  CG1        0.2750   29.1750  -12.5350 C.3   218  ILE218      0.0022
    106  CG2       -0.9670   31.2910  -13.1600 C.3   218  ILE218      0.0023
    107  CD1        1.3450   29.8810  -11.7060 C.3   218  ILE218      0.0001
    108  N          0.4980   28.3470  -16.1290 N.am  219  TYR219     -0.1974
    109  CA         1.3470   27.3130  -16.7150 C.3   219  TYR219      0.1639
    110  C          2.0380   26.5520  -15.5650 C.2   219  TYR219      0.2290
    111  O          2.4510   27.1440  -14.5610 O.2   219  TYR219     -0.2864
    112  CB         2.4290   27.8930  -17.6330 C.3   219  TYR219      0.0560
    113  CG         1.8950   28.3690  -18.9800 C.ar  219  TYR219     -0.0198
    114  CD1        1.5220   27.4630  -19.9640 C.ar  219  TYR219     -0.0009
    115  CD2        1.7480   29.7110  -19.2540 C.ar  219  TYR219     -0.0009
    116  CE1        1.0310   27.8720  -21.2140 C.ar  219  TYR219      0.0417
    117  CE2        1.2320   30.1470  -20.4840 C.ar  219  TYR219      0.0417
    118  CZ         0.8920   29.2270  -21.4730 C.ar  219  TYR219      0.1957
    119  OH         0.3200   29.6520  -22.6730 O.3   219  TYR219     -0.2866
    120  N          5.0610   24.8150  -13.6350 N.3   221  VAL221     -0.1245
    121  CA         6.4090   25.3100  -13.4660 C.3   221  VAL221      0.1561
    122  C          7.3020   24.1250  -13.0620 C.2   221  VAL221      0.2260
    123  O          6.9070   23.2980  -12.2300 O.2   221  VAL221     -0.2867
    124  CB         6.4010   26.4100  -12.4010 C.3   221  VAL221      0.0252
    125  CG1        7.8140   26.7820  -11.9780 C.3   221  VAL221      0.0019
    126  CG2        5.6170   27.6680  -12.9050 C.3   221  VAL221      0.0019
@<TRIPOS>BOND
     1    63    64    1
     2    65    66    2
     3    65    64    1
     4    82    81    2
     5    64    67    1
     6    79    80    1
     7    81    80    1
     8    88    87    2
     9    80    83    1
    10    85    86    1
    11    67    68    1
    12    69    68   ar
    13    87    86    1
    14    73    74    2
    15    73    72    1
    16    71    72    1
    17    68    70   ar
    18    86    89    1
    19    83    84    1
    20    72    75    1
    21    77    76   ar
    22   119   118    1
    23    89    90    1
    24    75    76    1
    25    76    78   ar
    26   118   116   ar
    27   118   117   ar
    28   116   114   ar
    29   117   115   ar
    30   114   113   ar
    31   115   113   ar
    32   113   112    1
    33    58    57    2
    34    57    56    1
    35    59    56    1
    36    59    60    1
    37   112   109    1
    38    62    60   am
    39    56    55    1
    40    60    61    2
    41   109   108    1
    42   109   110    1
    43    44    43    2
    44    43    42    1
    45   108   102   am
    46    94    93    2
    47   110   111    2
    48   102   103    2
    49   102   101    1
    50    42    41    1
    51    42    45    1
    52    93   100   am
    53    93    92    1
    54   101   100    1
    55   101   104    1
    56    47    49   ar
    57    47    46   ar
    58    45    46    1
    59    92    95    1
    60    92    91    1
    61    95    96    1
    62    49    50   ar
    63    46    48   ar
    64   104   106    1
    65   104   105    1
    66   120   121    1
    67   121   122    1
    68   121   124    1
    69    96    97    1
    70    18    19    1
    71    18    17    1
    72   122   123    2
    73    20    19    2
    74   126   124    1
    75    32    31    1
    76   105   107    1
    77    50    48   ar
    78    50    52   ar
    79    30    31   ar
    80    30    28   ar
    81   124   125    1
    82    48    51   ar
    83     4     3    2
    84    17    11   am
    85    31    29   ar
    86    97    98   ar
    87    97    99   ar
    88    28    26   ar
    89     8     7    1
    90    11    12    2
    91    11    10    1
    92     3     2    1
    93     3     9   am
    94    52    54   ar
    95     2     1    1
    96     2     5    1
    97    51    53   ar
    98     7     6    1
    99    10     9    1
   100    10    13    1
   101    29    27   ar
   102    26    27   ar
   103    26    25    1
   104    54    53   ar
   105     5     6    1
   106    16    14    1
   107    21    22    1
   108    25    22    1
   109    13    14    1
   110    14    15    1
   111    22    23    1
   112    40    38    1
   113    23    24    2
   114    38    37    1
   115    39    37    1
   116    37    34    1
   117    34    33    1
   118    34    35    1
   119    36    35    2
