@<TRIPOS>MOLECULE
tmp/5e2iA00.pdb
 86 84 0 0 0
SMALL
GASTEIGER

@<TRIPOS>ATOM
      1  N         64.7670   37.0350  178.7210 N.3    81  TRP81      -0.1241
      2  CA        63.5980   36.5870  177.9610 C.3    81  TRP81       0.1605
      3  C         62.4290   37.5680  178.0270 C.2    81  TRP81       0.2264
      4  O         61.4990   37.4680  177.2390 O.2    81  TRP81      -0.2867
      5  CB        63.1450   35.2110  178.4420 C.3    81  TRP81       0.0550
      6  CG        64.2400   34.2040  178.4210 C.ar   81  TRP81       0.0003
      7  CD1       64.9660   33.7570  179.4920 C.ar   81  TRP81       0.0946
      8  CD2       64.7730   33.5420  177.2740 C.ar   81  TRP81       0.0152
      9  NE1       65.9040   32.8430  179.0810 N.ar   81  TRP81      -0.2442
     10  CE2       65.8010   32.6870  177.7240 C.ar   81  TRP81       0.0810
     11  CE3       64.4750   33.5800  175.9110 C.ar   81  TRP81       0.0012
     12  CZ2       66.5380   31.8760  176.8540 C.ar   81  TRP81       0.0191
     13  CZ3       65.1980   32.7690  175.0460 C.ar   81  TRP81       0.0001
     14  CH2       66.2260   31.9320  175.5240 C.ar   81  TRP81       0.0015
     15  N         59.4730   31.7810  170.4890 N.3   114  GLY114     -0.1210
     16  CA        58.6250   31.0250  171.3930 C.3   114  GLY114      0.1956
     17  C         58.2680   31.8340  172.6230 C.2   114  GLY114      0.2612
     18  O         58.4500   33.0560  172.6620 O.2   114  GLY114     -0.2717
     19  N         57.7770   31.1280  173.6360 N.am  115  GLY115     -0.1942
     20  CA        57.3600   31.7220  174.9020 C.3   115  GLY115      0.2014
     21  C         55.9770   31.2370  175.3000 C.2   115  GLY115      0.2639
     22  O         55.1640   32.0250  175.7900 O.2   115  GLY115     -0.2714
     23  N         55.7050   29.9450  175.0760 N.am  116  GLY116     -0.1954
     24  CA        54.4480   29.3040  175.4800 C.3   116  GLY116      0.1869
     25  C         53.1560   29.8480  174.8810 C.2   116  GLY116      0.2309
     26  O         52.0640   29.5520  175.3840 O.2   116  GLY116     -0.2863
     27  N         68.0630   37.1130  169.9730 N.3   127  TYR127     -0.1241
     28  CA        67.4640   36.9010  168.6460 C.3   127  TYR127      0.1605
     29  C         67.9820   37.8940  167.5820 C.2   127  TYR127      0.2264
     30  O         67.4620   37.9260  166.4590 O.2   127  TYR127     -0.2867
     31  CB        65.9350   37.0210  168.6940 C.3   127  TYR127      0.0534
     32  CG        65.1610   36.0930  169.6240 C.ar  127  TYR127     -0.0201
     33  CD1       65.6410   34.8340  170.0010 C.ar  127  TYR127     -0.0009
     34  CD2       63.8980   36.4730  170.0780 C.ar  127  TYR127     -0.0009
     35  CE1       64.8940   34.0120  170.8400 C.ar  127  TYR127      0.0417
     36  CE2       63.1440   35.6590  170.9060 C.ar  127  TYR127      0.0417
     37  CZ        63.6370   34.4350  171.2930 C.ar  127  TYR127      0.1957
     38  OH        62.8590   33.6480  172.1200 O.3   127  TYR127     -0.2866
     39  N         61.7760   28.2550  168.0610 N.3   196  GLU196     -0.1231
     40  CA        62.0280   27.4300  169.2450 C.3   196  GLU196      0.1699
     41  C         60.7670   27.2810  170.0860 C.2   196  GLU196      0.2592
     42  O         59.9910   28.2270  170.2080 O.2   196  GLU196     -0.2718
     43  CB        63.1540   28.0450  170.0680 C.3   196  GLU196      0.0402
     44  CG        63.7990   27.1170  171.0850 C.3   196  GLU196      0.1161
     45  CD        63.2570   27.2820  172.4940 C.2   196  GLU196      0.3649
     46  OE1       62.4820   28.2320  172.7350 O.co2 196  GLU196     -0.2457
     47  OE2       63.6270   26.4570  173.3640 O.co2 196  GLU196     -0.2457
     48  N         60.5580   26.0790  170.6300 N.am  197  SER197     -0.1952
     49  CA        59.4630   25.8040  171.5640 C.3   197  SER197      0.1924
     50  C         58.1370   26.1620  170.8850 C.2   197  SER197      0.2314
     51  O         57.8340   25.5990  169.8280 O.2   197  SER197     -0.2863
     52  CB        59.7170   26.5340  172.8960 C.3   197  SER197      0.2116
     53  OG        58.8500   26.1020  173.9360 O.3   197  SER197     -0.2180
     54  N         63.2660   24.0020  183.4820 N.3   327  PHE327     -0.1241
     55  CA        62.6600   25.3300  183.6720 C.3   327  PHE327      0.1605
     56  C         61.3100   25.2730  184.3480 C.2   327  PHE327      0.2264
     57  O         61.0060   26.0680  185.2300 O.2   327  PHE327     -0.2867
     58  CB        62.4640   26.0530  182.3430 C.3   327  PHE327      0.0534
     59  CG        63.3190   27.2650  182.1790 C.ar  327  PHE327     -0.0203
     60  CD1       63.3100   28.2670  183.1330 C.ar  327  PHE327     -0.0042
     61  CD2       64.0970   27.4330  181.0420 C.ar  327  PHE327     -0.0042
     62  CE1       64.0960   29.3960  182.9870 C.ar  327  PHE327     -0.0003
     63  CE2       64.8830   28.5650  180.8790 C.ar  327  PHE327     -0.0003
     64  CZ        64.8820   29.5480  181.8560 C.ar  327  PHE327     -0.0000
     65  N         66.2440   24.2220  178.3480 N.3   437  HIS437     -0.1226
     66  CA        65.2700   24.7650  177.4160 C.3   437  HIS437      0.1752
     67  C         65.6230   26.2060  177.0110 C.2   437  HIS437      0.2596
     68  O         65.6710   27.1030  177.8560 O.2   437  HIS437     -0.2718
     69  CB        63.9080   24.7210  178.1000 C.3   437  HIS437      0.0759
     70  CG        62.7800   25.2130  177.2570 C.ar  437  HIS437      0.0818
     71  ND1       62.2240   24.4590  176.2490 N.ar  437  HIS437     -0.2268
     72  CD2       62.0760   26.3670  177.2990 C.ar  437  HIS437      0.1154
     73  CE1       61.2340   25.1350  175.6950 C.ar  437  HIS437      0.1986
     74  NE2       61.1240   26.2980  176.3150 N.ar  437  HIS437     -0.2212
     75  N         65.9080   26.4040  175.7260 N.am  438  GLY438     -0.1957
     76  CA        66.1510   27.7330  175.1780 C.3   438  GLY438      0.1869
     77  C         67.6070   28.1180  174.9780 C.2   438  GLY438      0.2309
     78  O         67.8870   29.1480  174.3720 O.2   438  GLY438     -0.2863
     79  N         69.5900   28.4240  171.3820 N.3   441  ILE441     -0.1245
     80  CA        69.2720   29.5700  170.5410 C.3   441  ILE441      0.1561
     81  C         70.4880   30.4810  170.3900 C.2   441  ILE441      0.2260
     82  O         70.8330   30.8830  169.2820 O.2   441  ILE441     -0.2867
     83  CB        68.0860   30.3820  171.0970 C.3   441  ILE441      0.0252
     84  CG1       66.7970   29.5610  171.0620 C.3   441  ILE441      0.0019
     85  CG2       67.8740   31.6440  170.2880 C.3   441  ILE441      0.0019
     86  CD1       65.6210   30.2100  171.7660 C.3   441  ILE441      0.0001
@<TRIPOS>BOND
     1    30    29    2
     2    29    28    1
     3    39    40    1
     4    28    31    1
     5    28    27    1
     6    31    32    1
     7    40    43    1
     8    40    41    1
     9    82    81    2
    10    32    33   ar
    11    32    34   ar
    12    51    50    2
    13    33    35   ar
    14    43    44    1
    15    34    36   ar
    16    41    42    2
    17    41    48   am
    18    85    83    1
    19    81    80    1
    20    15    16    1
    21    80    83    1
    22    80    79    1
    23    48    49    1
    24    35    37   ar
    25    50    49    1
    26    36    37   ar
    27    84    83    1
    28    84    86    1
    29    44    45    1
    30    37    38    1
    31    16    17    1
    32    49    52    1
    33    45    46   ar
    34    45    47   ar
    35    17    18    2
    36    17    19   am
    37    52    53    1
    38    19    20    1
    39    78    77    2
    40    25    26    2
    41    25    24    1
    42    20    21    1
    43    77    76    1
    44    13    14   ar
    45    13    11   ar
    46    23    21   am
    47    23    24    1
    48    76    75    1
    49    21    22    2
    50    14    12   ar
    51    73    71   ar
    52    73    74   ar
    53    75    67   am
    54    11     8   ar
    55    71    70   ar
    56    74    72   ar
    57    12    10   ar
    58    67    66    1
    59    67    68    2
    60     4     3    2
    61    70    72   ar
    62    70    69    1
    63     8    10   ar
    64     8     6   ar
    65    66    69    1
    66    66    65    1
    67    10     9   ar
    68     2     3    1
    69     2     5    1
    70     2     1    1
    71     6     5    1
    72     6     7   ar
    73     9     7   ar
    74    63    61   ar
    75    63    64   ar
    76    61    59   ar
    77    64    62   ar
    78    59    58    1
    79    59    60   ar
    80    58    55    1
    81    62    60   ar
    82    54    55    1
    83    55    56    1
    84    56    57    2
