@<TRIPOS>MOLECULE
tmp/5e2iA02.pdb
 155 155 0 0 0
SMALL
GASTEIGER

@<TRIPOS>ATOM
      1  N         52.3650   38.6860  179.7730 N.3    67  TYR67      -0.1241
      2  CA        52.8560   38.4140  181.1130 C.3    67  TYR67       0.1605
      3  C         54.3630   38.6180  181.1490 C.2    67  TYR67       0.2264
      4  O         55.0610   38.1870  180.2450 O.2    67  TYR67      -0.2867
      5  CB        52.5370   36.9730  181.4950 C.3    67  TYR67       0.0534
      6  CG        53.1180   36.5450  182.8140 C.ar   67  TYR67      -0.0201
      7  CD1       52.5190   36.9230  184.0080 C.ar   67  TYR67      -0.0009
      8  CD2       54.2580   35.7450  182.8710 C.ar   67  TYR67      -0.0009
      9  CE1       53.0410   36.5310  185.2230 C.ar   67  TYR67       0.0417
     10  CE2       54.7870   35.3490  184.0860 C.ar   67  TYR67       0.0417
     11  CZ        54.1720   35.7440  185.2580 C.ar   67  TYR67       0.1957
     12  OH        54.6850   35.3640  186.4740 O.3    67  TYR67      -0.2866
     13  N         57.6650   37.7690  183.3880 N.3    69  ASP69      -0.1239
     14  CA        58.2700   36.9670  184.4510 C.3    69  ASP69       0.1674
     15  C         59.0610   37.8580  185.4160 C.2    69  ASP69       0.2266
     16  O         60.1140   38.3800  185.0600 O.2    69  ASP69      -0.2867
     17  CB        59.1890   35.9100  183.8290 C.3    69  ASP69       0.1410
     18  CG        59.9190   35.0690  184.8610 C.2    69  ASP69       0.3668
     19  OD1       59.5070   35.0410  186.0370 O.co2  69  ASP69      -0.2456
     20  OD2       60.9140   34.4210  184.4870 O.co2  69  ASP69      -0.2456
     21  N         59.7350   36.4750  188.5300 N.3    71  GLN71      -0.1245
     22  CA        60.1000   35.4930  189.5430 C.3    71  GLN71       0.1566
     23  C         61.4870   35.7340  190.1330 C.2    71  GLN71       0.2260
     24  O         61.7080   35.4590  191.3080 O.2    71  GLN71      -0.2867
     25  CB        60.0040   34.0710  188.9890 C.3    71  GLN71       0.0367
     26  CG        58.8390   33.2930  189.5710 C.3    71  GLN71       0.0905
     27  CD        59.1880   32.7380  190.9240 C.2    71  GLN71       0.2608
     28  OE1       58.9270   33.3510  191.9520 O.2    71  GLN71      -0.2717
     29  NE2       59.8380   31.5880  190.9240 N.am   71  GLN71      -0.0878
     30  N         66.6440   35.0820  183.6820 N.3    78  SER78      -0.1217
     31  CA        65.2160   35.1680  183.4070 C.3    78  SER78       0.1889
     32  C         64.8640   36.4350  182.6430 C.2    78  SER78       0.2288
     33  O         64.0140   36.4100  181.7470 O.2    78  SER78      -0.2866
     34  CB        64.4090   35.0910  184.7140 C.3    78  SER78       0.2089
     35  OG        64.7850   36.1050  185.6340 O.3    78  SER78      -0.2183
     36  N         64.7670   37.0350  178.7210 N.3    81  TRP81      -0.1241
     37  CA        63.5980   36.5870  177.9610 C.3    81  TRP81       0.1605
     38  C         62.4290   37.5680  178.0270 C.2    81  TRP81       0.2264
     39  O         61.4990   37.4680  177.2390 O.2    81  TRP81      -0.2867
     40  CB        63.1450   35.2110  178.4420 C.3    81  TRP81       0.0550
     41  CG        64.2400   34.2040  178.4210 C.ar   81  TRP81       0.0003
     42  CD1       64.9660   33.7570  179.4920 C.ar   81  TRP81       0.0946
     43  CD2       64.7730   33.5420  177.2740 C.ar   81  TRP81       0.0152
     44  NE1       65.9040   32.8430  179.0810 N.ar   81  TRP81      -0.2442
     45  CE2       65.8010   32.6870  177.7240 C.ar   81  TRP81       0.0810
     46  CE3       64.4750   33.5800  175.9110 C.ar   81  TRP81       0.0012
     47  CZ2       66.5380   31.8760  176.8540 C.ar   81  TRP81       0.0191
     48  CZ3       65.1980   32.7690  175.0460 C.ar   81  TRP81       0.0001
     49  CH2       66.2260   31.9320  175.5240 C.ar   81  TRP81       0.0015
     50  N         52.2220   32.6450  175.2710 N.3   118  TYR118     -0.1227
     51  CA        51.7930   33.6620  176.2380 C.3   118  TYR118      0.1736
     52  C         52.7970   34.8160  176.3610 C.2   118  TYR118      0.2596
     53  O         52.5140   35.8160  177.0100 O.2   118  TYR118     -0.2718
     54  CB        51.5410   33.0320  177.6230 C.3   118  TYR118      0.0548
     55  CG        52.7860   32.5930  178.3530 C.ar  118  TYR118     -0.0200
     56  CD1       53.5480   33.5030  179.0890 C.ar  118  TYR118     -0.0009
     57  CD2       53.2040   31.2740  178.3120 C.ar  118  TYR118     -0.0009
     58  CE1       54.6980   33.1060  179.7530 C.ar  118  TYR118      0.0417
     59  CE2       54.3520   30.8650  178.9680 C.ar  118  TYR118      0.0417
     60  CZ        55.0970   31.7810  179.6870 C.ar  118  TYR118      0.1957
     61  OH        56.2410   31.3680  180.3410 O.3   118  TYR118     -0.2866
     62  N         53.9650   34.6720  175.7420 N.am  119  SER119     -0.1952
     63  CA        55.0400   35.6620  175.8480 C.3   119  SER119      0.1924
     64  C         55.9560   35.5320  174.6440 C.2   119  SER119      0.2314
     65  O         55.7760   34.6160  173.8340 O.2   119  SER119     -0.2863
     66  CB        55.8460   35.4530  177.1300 C.3   119  SER119      0.2116
     67  OG        56.4510   34.1780  177.1380 O.3   119  SER119     -0.2180
     68  N         46.3120   33.3580  183.9740 N.3   276  TRP276     -0.1227
     69  CA        46.6700   32.0500  184.5040 C.3   276  TRP276      0.1737
     70  C         45.5580   31.3640  185.2880 C.2   276  TRP276      0.2595
     71  O         45.6770   30.1840  185.5740 O.2   276  TRP276     -0.2718
     72  CB        47.9240   32.1660  185.3690 C.3   276  TRP276      0.0564
     73  CG        49.0960   32.5980  184.5610 C.ar  276  TRP276      0.0003
     74  CD1       49.5840   33.8650  184.4310 C.ar  276  TRP276      0.0946
     75  CD2       49.9000   31.7670  183.7210 C.ar  276  TRP276      0.0152
     76  NE1       50.6630   33.8690  183.5750 N.ar  276  TRP276     -0.2442
     77  CE2       50.8730   32.5960  183.1200 C.ar  276  TRP276      0.0810
     78  CE3       49.8990   30.4000  183.4260 C.ar  276  TRP276      0.0012
     79  CZ2       51.8330   32.1050  182.2460 C.ar  276  TRP276      0.0191
     80  CZ3       50.8530   29.9130  182.5580 C.ar  276  TRP276      0.0001
     81  CH2       51.8090   30.7660  181.9720 C.ar  276  TRP276      0.0015
     82  N         44.4740   32.0720  185.6050 N.am  277  ASN277     -0.1974
     83  CA        43.3860   31.4920  186.4050 C.3   277  ASN277      0.1688
     84  C         42.4490   30.5300  185.6660 C.2   277  ASN277      0.2292
     85  O         41.5980   29.9170  186.2900 O.2   277  ASN277     -0.2864
     86  CB        42.5320   32.5960  187.0380 C.3   277  ASN277      0.1181
     87  CG        43.3350   33.5370  187.9110 C.2   277  ASN277      0.2629
     88  OD1       44.5290   33.3330  188.1480 O.2   277  ASN277     -0.2716
     89  ND2       42.6840   34.5850  188.3880 N.am  277  ASN277     -0.0877
     90  N         54.0370   23.2830  182.4530 N.3   285  PHE285     -0.1241
     91  CA        54.1730   23.2390  181.0050 C.3   285  PHE285      0.1605
     92  C         52.8050   23.2910  180.3430 C.2   285  PHE285      0.2264
     93  O         52.5680   22.5960  179.3630 O.2   285  PHE285     -0.2867
     94  CB        54.9360   21.9780  180.5730 C.3   285  PHE285      0.0534
     95  CG        55.8780   22.2010  179.4260 C.ar  285  PHE285     -0.0203
     96  CD1       55.4950   22.9440  178.3080 C.ar  285  PHE285     -0.0042
     97  CD2       57.1630   21.6650  179.4610 C.ar  285  PHE285     -0.0042
     98  CE1       56.3770   23.1470  177.2610 C.ar  285  PHE285     -0.0003
     99  CE2       58.0410   21.8650  178.4090 C.ar  285  PHE285     -0.0003
    100  CZ        57.6440   22.6010  177.3090 C.ar  285  PHE285     -0.0000
    101  N         49.7590   26.2960  179.1920 N.3   287  PHE287     -0.1241
    102  CA        49.5810   27.7150  178.9940 C.3   287  PHE287      0.1605
    103  C         48.1280   27.9510  178.6230 C.2   287  PHE287      0.2264
    104  O         47.4950   27.1110  177.9920 O.2   287  PHE287     -0.2867
    105  CB        50.5560   28.1900  177.9170 C.3   287  PHE287      0.0534
    106  CG        51.9260   27.5540  178.0270 C.ar  287  PHE287     -0.0203
    107  CD1       52.7270   27.7850  179.1520 C.ar  287  PHE287     -0.0042
    108  CD2       52.3990   26.6980  177.0400 C.ar  287  PHE287     -0.0042
    109  CE1       53.9800   27.1940  179.2700 C.ar  287  PHE287     -0.0003
    110  CE2       53.6530   26.1150  177.1470 C.ar  287  PHE287     -0.0003
    111  CZ        54.4480   26.3640  178.2590 C.ar  287  PHE287     -0.0000
    112  N         63.2660   24.0020  183.4820 N.3   327  PHE327     -0.1227
    113  CA        62.6600   25.3300  183.6720 C.3   327  PHE327      0.1736
    114  C         61.3100   25.2730  184.3480 C.2   327  PHE327      0.2595
    115  O         61.0060   26.0680  185.2300 O.2   327  PHE327     -0.2718
    116  CB        62.4640   26.0530  182.3430 C.3   327  PHE327      0.0547
    117  CG        63.3190   27.2650  182.1790 C.ar  327  PHE327     -0.0202
    118  CD1       63.3100   28.2670  183.1330 C.ar  327  PHE327     -0.0042
    119  CD2       64.0970   27.4330  181.0420 C.ar  327  PHE327     -0.0042
    120  CE1       64.0960   29.3960  182.9870 C.ar  327  PHE327     -0.0003
    121  CE2       64.8830   28.5650  180.8790 C.ar  327  PHE327     -0.0003
    122  CZ        64.8820   29.5480  181.8560 C.ar  327  PHE327     -0.0000
    123  N         60.5020   24.3150  183.9410 N.am  328  PHE328     -0.1976
    124  CA        59.1120   24.2720  184.3560 C.3   328  PHE328      0.1639
    125  C         58.9860   23.6800  185.7470 C.2   328  PHE328      0.2290
    126  O         58.0350   23.9920  186.4590 O.2   328  PHE328     -0.2864
    127  CB        58.2930   23.5290  183.3050 C.3   328  PHE328      0.0560
    128  CG        58.4460   24.1320  181.9450 C.ar  328  PHE328     -0.0200
    129  CD1       59.5030   23.7640  181.1230 C.ar  328  PHE328     -0.0042
    130  CD2       57.6080   25.1510  181.5340 C.ar  328  PHE328     -0.0042
    131  CE1       59.6870   24.3710  179.8970 C.ar  328  PHE328     -0.0003
    132  CE2       57.7860   25.7590  180.3070 C.ar  328  PHE328     -0.0003
    133  CZ        58.8240   25.3650  179.4840 C.ar  328  PHE328     -0.0000
    134  N         60.0030   26.6420  188.2290 N.3   331  TYR331     -0.1241
    135  CA        58.8990   27.5920  188.3680 C.3   331  TYR331      0.1605
    136  C         57.6400   27.0500  189.0510 C.2   331  TYR331      0.2264
    137  O         56.9160   27.8240  189.6730 O.2   331  TYR331     -0.2867
    138  CB        58.5560   28.2060  187.0080 C.3   331  TYR331      0.0534
    139  CG        59.4950   29.3300  186.6550 C.ar  331  TYR331     -0.0201
    140  CD1       60.8350   29.0750  186.3610 C.ar  331  TYR331     -0.0009
    141  CD2       59.0660   30.6480  186.6640 C.ar  331  TYR331     -0.0009
    142  CE1       61.7180   30.1030  186.0710 C.ar  331  TYR331      0.0417
    143  CE2       59.9370   31.6800  186.3700 C.ar  331  TYR331      0.0417
    144  CZ        61.2630   31.4040  186.0760 C.ar  331  TYR331      0.1957
    145  OH        62.1330   32.4260  185.7820 O.3   331  TYR331     -0.2866
    146  N         66.2440   24.2220  178.3480 N.3   437  HIS437     -0.1241
    147  CA        65.2700   24.7650  177.4160 C.3   437  HIS437      0.1621
    148  C         65.6230   26.2060  177.0110 C.2   437  HIS437      0.2264
    149  O         65.6710   27.1030  177.8560 O.2   437  HIS437     -0.2867
    150  CB        63.9080   24.7210  178.1000 C.3   437  HIS437      0.0745
    151  CG        62.7800   25.2130  177.2570 C.ar  437  HIS437      0.0817
    152  ND1       62.2240   24.4590  176.2490 N.ar  437  HIS437     -0.2268
    153  CD2       62.0760   26.3670  177.2990 C.ar  437  HIS437      0.1154
    154  CE1       61.2340   25.1350  175.6950 C.ar  437  HIS437      0.1986
    155  NE2       61.1240   26.2980  176.3150 N.ar  437  HIS437     -0.2212
@<TRIPOS>BOND
     1    65    64    2
     2    64    63    1
     3    48    49   ar
     4    48    46   ar
     5    50    51    1
     6    49    47   ar
     7   154   152   ar
     8   154   155   ar
     9    62    63    1
    10    62    52   am
    11    63    66    1
    12    46    43   ar
    13    51    52    1
    14    51    54    1
    15   152   151   ar
    16   155   153   ar
    17    52    53    2
    18    47    45   ar
    19   148   147    1
    20   148   149    2
    21   108   110   ar
    22   108   106   ar
    23    66    67    1
    24   110   111   ar
    25    39    38    2
    26   151   153   ar
    27   151   150    1
    28    98   100   ar
    29    98    96   ar
    30    43    45   ar
    31    43    41   ar
    32   100    99   ar
    33   147   150    1
    34   147   146    1
    35    54    55    1
    36    45    44   ar
    37   105   106    1
    38   105   102    1
    39    37    38    1
    40    37    40    1
    41    37    36    1
    42   104   103    2
    43   106   107   ar
    44   111   109   ar
    45    96    95   ar
    46    57    55   ar
    47    57    59   ar
    48    55    56   ar
    49    99    97   ar
    50    41    40    1
    51    41    42   ar
    52   103   102    1
    53    59    60   ar
    54   102   101    1
    55    44    42   ar
    56    56    58   ar
    57   107   109   ar
    58    93    92    2
    59    95    97   ar
    60    95    94    1
    61   133   131   ar
    62   133   132   ar
    63    60    58   ar
    64    60    61    1
    65     1     2    1
    66   131   129   ar
    67     4     3    2
    68   132   130   ar
    69    92    91    1
    70    94    91    1
    71   121   119   ar
    72   121   122   ar
    73    91    90    1
    74   119   117   ar
    75     2     3    1
    76     2     5    1
    77   129   128   ar
    78     5     6    1
    79   130   128   ar
    80    33    32    2
    81   122   120   ar
    82   128   127    1
    83    81    79   ar
    84    81    80   ar
    85   117   116    1
    86   117   118   ar
    87    79    77   ar
    88   116   113    1
    89    80    78   ar
    90    32    31    1
    91     6     8   ar
    92     6     7   ar
    93     8    10   ar
    94   120   118   ar
    95    77    76   ar
    96    77    75   ar
    97   127   124    1
    98    13    14    1
    99    31    30    1
   100    31    34    1
   101    78    75   ar
   102   112   113    1
   103    76    74   ar
   104   113   114    1
   105    75    73   ar
   106    17    14    1
   107    17    18    1
   108   123   114   am
   109   123   124    1
   110    68    69    1
   111     7     9   ar
   112    10    11   ar
   113   114   115    2
   114   124   125    1
   115    74    73   ar
   116    14    15    1
   117    20    18   ar
   118    69    70    1
   119    69    72    1
   120    73    72    1
   121    34    35    1
   122    18    19   ar
   123    16    15    2
   124     9    11   ar
   125    11    12    1
   126    70    71    2
   127    70    82   am
   128    82    83    1
   129    84    85    2
   130    84    83    1
   131   125   126    2
   132   145   144    1
   133   142   144   ar
   134   142   140   ar
   135   144   143   ar
   136   140   139   ar
   137   143   141   ar
   138    83    86    1
   139   139   141   ar
   140   139   138    1
   141   138   135    1
   142    86    87    1
   143    87    88    2
   144    87    89   am
   145   134   135    1
   146   135   136    1
   147    21    22    1
   148    25    22    1
   149    25    26    1
   150   136   137    2
   151    22    23    1
   152    26    27    1
   153    23    24    2
   154    27    29   am
   155    27    28    2
