@<TRIPOS>MOLECULE
tmp/5e2jA01.pdb
 96 91 0 0 0
SMALL
GASTEIGER

@<TRIPOS>ATOM
      1  N         24.3180   33.9690    3.2370 N.3   334  TRP334     -0.1227
      2  CA        25.2200   33.1390    4.0250 C.3   334  TRP334      0.1737
      3  C         24.9330   33.2960    5.5070 C.2   334  TRP334      0.2595
      4  O         25.5860   34.0800    6.1830 O.2   334  TRP334     -0.2718
      5  CB        26.6770   33.4980    3.7320 C.3   334  TRP334      0.0564
      6  CG        27.1620   32.9760    2.4210 C.ar  334  TRP334      0.0003
      7  CD1       26.4310   32.2960    1.4920 C.ar  334  TRP334      0.0946
      8  CD2       28.4900   33.0810    1.8900 C.ar  334  TRP334      0.0152
      9  NE1       27.2210   31.9710    0.4140 N.ar  334  TRP334     -0.2442
     10  CE2       28.4900   32.4410    0.6340 C.ar  334  TRP334      0.0810
     11  CE3       29.6800   33.6520    2.3550 C.ar  334  TRP334      0.0012
     12  CZ2       29.6330   32.3600   -0.1640 C.ar  334  TRP334      0.0191
     13  CZ3       30.8150   33.5690    1.5590 C.ar  334  TRP334      0.0001
     14  CH2       30.7820   32.9280    0.3160 C.ar  334  TRP334      0.0015
     15  N         23.9600   32.5470    6.0130 N.am  335  GLU335     -0.1965
     16  CA        23.5510   32.7060    7.4020 C.3   335  GLU335      0.1733
     17  C         23.6470   31.4060    8.1930 C.2   335  GLU335      0.2616
     18  O         24.0220   30.3670    7.6540 O.2   335  GLU335     -0.2715
     19  CB        22.1320   33.2700    7.4680 C.3   335  GLU335      0.0429
     20  CG        22.0320   34.6970    6.9470 C.3   335  GLU335      0.1163
     21  CD        20.6060   35.1980    6.8690 C.2   335  GLU335      0.3649
     22  OE1       19.6860   34.4230    7.2020 O.co2 335  GLU335     -0.2457
     23  OE2       20.4080   36.3660    6.4720 O.co2 335  GLU335     -0.2457
     24  N         23.3060   31.4750    9.4770 N.am  336  LEU336     -0.1977
     25  CA        23.5090   30.3470   10.3800 C.3   336  LEU336      0.1596
     26  C         22.2110   29.7240   10.8850 C.2   336  LEU336      0.2287
     27  O         22.0850   29.4090   12.0680 O.2   336  LEU336     -0.2864
     28  CB        24.3660   30.7790   11.5720 C.3   336  LEU336      0.0297
     29  CG        25.8230   31.1200   11.2530 C.3   336  LEU336      0.0022
     30  CD1       26.5130   31.7280   12.4630 C.3   336  LEU336      0.0001
     31  CD2       26.5650   29.8800   10.7780 C.3   336  LEU336      0.0001
     32  N         26.1580   29.5700    5.6510 N.3   343  LEU343     -0.1245
     33  CA        27.4230   29.9110    6.2960 C.3   343  LEU343      0.1561
     34  C         28.0730   28.6890    6.9400 C.2   343  LEU343      0.2260
     35  O         29.2980   28.6070    7.0330 O.2   343  LEU343     -0.2867
     36  CB        27.2200   31.0120    7.3390 C.3   343  LEU343      0.0270
     37  CG        28.5140   31.5460    7.9580 C.3   343  LEU343      0.0019
     38  CD1       29.4720   31.9980    6.8640 C.3   343  LEU343      0.0001
     39  CD2       28.2350   32.6790    8.9320 C.3   343  LEU343      0.0001
     40  N         32.9190   36.7870    2.5720 N.3   369  LEU369     -0.1245
     41  CA        32.7370   36.6510    4.0130 C.3   369  LEU369      0.1561
     42  C         33.1790   37.9120    4.7500 C.2   369  LEU369      0.2260
     43  O         32.5360   38.3360    5.7100 O.2   369  LEU369     -0.2867
     44  CB        33.5070   35.4370    4.5370 C.3   369  LEU369      0.0270
     45  CG        33.4940   35.2110    6.0510 C.3   369  LEU369      0.0019
     46  CD1       32.0680   35.1330    6.5770 C.3   369  LEU369      0.0001
     47  CD2       34.2690   33.9510    6.4060 C.3   369  LEU369      0.0001
     48  N         30.5800   40.7000    4.1530 N.3   372  GLU372     -0.1231
     49  CA        29.4250   40.4730    5.0110 C.3   372  GLU372      0.1699
     50  C         29.7050   40.9510    6.4330 C.2   372  GLU372      0.2592
     51  O         28.8570   41.5790    7.0660 O.2   372  GLU372     -0.2718
     52  CB        29.0480   38.9910    5.0170 C.3   372  GLU372      0.0402
     53  CG        28.7720   38.3900    3.6430 C.3   372  GLU372      0.1161
     54  CD        27.3690   38.6700    3.1360 C.2   372  GLU372      0.3649
     55  OE1       26.6390   39.4490    3.7830 O.co2 372  GLU372     -0.2457
     56  OE2       26.9960   38.1030    2.0880 O.co2 372  GLU372     -0.2457
     57  N         30.9040   40.6510    6.9260 N.am  373  LEU373     -0.1980
     58  CA        31.3160   41.0770    8.2590 C.3   373  LEU373      0.1596
     59  C         31.4770   42.5910    8.3290 C.2   373  LEU373      0.2287
     60  O         31.1640   43.2070    9.3480 O.2   373  LEU373     -0.2864
     61  CB        32.6230   40.3920    8.6630 C.3   373  LEU373      0.0297
     62  CG        32.5610   38.8780    8.8740 C.3   373  LEU373      0.0022
     63  CD1       33.9270   38.3450    9.2620 C.3   373  LEU373      0.0001
     64  CD2       31.5200   38.5210    9.9240 C.3   373  LEU373      0.0001
     65  N         28.0710   44.0780    8.7350 N.3   376  LEU376     -0.1245
     66  CA        27.6260   43.8850   10.1110 C.3   376  LEU376      0.1561
     67  C         28.3200   44.8550   11.0510 C.2   376  LEU376      0.2260
     68  O         27.7080   45.3860   11.9780 O.2   376  LEU376     -0.2867
     69  CB        27.8940   42.4540   10.5670 C.3   376  LEU376      0.0270
     70  CG        27.1590   41.3420    9.8280 C.3   376  LEU376      0.0019
     71  CD1       27.5890   40.0100   10.3960 C.3   376  LEU376      0.0001
     72  CD2       25.6540   41.5240    9.9400 C.3   376  LEU376      0.0001
     73  N         23.7370   34.7970   16.2650 N.3   404  ASN404     -0.1225
     74  CA        24.2630   34.2200   15.0330 C.3   404  ASN404      0.1785
     75  C         25.2590   35.1630   14.3730 C.2   404  ASN404      0.2597
     76  O         26.2520   34.7250   13.7930 O.2   404  ASN404     -0.2718
     77  CB        23.1350   33.8930   14.0510 C.3   404  ASN404      0.1169
     78  CG        22.3980   32.6150   14.4060 C.2   404  ASN404      0.2627
     79  OD1       22.8480   31.8340   15.2450 O.2   404  ASN404     -0.2716
     80  ND2       21.2650   32.3900   13.7530 N.am  404  ASN404     -0.0877
     81  N         24.9920   36.4610   14.4740 N.am  405  ARG405     -0.1979
     82  CA        25.8400   37.4630   13.8420 C.3   405  ARG405      0.1597
     83  C         27.1630   37.6170   14.5760 C.2   405  ARG405      0.2287
     84  O         28.2140   37.7520   13.9510 O.2   405  ARG405     -0.2864
     85  CB        25.1040   38.8030   13.7490 C.3   405  ARG405      0.0334
     86  CG        23.9640   38.7620   12.7430 C.3   405  ARG405      0.0492
     87  CD        23.2350   40.0750   12.5900 C.3   405  ARG405      0.2205
     88  NE        22.2840   40.0050   11.4840 N.pl3 405  ARG405     -0.0865
     89  CZ        21.3930   40.9480   11.2000 C.cat 405  ARG405      0.5346
     90  NH1       21.3210   42.0410   11.9450 N.pl3 405  ARG405      0.1354
     91  NH2       20.5690   40.7950   10.1720 N.pl3 405  ARG405      0.1354
     92  N         29.2160   34.6090   13.6960 N.3   408  ALA408     -0.1245
     93  CA        29.8220   34.6880   12.3710 C.3   408  ALA408      0.1562
     94  C         31.1920   35.3570   12.4220 C.2   408  ALA408      0.2260
     95  O         32.1290   34.9230   11.7510 O.2   408  ALA408     -0.2867
     96  CB        28.9090   35.4340   11.4180 C.3   408  ALA408      0.0290
@<TRIPOS>BOND
     1    12    14   ar
     2    12    10   ar
     3    14    13   ar
     4     9    10   ar
     5     9     7   ar
     6    10     8   ar
     7     7     6   ar
     8    13    11   ar
     9     8    11   ar
    10     8     6   ar
    11    56    54   ar
    12     6     5    1
    13    40    41    1
    14    54    53    1
    15    54    55   ar
    16     1     2    1
    17    53    52    1
    18     5     2    1
    19    41    44    1
    20    41    42    1
    21     2     3    1
    22    48    49    1
    23    44    45    1
    24    42    43    2
    25    49    52    1
    26    49    50    1
    27     3    15   am
    28     3     4    2
    29    32    33    1
    30    15    16    1
    31    45    47    1
    32    45    46    1
    33    33    34    1
    34    33    36    1
    35    50    57   am
    36    50    51    2
    37    23    21   ar
    38    38    37    1
    39    21    20    1
    40    21    22   ar
    41    57    58    1
    42    34    35    2
    43    20    19    1
    44    36    37    1
    45    16    19    1
    46    16    17    1
    47    18    17    2
    48    37    39    1
    49    17    24   am
    50    58    59    1
    51    58    61    1
    52    59    60    2
    53    61    62    1
    54    65    66    1
    55    62    63    1
    56    62    64    1
    57    24    25    1
    58    70    72    1
    59    70    71    1
    60    70    69    1
    61    66    69    1
    62    66    67    1
    63    91    89    1
    64    25    26    1
    65    25    28    1
    66    31    29    1
    67    26    27    2
    68    67    68    2
    69    89    88    2
    70    89    90    1
    71    29    28    1
    72    29    30    1
    73    96    93    1
    74    88    87    1
    75    95    94    2
    76    93    94    1
    77    93    92    1
    78    87    86    1
    79    86    85    1
    80    85    82    1
    81    80    78   am
    82    76    75    2
    83    82    81    1
    84    82    83    1
    85    84    83    2
    86    77    78    1
    87    77    74    1
    88    75    81   am
    89    75    74    1
    90    78    79    2
    91    74    73    1
