@<TRIPOS>MOLECULE
tmp/5e2mB00.pdb
 201 198 0 0 0
SMALL
GASTEIGER

@<TRIPOS>ATOM
      1  N          6.1220   82.1120   44.7370 N.3     2  TRP2       -0.1241
      2  CA         6.5590   82.4210   46.1350 C.3     2  TRP2        0.1605
      3  C          7.7770   81.5710   46.4340 C.2     2  TRP2        0.2264
      4  O          7.9380   80.5100   45.8470 O.2     2  TRP2       -0.2867
      5  CB         5.4190   82.1440   47.1520 C.3     2  TRP2        0.0550
      6  CG         5.1700   80.6870   47.3560 C.ar    2  TRP2        0.0003
      7  CD1        4.2250   79.8850   46.7500 C.ar    2  TRP2        0.0946
      8  CD2        5.8770   79.8050   48.3060 C.ar    2  TRP2        0.0152
      9  NE1        4.3020   78.5850   47.2170 N.ar    2  TRP2       -0.2442
     10  CE2        5.2850   78.4930   48.1600 C.ar    2  TRP2        0.0810
     11  CE3        6.9210   79.9780   49.2170 C.ar    2  TRP2        0.0012
     12  CZ2        5.7170   77.3640   48.9490 C.ar    2  TRP2        0.0191
     13  CZ3        7.3560   78.8190   49.9690 C.ar    2  TRP2        0.0001
     14  CH2        6.7830   77.5850   49.7900 C.ar    2  TRP2        0.0015
     15  N         10.6220   69.4000   46.2570 N.3    59  VAL59      -0.1245
     16  CA         9.5860   70.3190   45.8930 C.3    59  VAL59       0.1561
     17  C         10.0910   71.6860   45.6240 C.2    59  VAL59       0.2260
     18  O          9.3670   72.7340   45.6640 O.2    59  VAL59      -0.2867
     19  CB         8.3940   70.2870   46.9050 C.3    59  VAL59       0.0252
     20  CG1        7.7640   68.9090   46.9240 C.3    59  VAL59       0.0019
     21  CG2        8.7860   70.7570   48.2750 C.3    59  VAL59       0.0019
     22  N         11.5770   74.1550   47.1180 N.3    61  HIS61      -0.1241
     23  CA        11.9990   74.8750   48.2950 C.3    61  HIS61       0.1621
     24  C         12.2420   73.9460   49.4980 C.2    61  HIS61       0.2264
     25  O         12.7390   74.4340   50.5390 O.2    61  HIS61      -0.2867
     26  CB        10.8770   75.8600   48.7100 C.3    61  HIS61       0.0745
     27  CG         9.5580   75.1720   48.9360 C.ar   61  HIS61       0.0817
     28  ND1        9.1690   74.7140   50.2090 N.ar   61  HIS61      -0.2268
     29  CD2        8.5350   74.8380   48.0790 C.ar   61  HIS61       0.1154
     30  CE1        8.0070   74.1150   50.0890 C.ar   61  HIS61       0.1986
     31  NE2        7.6060   74.2040   48.7570 N.ar   61  HIS61      -0.2212
     32  N          9.9640   66.4850   50.7050 N.3    64  HIS64      -0.1297
     33  CA         8.8830   65.8440   51.4930 C.3    64  HIS64       0.1306
     34  C          8.9800   64.4030   51.4720 C.3    64  HIS64       0.2013
     35  O          9.3250   63.7840   50.3810 O.3    64  HIS64      -0.2188
     36  CB         7.4590   66.2210   50.9080 C.3    64  HIS64       0.0691
     37  CG         7.1390   67.6510   50.9670 C.ar   64  HIS64       0.0814
     38  ND1        6.0640   68.2090   50.3550 N.ar   64  HIS64      -0.2268
     39  CD2        7.7200   68.6680   51.7070 C.ar   64  HIS64       0.1154
     40  CE1        5.9380   69.5150   50.7080 C.ar   64  HIS64       0.1986
     41  NE2        6.9520   69.8260   51.5290 N.ar   64  HIS64      -0.2212
     42  N          0.4310   61.7190   56.8370 N.3    88  PHE88      -0.1227
     43  CA         0.6080   61.8040   55.3370 C.3    88  PHE88       0.1736
     44  C          1.9380   62.2530   54.9310 C.2    88  PHE88       0.2595
     45  O          2.3280   61.9850   53.7710 O.2    88  PHE88      -0.2718
     46  CB        -0.5330   62.5920   54.6840 C.3    88  PHE88       0.0547
     47  CG        -0.5120   64.0500   54.9080 C.ar   88  PHE88      -0.0202
     48  CD1       -1.1560   64.6050   56.0560 C.ar   88  PHE88      -0.0042
     49  CD2        0.1950   64.9410   54.0850 C.ar   88  PHE88      -0.0042
     50  CE1       -1.1160   66.0080   56.2110 C.ar   88  PHE88      -0.0003
     51  CE2        0.2670   66.2810   54.2770 C.ar   88  PHE88      -0.0003
     52  CZ        -0.4130   66.8620   55.3390 C.ar   88  PHE88      -0.0000
     53  N          2.7630   62.8810   55.7630 N.am   89  GLN89      -0.1979
     54  CA         4.0310   63.4450   55.3150 C.3    89  GLN89       0.1601
     55  C          4.9360   63.8090   56.4680 C.2    89  GLN89       0.2287
     56  O          4.4040   64.1930   57.5640 O.2    89  GLN89      -0.2864
     57  CB         3.7490   64.7370   54.4790 C.3    89  GLN89       0.0394
     58  CG         4.9480   65.4220   53.8470 C.3    89  GLN89       0.0908
     59  CD         4.5470   66.7620   53.3100 C.2    89  GLN89       0.2608
     60  OE1        4.8420   67.8570   53.7810 O.2    89  GLN89      -0.2717
     61  NE2        3.8670   66.6530   52.1610 N.am   89  GLN89      -0.0878
     62  N          8.6270   66.4280   56.8430 N.3    91  HIS91      -0.1297
     63  CA         9.6080   67.2630   56.1500 C.3    91  HIS91       0.1306
     64  C         10.3170   68.0920   57.1640 C.3    91  HIS91       0.2013
     65  O          9.9860   68.0420   58.4300 O.3    91  HIS91      -0.2188
     66  CB         8.9680   68.1370   55.0920 C.3    91  HIS91       0.0691
     67  CG         7.9700   69.1800   55.6320 C.ar   91  HIS91       0.0814
     68  ND1        6.5990   68.9920   55.5600 N.ar   91  HIS91      -0.2268
     69  CD2        8.1750   70.3410   56.2940 C.ar   91  HIS91       0.1154
     70  CE1        6.0160   70.0560   56.1650 C.ar   91  HIS91       0.1986
     71  NE2        6.9490   70.8770   56.6250 N.ar   91  HIS91      -0.2212
     72  N         12.4380   72.0510   58.1020 N.3    93  HIS93      -0.1241
     73  CA        12.8390   73.3860   57.7570 C.3    93  HIS93       0.1621
     74  C         14.1940   73.6450   58.3450 C.2    93  HIS93       0.2264
     75  O         14.5510   73.0920   59.4030 O.2    93  HIS93      -0.2867
     76  CB        11.8490   74.4390   58.3440 C.3    93  HIS93       0.0745
     77  CG        10.4790   74.2670   57.8280 C.ar   93  HIS93       0.0817
     78  ND1        9.9240   75.0220   56.8240 N.ar   93  HIS93      -0.2268
     79  CD2        9.5170   73.3430   58.1820 C.ar   93  HIS93       0.1154
     80  CE1        8.6340   74.5710   56.5900 C.ar   93  HIS93       0.1986
     81  NE2        8.4070   73.5270   57.4060 N.ar   93  HIS93      -0.2212
     82  N          8.6770   68.5560   60.9120 N.3   116  HIS116     -0.1241
     83  CA         7.2230   68.6080   60.8780 C.3   116  HIS116      0.1621
     84  C          6.7110   67.3200   60.4240 C.2   116  HIS116      0.2264
     85  O          7.0690   66.7460   59.3620 O.2   116  HIS116     -0.2867
     86  CB         6.7130   69.6330   59.9030 C.3   116  HIS116      0.0745
     87  CG         6.9180   71.0370   60.3860 C.ar  116  HIS116      0.0817
     88  ND1        6.8590   72.2270   59.6490 N.ar  116  HIS116     -0.2268
     89  CD2        7.2950   71.4190   61.6960 C.ar  116  HIS116      0.1154
     90  CE1        7.1740   73.2930   60.4490 C.ar  116  HIS116      0.1986
     91  NE2        7.3920   72.7790   61.6920 N.ar  116  HIS116     -0.2212
     92  N          3.0940   65.6470   59.5910 N.3   118  ALA118     -0.1245
     93  CA         1.7620   66.1910   59.2750 C.3   118  ALA118      0.1562
     94  C          0.7280   65.1250   59.0490 C.2   118  ALA118      0.2260
     95  O          1.0380   64.0150   58.5410 O.2   118  ALA118     -0.2867
     96  CB         1.9060   67.0120   57.9690 C.3   118  ALA118      0.0290
     97  N         -7.3660   64.3720   52.2060 N.3   128  LEU128     -0.1231
     98  CA        -6.3980   65.4700   52.5330 C.3   128  LEU128      0.1693
     99  C         -6.6720   66.7550   51.8220 C.2   128  LEU128      0.2591
    100  O         -6.5810   67.8120   52.4120 O.2   128  LEU128     -0.2718
    101  CB        -4.9670   65.0260   52.2480 C.3   128  LEU128      0.0284
    102  CG        -3.8860   66.0580   52.2570 C.3   128  LEU128      0.0019
    103  CD1       -3.7580   66.6960   53.7070 C.3   128  LEU128      0.0001
    104  CD2       -2.6140   65.3890   51.8360 C.3   128  LEU128      0.0001
    105  N         -7.0720   66.6990   50.5360 N.am  129  ALA129     -0.1980
    106  CA        -7.2980   67.9350   49.7480 C.3   129  ALA129      0.1597
    107  C         -8.4360   68.7620   50.3300 C.2   129  ALA129      0.2287
    108  O         -8.3000   70.0150   50.4070 O.2   129  ALA129     -0.2864
    109  CB        -7.5740   67.5500   48.2550 C.3   129  ALA129      0.0319
    110  N         -7.4080   70.1680   54.0190 N.3   132  ALA132     -0.1245
    111  CA        -6.3020   71.1110   54.1110 C.3   132  ALA132      0.1562
    112  C         -6.7850   72.5390   54.4000 C.2   132  ALA132      0.2260
    113  O         -6.0220   73.3930   54.8570 O.2   132  ALA132     -0.2867
    114  CB        -5.3790   71.0590   52.8470 C.3   132  ALA132      0.0290
    115  N         -6.0140   69.6410   59.8880 N.3   138  LEU138     -0.1245
    116  CA        -4.6390   69.1220   59.8960 C.3   138  LEU138      0.1561
    117  C         -4.0960   69.2190   61.2910 C.2   138  LEU138      0.2260
    118  O         -4.4750   70.0420   62.1290 O.2   138  LEU138     -0.2867
    119  CB        -3.7350   69.9540   59.0170 C.3   138  LEU138      0.0270
    120  CG        -4.1500   70.1560   57.5320 C.3   138  LEU138      0.0019
    121  CD1       -3.1690   71.0820   56.7590 C.3   138  LEU138      0.0001
    122  CD2       -4.1790   68.7760   56.8280 C.3   138  LEU138      0.0001
    123  N         -0.0740   68.9490   62.9360 N.3   140  VAL140     -0.1301
    124  CA         1.3440   68.8350   62.6220 C.3   140  VAL140      0.1246
    125  C          2.1100   68.8080   63.9140 C.3   140  VAL140      0.2009
    126  O          1.9230   69.7230   64.8150 O.3   140  VAL140     -0.2188
    127  CB         1.7820   69.9740   61.7160 C.3   140  VAL140      0.0202
    128  CG1        3.2350   69.7400   61.3300 C.3   140  VAL140      0.0016
    129  CG2        0.9530   70.0020   60.4250 C.3   140  VAL140      0.0016
    130  N         -0.7010   76.4820   58.0550 N.3   195  LEU195     -0.1231
    131  CA         0.4690   76.1030   57.2570 C.3   195  LEU195      0.1693
    132  C          1.4740   77.2500   57.3140 C.2   195  LEU195      0.2593
    133  O          1.0900   78.4430   57.3180 O.2   195  LEU195     -0.2718
    134  CB         0.0300   75.9570   55.7750 C.3   195  LEU195      0.0284
    135  CG        -0.9100   74.8230   55.6100 C.3   195  LEU195      0.0019
    136  CD1       -1.3850   74.7830   54.1400 C.3   195  LEU195      0.0001
    137  CD2       -0.3590   73.4500   56.0420 C.3   195  LEU195      0.0001
    138  N          2.7910   76.9200   57.3180 N.am  196  THR196     -0.1939
    139  CA         3.8300   77.9130   57.4440 C.3   196  THR196      0.2028
    140  C          4.3530   78.4500   56.0870 C.2   196  THR196      0.2642
    141  O          5.2600   79.2750   56.0780 O.2   196  THR196     -0.2714
    142  CB         5.0330   77.4850   58.2920 C.3   196  THR196      0.1808
    143  OG1        5.6730   76.3900   57.6340 O.3   196  THR196     -0.2208
    144  CG2        4.5830   77.0530   59.6900 C.3   196  THR196      0.0379
    145  N          3.7540   78.0260   54.9840 N.am  197  HIS197     -0.1959
    146  CA         4.0750   78.6190   53.7030 C.3   197  HIS197      0.1772
    147  C          2.7960   78.6010   52.9190 C.2   197  HIS197      0.2462
    148  O          1.8270   77.9290   53.2880 O.2   197  HIS197     -0.2730
    149  CB         5.3270   78.0570   52.9700 C.3   197  HIS197      0.0785
    150  CG         5.5280   76.6540   53.1730 C.ar  197  HIS197      0.0821
    151  ND1        5.2690   75.7340   52.2410 N.ar  197  HIS197     -0.2267
    152  CD2        6.0190   75.9790   54.3030 C.ar  197  HIS197      0.1154
    153  CE1        5.6630   74.4760   52.7160 C.ar  197  HIS197      0.1986
    154  NE2        6.0410   74.6360   54.0080 N.ar  197  HIS197     -0.2212
    155  N          2.8020   79.3310   51.7520 N.am  198  PRO198     -0.2716
    156  CA         1.5920   79.3640   50.9660 C.3   198  PRO198      0.1521
    157  C          1.1280   77.9090   50.6320 C.2   198  PRO198      0.2440
    158  O          2.0080   77.0610   50.2300 O.2   198  PRO198     -0.2731
    159  CB         2.0820   80.1230   49.7020 C.3   198  PRO198      0.0310
    160  CG         3.0620   81.0730   50.2160 C.3   198  PRO198      0.0237
    161  CD         3.8360   80.2300   51.2650 C.3   198  PRO198      0.0939
    162  N         -0.1880   77.6330   50.7130 N.am  199  PRO199     -0.2727
    163  CA        -1.2810   78.6470   50.7810 C.3   199  PRO199      0.1402
    164  C         -1.6250   79.2390   52.1410 C.2   199  PRO199      0.2269
    165  O         -2.6350   79.9780   52.2520 O.2   199  PRO199     -0.2865
    166  CB        -2.5160   77.8890   50.2180 C.3   199  PRO199      0.0296
    167  CG        -2.1790   76.4660   50.5420 C.3   199  PRO199      0.0237
    168  CD        -0.7100   76.2750   50.4810 C.3   199  PRO199      0.0939
    169  N         -3.0990   78.2370   54.8180 N.3   201  TYR201     -0.1241
    170  CA        -4.3890   77.9980   55.3790 C.3   201  TYR201      0.1605
    171  C         -4.3160   77.8800   56.9010 C.2   201  TYR201      0.2264
    172  O         -3.4170   77.1990   57.4550 O.2   201  TYR201     -0.2867
    173  CB        -4.9740   76.7180   54.8630 C.3   201  TYR201      0.0534
    174  CG        -5.3190   76.6940   53.3900 C.ar  201  TYR201     -0.0201
    175  CD1       -5.9330   77.7540   52.7420 C.ar  201  TYR201     -0.0009
    176  CD2       -5.0320   75.5860   52.6840 C.ar  201  TYR201     -0.0009
    177  CE1       -6.2780   77.6350   51.4060 C.ar  201  TYR201      0.0417
    178  CE2       -5.3630   75.4730   51.3480 C.ar  201  TYR201      0.0417
    179  CZ        -5.9700   76.4980   50.7450 C.ar  201  TYR201      0.1957
    180  OH        -6.3210   76.4510   49.4030 O.3   201  TYR201     -0.2866
    181  N         -4.3530   74.2580   60.8870 N.3   204  VAL204     -0.1245
    182  CA        -3.3760   73.3380   61.5620 C.3   204  VAL204      0.1561
    183  C         -3.4970   73.4740   63.0890 C.2   204  VAL204      0.2260
    184  O         -3.3800   74.6110   63.5920 O.2   204  VAL204     -0.2867
    185  CB        -1.9270   73.6490   61.1540 C.3   204  VAL204      0.0252
    186  CG1       -1.0000   72.7010   61.9380 C.3   204  VAL204      0.0019
    187  CG2       -1.7040   73.4440   59.6480 C.3   204  VAL204      0.0019
    188  N         -1.2600   72.7780   65.9020 N.3   206  TRP206     -0.1241
    189  CA         0.1830   72.4970   66.1210 C.3   206  TRP206      0.1605
    190  C          0.4210   71.7570   67.3750 C.2   206  TRP206      0.2264
    191  O         -0.1120   72.1410   68.4310 O.2   206  TRP206     -0.2867
    192  CB         0.9750   73.8130   66.1100 C.3   206  TRP206      0.0550
    193  CG         1.1850   74.2890   64.7030 C.ar  206  TRP206      0.0003
    194  CD1        0.4550   75.1940   64.0080 C.ar  206  TRP206      0.0946
    195  CD2        2.1990   73.7720   63.8140 C.ar  206  TRP206      0.0152
    196  NE1        0.9100   75.2870   62.7070 N.ar  206  TRP206     -0.2442
    197  CE2        1.9910   74.4540   62.5800 C.ar  206  TRP206      0.0810
    198  CE3        3.2190   72.8460   63.9380 C.ar  206  TRP206      0.0012
    199  CZ2        2.8080   74.1990   61.4500 C.ar  206  TRP206      0.0191
    200  CZ3        4.0190   72.6140   62.7910 C.ar  206  TRP206      0.0001
    201  CH2        3.7830   73.2660   61.5960 C.ar  206  TRP206      0.0015
@<TRIPOS>BOND
     1     1     2    1
     2    17    18    2
     3    17    16    1
     4     4     3    2
     5    16    15    1
     6    16    19    1
     7     2     3    1
     8     2     5    1
     9     7     9   ar
    10     7     6   ar
    11    19    20    1
    12    19    21    1
    13    22    23    1
    14     5     6    1
    15     9    10   ar
    16     6     8   ar
    17    29    31   ar
    18    29    27   ar
    19    10     8   ar
    20    10    12   ar
    21   109   106    1
    22    23    26    1
    23    23    24    1
    24     8    11   ar
    25    26    27    1
    26    31    30   ar
    27    27    28   ar
    28    12    14   ar
    29    11    13   ar
    30   180   179    1
    31    24    25    2
    32   159   160    1
    33   159   156    1
    34   106   107    1
    35   106   105    1
    36    14    13   ar
    37    30    28   ar
    38   160   161    1
    39   166   167    1
    40   166   163    1
    41   158   157    2
    42   107   108    2
    43    38    40   ar
    44    38    37   ar
    45    35    34    1
    46   168   167    1
    47   168   162    1
    48   105    99   am
    49   157   162   am
    50   157   156    1
    51    32    33    1
    52    40    41   ar
    53   162   163    1
    54   179   178   ar
    55   179   177   ar
    56   163   164    1
    57    36    37    1
    58    36    33    1
    59   156   155    1
    60    37    39   ar
    61   161   155    1
    62   178   176   ar
    63   177   175   ar
    64    34    33    1
    65    41    39   ar
    66   155   147   am
    67    99   100    2
    68    99    98    1
    69   104   102    1
    70   164   165    2
    71    61    59   am
    72    97    98    1
    73   151   153   ar
    74   151   150   ar
    75   101   102    1
    76   101    98    1
    77   102   103    1
    78   176   174   ar
    79   153   154   ar
    80   175   174   ar
    81   114   111    1
    82   147   148    2
    83   147   146    1
    84   149   150    1
    85   149   146    1
    86   150   152   ar
    87    59    60    2
    88    59    58    1
    89   174   173    1
    90   146   145    1
    91    45    44    2
    92    58    57    1
    93   154   152   ar
    94   110   111    1
    95    49    51   ar
    96    49    47   ar
    97   111   112    1
    98   136   135    1
    99    51    52   ar
   100   112   113    2
   101    57    54    1
   102    46    47    1
   103    46    43    1
   104   169   170    1
   105   173   170    1
   106    47    48   ar
   107    44    43    1
   108    44    53   am
   109   145   140   am
   110    66    67    1
   111    66    63    1
   112    54    53    1
   113    54    55    1
   114    43    42    1
   115    52    50   ar
   116   170   171    1
   117    68    67   ar
   118    68    70   ar
   119   135   134    1
   120   135   137    1
   121    67    69   ar
   122   134   131    1
   123    48    50   ar
   124   141   140    2
   125   140   139    1
   126    63    62    1
   127    63    64    1
   128    70    71   ar
   129    69    71   ar
   130    55    56    2
   131    80    78   ar
   132    80    81   ar
   133   121   120    1
   134    78    77   ar
   135   122   120    1
   136   171   172    2
   137    64    65    1
   138   131   132    1
   139   131   130    1
   140   132   133    2
   141   132   138   am
   142   138   139    1
   143    81    79   ar
   144   139   142    1
   145   120   119    1
   146   143   142    1
   147    73    72    1
   148    73    76    1
   149    73    74    1
   150    77    79   ar
   151    77    76    1
   152    96    93    1
   153   142   144    1
   154    74    75    2
   155    95    94    2
   156   119   116    1
   157    94    93    1
   158    93    92    1
   159    85    84    2
   160   187   185    1
   161    88    87   ar
   162    88    90   ar
   163   115   116    1
   164   116   117    1
   165    86    87    1
   166    86    83    1
   167    87    89   ar
   168    84    83    1
   169   129   127    1
   170    90    91   ar
   171    83    82    1
   172   181   182    1
   173   185   182    1
   174   185   186    1
   175   117   118    2
   176   128   127    1
   177   199   201   ar
   178   199   197   ar
   179   182   183    1
   180   201   200   ar
   181    91    89   ar
   182   127   124    1
   183   197   196   ar
   184   197   195   ar
   185   124   123    1
   186   124   125    1
   187   196   194   ar
   188   200   198   ar
   189   183   184    2
   190   195   198   ar
   191   195   193   ar
   192   125   126    1
   193   194   193   ar
   194   193   192    1
   195   188   189    1
   196   192   189    1
   197   189   190    1
   198   190   191    2
