@<TRIPOS>MOLECULE
tmp/5e2nB01.pdb
 183 180 0 0 0
SMALL
GASTEIGER

@<TRIPOS>ATOM
      1  N        -28.7580   38.0180  -12.9370 N.3     2  TRP2       -0.1241
      2  CA       -28.9500   36.7550  -12.2260 C.3     2  TRP2        0.1605
      3  C        -27.9610   36.4410  -11.1080 C.2     2  TRP2        0.2264
      4  O        -26.8320   36.9190  -11.1310 O.2     2  TRP2       -0.2867
      5  CB       -29.0680   35.6200  -13.2560 C.3     2  TRP2        0.0550
      6  CG       -27.7430   35.2360  -13.8530 C.ar    2  TRP2        0.0003
      7  CD1      -27.0930   35.7240  -15.0130 C.ar    2  TRP2        0.0946
      8  CD2      -26.8490   34.2120  -13.3270 C.ar    2  TRP2        0.0152
      9  NE1      -25.9110   35.0940  -15.2010 N.ar    2  TRP2       -0.2442
     10  CE2      -25.7110   34.1520  -14.2380 C.ar    2  TRP2        0.0810
     11  CE3      -26.9370   33.3090  -12.2750 C.ar    2  TRP2        0.0012
     12  CZ2      -24.6620   33.2810  -14.0400 C.ar    2  TRP2        0.0191
     13  CZ3      -25.8790   32.4280  -12.0900 C.ar    2  TRP2        0.0001
     14  CH2      -24.7780   32.4130  -12.9610 C.ar    2  TRP2        0.0015
     15  N        -15.9750   35.1600  -11.0990 N.3    59  SER59      -0.1217
     16  CA       -17.0500   35.6520  -11.9860 C.3    59  SER59       0.1889
     17  C        -18.2310   36.3010  -11.2940 C.2    59  SER59       0.2288
     18  O        -19.1610   36.7720  -11.9290 O.2    59  SER59      -0.2866
     19  CB       -17.6210   34.5070  -12.7510 C.3    59  SER59       0.2089
     20  OG       -18.2300   33.5500  -11.8550 O.3    59  SER59      -0.2183
     21  N        -20.2070   34.3110   -9.6490 N.3    61  HIS61      -0.1226
     22  CA       -21.0350   33.1010   -9.5250 C.3    61  HIS61       0.1752
     23  C        -20.2830   31.8680   -9.0950 C.2    61  HIS61       0.2596
     24  O        -20.9100   30.8850   -8.6760 O.2    61  HIS61      -0.2718
     25  CB       -21.6620   32.8220  -10.8710 C.3    61  HIS61       0.0759
     26  CG       -22.1730   34.0790  -11.5330 C.ar   61  HIS61       0.0818
     27  ND1      -23.1890   34.8270  -10.9940 N.ar   61  HIS61      -0.2268
     28  CD2      -21.7680   34.7260  -12.6740 C.ar   61  HIS61       0.1154
     29  CE1      -23.3840   35.9310  -11.7650 C.ar   61  HIS61       0.1986
     30  NE2      -22.5550   35.8510  -12.8030 N.ar   61  HIS61      -0.2212
     31  N        -18.9490   31.8960   -9.2200 N.am   62  SER62      -0.1952
     32  CA       -18.0360   30.8340   -8.7620 C.3    62  SER62       0.1924
     33  C        -16.6440   31.3700   -9.0180 C.2    62  SER62       0.2314
     34  O        -16.4960   32.5490   -9.4230 O.2    62  SER62      -0.2863
     35  CB       -18.2670   29.4970   -9.5590 C.3    62  SER62       0.2116
     36  OG       -17.4020   28.4810   -8.9940 O.3    62  SER62      -0.2180
     37  N        -13.5210   30.7050  -11.7440 N.3    64  ASN64      -0.1240
     38  CA       -13.3030   30.0100  -13.0290 C.3    64  ASN64       0.1653
     39  C        -11.8350   29.9050  -13.2600 C.2    64  ASN64       0.2266
     40  O        -11.1090   30.9550  -13.2580 O.2    64  ASN64      -0.2867
     41  CB       -13.8350   30.8330  -14.2140 C.3    64  ASN64       0.1155
     42  CG       -15.3170   30.9420  -14.2160 C.2    64  ASN64       0.2627
     43  OD1      -16.0210   30.0350  -13.8130 O.2    64  ASN64      -0.2716
     44  ND2      -15.8190   32.0330  -14.7570 N.am   64  ASN64      -0.0877
     45  N        -11.9130   23.7540  -21.6120 N.3    88  ARG88      -0.1231
     46  CA       -12.0580   25.2460  -21.6130 C.3    88  ARG88       0.1694
     47  C        -11.9270   25.8770  -20.2310 C.2    88  ARG88       0.2591
     48  O        -11.2610   26.8400  -20.0640 O.2    88  ARG88      -0.2718
     49  CB       -13.4610   25.6000  -22.1520 C.3    88  ARG88       0.0321
     50  CG       -13.9040   27.0670  -21.9820 C.3    88  ARG88       0.0489
     51  CD       -13.4140   27.8560  -23.1170 C.3    88  ARG88       0.2205
     52  NE       -13.9680   29.2080  -23.0620 N.pl3  88  ARG88      -0.0865
     53  CZ       -13.6850   30.1310  -23.9850 C.cat  88  ARG88       0.5346
     54  NH1      -12.9590   29.8020  -25.0530 N.pl3  88  ARG88       0.1354
     55  NH2      -14.1880   31.3310  -23.8430 N.pl3  88  ARG88       0.1354
     56  N        -12.6320   25.2700  -19.2620 N.am   89  GLN89      -0.1979
     57  CA       -12.6690   25.9100  -17.9720 C.3    89  GLN89       0.1601
     58  C        -13.1480   24.9700  -16.8820 C.2    89  GLN89       0.2287
     59  O        -13.7740   23.9530  -17.1460 O.2    89  GLN89      -0.2864
     60  CB       -13.5420   27.1300  -18.0710 C.3    89  GLN89       0.0394
     61  CG       -14.9470   26.9860  -18.1730 C.3    89  GLN89       0.0908
     62  CD       -15.5960   27.2430  -16.8180 C.2    89  GLN89       0.2608
     63  OE1      -15.7310   26.3190  -16.0540 O.2    89  GLN89      -0.2717
     64  NE2      -15.8280   28.4920  -16.4670 N.am   89  GLN89      -0.0878
     65  N        -14.8920   25.0300  -12.8080 N.3    91  HIS91      -0.1241
     66  CA       -15.4660   25.8440  -11.6750 C.3    91  HIS91       0.1621
     67  C        -16.1060   24.9200  -10.6910 C.2    91  HIS91       0.2264
     68  O        -16.0260   23.7380  -10.8340 O.2    91  HIS91      -0.2867
     69  CB       -16.4170   26.9190  -12.2570 C.3    91  HIS91       0.0745
     70  CG       -17.6020   26.2660  -12.9060 C.ar   91  HIS91       0.0817
     71  ND1      -17.6430   25.9710  -14.2780 N.ar   91  HIS91      -0.2268
     72  CD2      -18.7710   25.7920  -12.3730 C.ar   91  HIS91       0.1154
     73  CE1      -18.7990   25.3310  -14.5200 C.ar   91  HIS91       0.1986
     74  NE2      -19.5260   25.2170  -13.3760 N.ar   91  HIS91      -0.2212
     75  N        -19.3630   24.3070   -7.5380 N.3    93  HIS93      -0.1241
     76  CA       -20.6040   24.6950   -6.8640 C.3    93  HIS93       0.1621
     77  C        -20.5980   24.1080   -5.4690 C.2    93  HIS93       0.2264
     78  O        -20.0890   23.0500   -5.1810 O.2    93  HIS93      -0.2867
     79  CB       -21.8210   24.0590   -7.6220 C.3    93  HIS93       0.0745
     80  CG       -21.9070   24.4920   -9.0560 C.ar   93  HIS93       0.0817
     81  ND1      -22.5310   25.6670   -9.4120 N.ar   93  HIS93      -0.2268
     82  CD2      -21.3410   23.9740  -10.2140 C.ar   93  HIS93       0.1154
     83  CE1      -22.4510   25.8590  -10.7370 C.ar   93  HIS93       0.1986
     84  NE2      -21.7590   24.8010  -11.2500 N.ar   93  HIS93      -0.2212
     85  N        -17.0930   21.1730  -11.8610 N.3   116  HIS116     -0.1241
     86  CA       -17.4340   21.0140  -13.3070 C.3   116  HIS116      0.1621
     87  C        -16.2700   21.3960  -14.1520 C.2   116  HIS116      0.2264
     88  O        -15.6290   22.4080  -14.0400 O.2   116  HIS116     -0.2867
     89  CB       -18.6410   21.9450  -13.6300 C.3   116  HIS116      0.0745
     90  CG       -19.9080   21.4700  -12.9800 C.ar  116  HIS116      0.0817
     91  ND1      -21.0260   22.2310  -12.8250 N.ar  116  HIS116     -0.2268
     92  CD2      -20.2290   20.2170  -12.4750 C.ar  116  HIS116      0.1154
     93  CE1      -21.9880   21.4830  -12.2350 C.ar  116  HIS116      0.1986
     94  NE2      -21.5190   20.2910  -12.0090 N.ar  116  HIS116     -0.2212
     95  N        -15.4980   21.8960  -18.0770 N.3   118  VAL118     -0.1245
     96  CA       -16.2880   22.2040  -19.3080 C.3   118  VAL118      0.1561
     97  C        -15.3940   22.1070  -20.5330 C.2   118  VAL118      0.2260
     98  O        -14.2590   22.5910  -20.5740 O.2   118  VAL118     -0.2867
     99  CB       -16.7990   23.6650  -19.1890 C.3   118  VAL118      0.0252
    100  CG1      -17.6110   24.1280  -20.3830 C.3   118  VAL118      0.0019
    101  CG2      -17.5970   23.8780  -17.8770 C.3   118  VAL118      0.0019
    102  N        -15.7510   27.5320  -28.8500 N.3   128  PHE128     -0.1241
    103  CA       -16.6410   27.2960  -27.7260 C.3   128  PHE128      0.1605
    104  C        -17.9680   28.0310  -27.8490 C.2   128  PHE128      0.2264
    105  O        -18.9990   27.4300  -27.6330 O.2   128  PHE128     -0.2867
    106  CB       -15.9460   27.8560  -26.4800 C.3   128  PHE128      0.0534
    107  CG       -16.8040   27.8310  -25.2280 C.ar  128  PHE128     -0.0203
    108  CD1      -17.0870   26.6040  -24.5820 C.ar  128  PHE128     -0.0042
    109  CD2      -17.3850   29.0310  -24.7340 C.ar  128  PHE128     -0.0042
    110  CE1      -17.9550   26.5880  -23.4730 C.ar  128  PHE128     -0.0003
    111  CE2      -18.2220   29.0130  -23.6140 C.ar  128  PHE128     -0.0003
    112  CZ       -18.4760   27.7940  -22.9900 C.ar  128  PHE128     -0.0000
    113  N        -21.2300   20.6560  -26.1600 N.3   138  LEU138     -0.1245
    114  CA       -20.4390   20.7080  -24.9170 C.3   138  LEU138      0.1561
    115  C        -20.4730   19.3920  -24.1650 C.2   138  LEU138      0.2260
    116  O        -21.3920   18.6200  -24.2670 O.2   138  LEU138     -0.2867
    117  CB       -21.0500   21.8150  -24.0010 C.3   138  LEU138      0.0270
    118  CG       -21.1330   23.2390  -24.5300 C.3   138  LEU138      0.0019
    119  CD1      -21.6650   24.1590  -23.3750 C.3   138  LEU138      0.0001
    120  CD2      -19.7590   23.7150  -25.0060 C.3   138  LEU138      0.0001
    121  N        -19.6050   18.2360  -20.1350 N.3   140  VAL140     -0.1245
    122  CA       -19.1310   18.6590  -18.7950 C.3   140  VAL140      0.1561
    123  C        -18.9760   17.4500  -17.8810 C.2   140  VAL140      0.2260
    124  O        -19.8850   16.5850  -17.8110 O.2   140  VAL140     -0.2867
    125  CB       -20.1350   19.6150  -18.1470 C.3   140  VAL140      0.0252
    126  CG1      -19.5940   20.1250  -16.7760 C.3   140  VAL140      0.0019
    127  CG2      -20.3420   20.8250  -19.0750 C.3   140  VAL140      0.0019
    128  N        -28.1280   20.4990  -19.8050 N.3   194  SER194     -0.1202
    129  CA       -27.9300   21.9070  -20.0400 C.3   194  SER194      0.2020
    130  C        -26.8420   22.5330  -19.2140 C.2   194  SER194      0.2619
    131  O        -26.3550   21.9140  -18.2000 O.2   194  SER194     -0.2717
    132  CB       -29.2390   22.6630  -19.7190 C.3   194  SER194      0.2103
    133  OG       -29.4460   22.7540  -18.3150 O.3   194  SER194     -0.2182
    134  N        -26.4760   23.7610  -19.5240 N.am  195  LEU195     -0.1965
    135  CA       -25.7640   24.5640  -18.5420 C.3   195  LEU195      0.1728
    136  C        -26.6430   24.7240  -17.2860 C.2   195  LEU195      0.2617
    137  O        -27.8360   24.7790  -17.3750 O.2   195  LEU195     -0.2715
    138  CB       -25.5550   25.9780  -19.0340 C.3   195  LEU195      0.0311
    139  CG       -24.7270   26.1170  -20.3500 C.3   195  LEU195      0.0022
    140  CD1      -24.5250   27.5800  -20.6270 C.3   195  LEU195      0.0001
    141  CD2      -23.4090   25.3970  -20.3320 C.3   195  LEU195      0.0001
    142  N        -25.9810   24.7910  -16.1180 N.am  196  THR196     -0.1937
    143  CA       -26.7510   24.9220  -14.8540 C.3   196  THR196      0.2028
    144  C        -26.7390   26.3640  -14.4150 C.2   196  THR196      0.2642
    145  O        -27.1970   26.6550  -13.2930 O.2   196  THR196     -0.2714
    146  CB       -26.2080   23.9930  -13.6970 C.3   196  THR196      0.1808
    147  OG1      -24.9370   24.4470  -13.2550 O.3   196  THR196     -0.2208
    148  CG2      -26.1700   22.4800  -14.2000 C.3   196  THR196      0.0379
    149  N        -26.2850   27.2750  -15.2630 N.am  197  VAL197     -0.1963
    150  CA       -26.3480   28.7400  -15.0360 C.3   197  VAL197      0.1712
    151  C        -26.9280   29.3690  -16.2930 C.2   197  VAL197      0.2458
    152  O        -26.7800   28.8430  -17.3770 O.2   197  VAL197     -0.2730
    153  CB       -24.9700   29.3190  -14.7510 C.3   197  VAL197      0.0289
    154  CG1      -24.4850   28.8170  -13.3780 C.3   197  VAL197      0.0023
    155  CG2      -23.9540   29.0160  -15.8770 C.3   197  VAL197      0.0023
    156  N        -27.5990   30.4860  -16.1840 N.am  198  PRO198     -0.2716
    157  CA       -27.9140   31.2860  -17.3240 C.3   198  PRO198      0.1521
    158  C        -26.6760   31.3940  -18.2130 C.2   198  PRO198      0.2440
    159  O        -25.5550   31.6860  -17.7800 O.2   198  PRO198     -0.2731
    160  CB       -28.3000   32.6480  -16.6670 C.3   198  PRO198      0.0310
    161  CG       -28.9840   32.1300  -15.4040 C.3   198  PRO198      0.0237
    162  CD       -27.9330   31.1600  -14.9050 C.3   198  PRO198      0.0939
    163  N        -26.9180   31.2110  -19.5450 N.am  199  PRO199     -0.2727
    164  CA       -28.1600   31.1310  -20.2980 C.3   199  PRO199      0.1402
    165  C        -28.8680   29.7870  -20.3850 C.2   199  PRO199      0.2269
    166  O        -29.8640   29.6410  -21.1110 O.2   199  PRO199     -0.2865
    167  CB       -27.7270   31.6070  -21.7270 C.3   199  PRO199      0.0296
    168  CG       -26.3420   31.1070  -21.8050 C.3   199  PRO199      0.0237
    169  CD       -25.7370   31.3190  -20.4200 C.3   199  PRO199      0.0939
    170  N        -23.7190   15.5240  -20.2110 N.3   206  TRP206     -0.1241
    171  CA       -23.1940   15.4150  -18.8410 C.3   206  TRP206      0.1605
    172  C        -22.5730   14.0430  -18.6340 C.2   206  TRP206      0.2264
    173  O        -23.1240   13.0340  -18.9470 O.2   206  TRP206     -0.2867
    174  CB       -24.3760   15.5700  -17.8900 C.3   206  TRP206      0.0550
    175  CG       -24.6250   17.0210  -17.6030 C.ar  206  TRP206      0.0003
    176  CD1      -25.5700   17.8940  -18.2300 C.ar  206  TRP206      0.0946
    177  CD2      -23.8760   17.8550  -16.7150 C.ar  206  TRP206      0.0152
    178  NE1      -25.4190   19.1780  -17.8030 N.ar  206  TRP206     -0.2442
    179  CE2      -24.3530   19.2180  -16.9060 C.ar  206  TRP206      0.0810
    180  CE3      -22.7960   17.6320  -15.8550 C.ar  206  TRP206      0.0012
    181  CZ2      -23.8510   20.2970  -16.1810 C.ar  206  TRP206      0.0191
    182  CZ3      -22.2620   18.7560  -15.1570 C.ar  206  TRP206      0.0001
    183  CH2      -22.7870   20.0560  -15.3360 C.ar  206  TRP206      0.0015
@<TRIPOS>BOND
     1   102   103    1
     2   104   103    1
     3   104   105    2
     4   103   106    1
     5   106   107    1
     6   113   114    1
     7   107   109   ar
     8   107   108   ar
     9    54    53    1
    10   120   118    1
    11   114   115    1
    12   114   117    1
    13   109   111   ar
    14   108   110   ar
    15   118   117    1
    16   118   119    1
    17   116   115    2
    18    53    55    1
    19    53    52    2
    20   111   112   ar
    21   110   112   ar
    22    51    52    1
    23    51    50    1
    24    49    50    1
    25    49    46    1
    26   168   167    1
    27   168   169    1
    28   167   164    1
    29    46    45    1
    30    46    47    1
    31   166   165    2
    32   140   139    1
    33    98    97    2
    34    97    96    1
    35   169   163    1
    36   165   164    1
    37   100    99    1
    38   139   141    1
    39   139   138    1
    40   164   163    1
    41    47    48    2
    42    47    56   am
    43   170   171    1
    44   121   122    1
    45   129   128    1
    46   129   132    1
    47   129   130    1
    48   132   133    1
    49   163   158   am
    50   134   130   am
    51   134   135    1
    52    96    99    1
    53    96    95    1
    54    56    57    1
    55   130   131    2
    56    99   101    1
    57   127   125    1
    58   138   135    1
    59   173   172    2
    60   171   172    1
    61   171   174    1
    62   122   125    1
    63   122   123    1
    64   135   136    1
    65   176   178   ar
    66   176   175   ar
    67   158   159    2
    68   158   157    1
    69    61    60    1
    70    61    62    1
    71   125   126    1
    72    60    57    1
    73    57    58    1
    74   174   175    1
    75   123   124    2
    76   178   179   ar
    77   175   177   ar
    78   152   151    2
    79   137   136    2
    80   157   160    1
    81   157   156    1
    82   136   142   am
    83    59    58    2
    84   179   177   ar
    85   179   181   ar
    86    62    64   am
    87    62    63    2
    88   177   180   ar
    89   160   161    1
    90   151   156   am
    91   151   150    1
    92   156   162    1
    93   181   183   ar
    94   142   143    1
    95   155   153    1
    96   180   182   ar
    97   161   162    1
    98   183   182   ar
    99   149   150    1
   100   149   144   am
   101     9     7   ar
   102     9    10   ar
   103   150   153    1
   104     7     6   ar
   105   143   144    1
   106   143   146    1
   107    44    42   am
   108   153   154    1
   109    73    71   ar
   110    73    74   ar
   111   144   145    2
   112    71    70   ar
   113    10    12   ar
   114    10     8   ar
   115    42    41    1
   116    42    43    2
   117    41    38    1
   118   148   146    1
   119    87    88    2
   120    87    86    1
   121    12    14   ar
   122     6     8   ar
   123     6     5    1
   124   146   147    1
   125    89    86    1
   126    89    90    1
   127    74    72   ar
   128     8    11   ar
   129    86    85    1
   130    39    40    2
   131    39    38    1
   132     5     2    1
   133    38    37    1
   134    90    91   ar
   135    90    92   ar
   136    14    13   ar
   137     1     2    1
   138    70    72   ar
   139    70    69    1
   140    91    93   ar
   141    65    66    1
   142    30    28   ar
   143    30    29   ar
   144    19    16    1
   145    19    20    1
   146    28    26   ar
   147    92    94   ar
   148    11    13   ar
   149    69    66    1
   150    93    94   ar
   151     2     3    1
   152    16    17    1
   153    16    15    1
   154    18    17    2
   155    29    27   ar
   156    66    67    1
   157    26    27   ar
   158    26    25    1
   159    84    83   ar
   160    84    82   ar
   161     4     3    2
   162    25    22    1
   163    68    67    2
   164    83    81   ar
   165    82    80   ar
   166    21    22    1
   167    35    36    1
   168    35    32    1
   169    22    23    1
   170    34    33    2
   171    81    80   ar
   172    31    23   am
   173    31    32    1
   174    23    24    2
   175    80    79    1
   176    33    32    1
   177    79    76    1
   178    75    76    1
   179    76    77    1
   180    77    78    2
