@<TRIPOS>MOLECULE
tmp/5e2oA00.pdb
 210 209 0 0 0
SMALL
GASTEIGER

@<TRIPOS>ATOM
      1  N         49.4210  -27.1680   37.2430 N.3    26  ARG26      -0.1231
      2  CA        49.2110  -25.7760   36.8650 C.3    26  ARG26       0.1694
      3  C         47.7350  -25.4480   37.0740 C.2    26  ARG26       0.2592
      4  O         46.9050  -26.3610   37.1400 O.2    26  ARG26      -0.2718
      5  CB        49.6330  -25.5520   35.3870 C.3    26  ARG26       0.0321
      6  CG        48.7390  -26.2980   34.3880 C.3    26  ARG26       0.0489
      7  CD        49.1520  -26.1430   32.9380 C.3    26  ARG26       0.2205
      8  NE        48.3660  -27.0360   32.0770 N.pl3  26  ARG26      -0.0865
      9  CZ        47.1660  -26.7520   31.5660 C.cat  26  ARG26       0.5346
     10  NH1       46.5910  -25.5770   31.8070 N.pl3  26  ARG26       0.1354
     11  NH2       46.5310  -27.6420   30.8130 N.pl3  26  ARG26       0.1354
     12  N         47.4190  -24.1530   37.1760 N.am   27  HIS27      -0.1962
     13  CA        46.0560  -23.6420   37.2990 C.3    27  HIS27       0.1787
     14  C         45.3330  -24.0180   35.9910 C.2    27  HIS27       0.2620
     15  O         45.8830  -23.8060   34.9110 O.2    27  HIS27      -0.2715
     16  CB        46.1020  -22.1100   37.4530 C.3    27  HIS27       0.0785
     17  CG        44.7830  -21.4240   37.2130 C.ar   27  HIS27       0.0821
     18  ND1       43.8600  -21.2620   38.2320 N.ar   27  HIS27      -0.2267
     19  CD2       44.3020  -20.8420   36.0850 C.ar   27  HIS27       0.1154
     20  CE1       42.8360  -20.6220   37.6920 C.ar   27  HIS27       0.1986
     21  NE2       43.0580  -20.3390   36.4000 N.ar   27  HIS27      -0.2212
     22  N         44.1370  -24.5950   36.0870 N.am   28  LEU28      -0.1963
     23  CA        43.3330  -24.9450   34.9200 C.3    28  LEU28       0.1728
     24  C         42.1700  -23.9490   34.7080 C.2    28  LEU28       0.2616
     25  O         41.9590  -23.4450   33.6050 O.2    28  LEU28      -0.2715
     26  CB        42.7810  -26.3840   35.0920 C.3    28  LEU28       0.0311
     27  CG        41.8760  -26.9460   33.9730 C.3    28  LEU28       0.0022
     28  CD1       42.6540  -27.1090   32.6560 C.3    28  LEU28       0.0001
     29  CD2       41.2350  -28.2710   34.4070 C.3    28  LEU28       0.0001
     30  N         41.3930  -23.6940   35.7710 N.am   29  CYS29      -0.1968
     31  CA        40.1920  -22.8790   35.6960 C.3    29  CYS29       0.1712
     32  C         39.8730  -22.3270   37.0610 C.2    29  CYS29       0.2296
     33  O         40.4010  -22.8030   38.0650 O.2    29  CYS29      -0.2864
     34  CB        39.0390  -23.7620   35.2120 C.3    29  CYS29       0.0983
     35  SG        38.8800  -23.8650   33.4040 S.3    29  CYS29      -0.0798
     36  N         33.6130  -26.6080   29.7950 N.3    44  HIS44      -0.1226
     37  CA        34.7340  -26.6190   28.8220 C.3    44  HIS44       0.1752
     38  C         36.1100  -26.7780   29.4670 C.2    44  HIS44       0.2596
     39  O         37.0720  -27.1710   28.7830 O.2    44  HIS44      -0.2718
     40  CB        34.7020  -25.4150   27.8700 C.3    44  HIS44       0.0759
     41  CG        35.1450  -24.1330   28.4980 C.ar   44  HIS44       0.0818
     42  ND1       34.2400  -23.1840   28.9010 N.ar   44  HIS44      -0.2268
     43  CD2       36.3910  -23.6920   28.7770 C.ar   44  HIS44       0.1154
     44  CE1       34.9500  -22.1860   29.3930 C.ar   44  HIS44       0.1986
     45  NE2       36.2480  -22.4430   29.3350 N.ar   44  HIS44      -0.2212
     46  N         36.2110  -26.5150   30.7800 N.am   45  CYS45      -0.1970
     47  CA        37.4690  -26.6950   31.5290 C.3    45  CYS45       0.1712
     48  C         37.9660  -28.1440   31.4600 C.2    45  CYS45       0.2296
     49  O         39.1570  -28.3870   31.6250 O.2    45  CYS45      -0.2864
     50  CB        37.2490  -26.2900   32.9840 C.3    45  CYS45       0.0983
     51  SG        36.9720  -24.5230   33.2130 S.3    45  CYS45      -0.0798
     52  N         37.8150  -30.3120   28.9140 N.3    47  TYR47      -0.1241
     53  CA        38.0880  -30.8490   27.5750 C.3    47  TYR47       0.1605
     54  C         39.3450  -31.7280   27.7020 C.2    47  TYR47       0.2264
     55  O         40.3520  -31.2670   28.2450 O.2    47  TYR47      -0.2867
     56  CB        38.3020  -29.7200   26.5370 C.3    47  TYR47       0.0534
     57  CG        38.6850  -30.2760   25.1780 C.ar   47  TYR47      -0.0201
     58  CD1       37.7160  -30.7570   24.3050 C.ar   47  TYR47      -0.0009
     59  CD2       40.0240  -30.4090   24.8080 C.ar   47  TYR47      -0.0009
     60  CE1       38.0590  -31.2910   23.0640 C.ar   47  TYR47       0.0417
     61  CE2       40.3820  -30.9440   23.5650 C.ar   47  TYR47       0.0417
     62  CZ        39.3900  -31.3810   22.6960 C.ar   47  TYR47       0.1957
     63  OH        39.6960  -31.9280   21.4730 O.3    47  TYR47      -0.2866
     64  N         44.8070  -14.1960   32.3320 N.3   134  TYR134     -0.1241
     65  CA        45.6500  -13.2320   31.6290 C.3   134  TYR134      0.1605
     66  C         45.1010  -11.8200   31.7570 C.2   134  TYR134      0.2264
     67  O         43.8820  -11.6490   31.8140 O.2   134  TYR134     -0.2867
     68  CB        45.6550  -13.5840   30.1360 C.3   134  TYR134      0.0534
     69  CG        46.3990  -14.8230   29.6900 C.ar  134  TYR134     -0.0201
     70  CD1       46.7110  -15.8440   30.5920 C.ar  134  TYR134     -0.0009
     71  CD2       46.7380  -15.0070   28.3530 C.ar  134  TYR134     -0.0009
     72  CE1       47.3400  -17.0140   30.1680 C.ar  134  TYR134      0.0417
     73  CE2       47.3770  -16.1700   27.9190 C.ar  134  TYR134      0.0417
     74  CZ        47.6800  -17.1650   28.8280 C.ar  134  TYR134      0.1957
     75  OH        48.3210  -18.2900   28.3810 O.3   134  TYR134     -0.2866
     76  N         45.4770  -10.7140   25.8480 N.3   137  LEU137     -0.1245
     77  CA        45.4190  -11.9610   25.0830 C.3   137  LEU137      0.1561
     78  C         46.7210  -12.7700   25.1180 C.2   137  LEU137      0.2260
     79  O         46.6510  -13.9820   25.3160 O.2   137  LEU137     -0.2867
     80  CB        44.9140  -11.7680   23.6380 C.3   137  LEU137      0.0270
     81  CG        44.2890  -13.0160   22.9620 C.3   137  LEU137      0.0019
     82  CD1       43.1110  -13.5920   23.7520 C.3   137  LEU137      0.0001
     83  CD2       43.8340  -12.7110   21.5450 C.3   137  LEU137      0.0001
     84  N         50.1310  -14.4910   30.7420 N.3   140  LYS140     -0.1231
     85  CA        50.3190  -15.6690   31.5610 C.3   140  LYS140      0.1693
     86  C         49.3960  -15.5720   32.7710 C.2   140  LYS140      0.2591
     87  O         48.8930  -14.4930   33.0790 O.2   140  LYS140     -0.2718
     88  CB        51.8020  -15.7800   31.9950 C.3   140  LYS140      0.0285
     89  CG        52.3320  -14.6100   32.8150 C.3   140  LYS140      0.0035
     90  CD        53.6080  -15.0110   33.5460 C.3   140  LYS140      0.0206
     91  CE        54.8280  -14.2410   33.0940 C.3   140  LYS140      0.1093
     92  NZ        54.8370  -12.8430   33.6070 N.3   140  LYS140     -0.1314
     93  N         49.1630  -16.7040   33.4340 N.am  141  ILE141     -0.1980
     94  CA        48.3760  -16.8210   34.6680 C.3   141  ILE141      0.1595
     95  C         48.9710  -15.8660   35.7050 C.2   141  ILE141      0.2287
     96  O         50.1900  -15.7810   35.8250 O.2   141  ILE141     -0.2864
     97  CB        48.3630  -18.3200   35.1410 C.3   141  ILE141      0.0276
     98  CG1       47.6190  -19.2030   34.1100 C.3   141  ILE141      0.0022
     99  CG2       47.7780  -18.5130   36.5620 C.3   141  ILE141      0.0022
    100  CD1       46.2040  -18.6240   33.6020 C.3   141  ILE141      0.0001
    101  N         37.4280   -7.1520   31.3870 N.3   182  ASP182     -0.1225
    102  CA        36.7960   -8.4320   31.0110 C.3   182  ASP182      0.1805
    103  C         37.5550   -9.5730   31.6240 C.2   182  ASP182      0.2598
    104  O         38.6630   -9.3850   32.0990 O.2   182  ASP182     -0.2718
    105  CB        36.9150   -8.6140   29.4640 C.3   182  ASP182      0.1424
    106  CG        36.0480   -9.6670   28.7890 C.2   182  ASP182      0.3668
    107  OD1       35.1400  -10.2180   29.4580 O.co2 182  ASP182     -0.2456
    108  OD2       36.2770   -9.9430   27.5970 O.co2 182  ASP182     -0.2456
    109  N         37.0090  -10.7880   31.4660 N.am  183  ALA183     -0.1966
    110  CA        37.6940  -12.0260   31.7680 C.3   183  ALA183      0.1728
    111  C         38.6100  -12.2910   30.5910 C.2   183  ALA183      0.2616
    112  O         38.4240  -11.7050   29.5130 O.2   183  ALA183     -0.2715
    113  CB        36.6870  -13.1490   31.8820 C.3   183  ALA183      0.0334
    114  N         39.6220  -13.1450   30.7940 N.am  184  CYS184     -0.1954
    115  CA        40.5310  -13.5700   29.7340 C.3   184  CYS184      0.1843
    116  C         41.0170  -14.9730   30.0390 C.2   184  CYS184      0.2625
    117  O         40.4990  -15.5920   30.9730 O.2   184  CYS184     -0.2714
    118  CB        41.6810  -12.5860   29.5030 C.3   184  CYS184      0.0997
    119  SG        42.4890  -12.7770   27.8860 S.3   184  CYS184     -0.0797
    120  N         41.9130  -15.5270   29.2390 N.am  185  LYS185     -0.1963
    121  CA        42.4270  -16.8980   29.4060 C.3   185  LYS185      0.1728
    122  C         42.8120  -17.2390   30.8470 C.2   185  LYS185      0.2617
    123  O         43.6440  -16.5570   31.4370 O.2   185  LYS185     -0.2715
    124  CB        43.6210  -17.1170   28.4710 C.3   185  LYS185      0.0311
    125  CG        43.2280  -17.1160   27.0140 C.3   185  LYS185      0.0038
    126  CD        44.4170  -17.4780   26.1140 C.3   185  LYS185      0.0206
    127  CE        44.0330  -17.4850   24.6520 C.3   185  LYS185      0.1093
    128  NZ        45.0400  -18.2110   23.8370 N.3   185  LYS185     -0.1314
    129  N         42.2130  -18.2910   31.3910 N.am  186  GLY186     -0.1940
    130  CA        42.4570  -18.7320   32.7670 C.3   186  GLY186      0.2014
    131  C         41.3750  -18.3270   33.7450 C.2   186  GLY186      0.2639
    132  O         41.3190  -18.8480   34.8730 O.2   186  GLY186     -0.2714
    133  N         40.4890  -17.4060   33.3260 N.am  187  ASP187     -0.1957
    134  CA        39.4080  -16.9660   34.2210 C.3   187  ASP187      0.1840
    135  C         38.1530  -17.8520   34.1480 C.2   187  ASP187      0.2622
    136  O         37.3260  -17.8270   35.0720 O.2   187  ASP187     -0.2715
    137  CB        39.0420  -15.5110   33.9460 C.3   187  ASP187      0.1450
    138  CG        40.1510  -14.5550   34.2950 C.2   187  ASP187      0.3671
    139  OD1       40.7330  -14.6990   35.3890 O.co2 187  ASP187     -0.2456
    140  OD2       40.3970  -13.6280   33.5030 O.co2 187  ASP187     -0.2456
    141  N         38.0150  -18.6270   33.0440 N.am  188  SER188     -0.1950
    142  CA        36.8710  -19.5280   32.8080 C.3   188  SER188      0.1924
    143  C         36.5320  -20.3600   34.0040 C.2   188  SER188      0.2314
    144  O         37.4480  -20.8370   34.6830 O.2   188  SER188     -0.2863
    145  CB        37.1780  -20.4820   31.6680 C.3   188  SER188      0.2116
    146  OG        36.8970  -19.8420   30.4430 O.3   188  SER188     -0.2180
    147  N         32.0820  -17.5900   34.1650 N.3   206  THR206     -0.1203
    148  CA        32.9010  -17.1160   33.0340 C.3   206  THR206      0.1994
    149  C         32.9950  -18.2090   31.9850 C.2   206  THR206      0.2619
    150  O         33.4140  -19.3180   32.2950 O.2   206  THR206     -0.2717
    151  CB        34.2630  -16.6570   33.5420 C.3   206  THR206      0.1784
    152  OG1       34.0530  -15.6500   34.5460 O.3   206  THR206     -0.2211
    153  CG2       35.1710  -16.1520   32.3960 C.3   206  THR206      0.0376
    154  N         32.5860  -17.9010   30.7490 N.am  207  SER207     -0.1937
    155  CA        32.5110  -18.9150   29.7170 C.3   207  SER207      0.2055
    156  C         33.3250  -18.5820   28.4840 C.2   207  SER207      0.2643
    157  O         34.3560  -19.2320   28.2550 O.2   207  SER207     -0.2714
    158  CB        31.0430  -19.2060   29.3800 C.3   207  SER207      0.2130
    159  OG        30.8990  -20.2730   28.4590 O.3   207  SER207     -0.2179
    160  N         32.9050  -17.5710   27.7080 N.am  208  TRP208     -0.1959
    161  CA        33.6350  -17.2580   26.4640 C.3   208  TRP208      0.1771
    162  C         33.4690  -15.8040   25.9880 C.2   208  TRP208      0.2620
    163  O         32.6800  -15.0550   26.5440 O.2   208  TRP208     -0.2715
    164  CB        33.2350  -18.2640   25.3510 C.3   208  TRP208      0.0590
    165  CG        31.8080  -18.1360   24.9120 C.ar  208  TRP208      0.0006
    166  CD1       30.7090  -18.6670   25.5200 C.ar  208  TRP208      0.0946
    167  CD2       31.3230  -17.3780   23.7860 C.ar  208  TRP208      0.0152
    168  NE1       29.5690  -18.2700   24.8620 N.ar  208  TRP208     -0.2442
    169  CE2       29.9200  -17.5330   23.7550 C.ar  208  TRP208      0.0810
    170  CE3       31.9520  -16.6300   22.7610 C.ar  208  TRP208      0.0012
    171  CZ2       29.1250  -16.9620   22.7460 C.ar  208  TRP208      0.0191
    172  CZ3       31.1580  -16.0210   21.7930 C.ar  208  TRP208      0.0001
    173  CH2       29.7690  -16.2210   21.7680 C.ar  208  TRP208      0.0015
    174  N         34.2630  -15.4200   24.9960 N.am  209  GLY209     -0.1954
    175  CA        34.2200  -14.1050   24.3580 C.3   209  GLY209      0.1869
    176  C         35.0900  -14.0820   23.1150 C.2   209  GLY209      0.2309
    177  O         35.9250  -14.9740   22.9390 O.2   209  GLY209     -0.2863
    178  N         38.0780  -12.6830   21.7780 N.3   211  GLY211     -0.1210
    179  CA        39.2620  -12.0120   22.3150 C.3   211  GLY211      0.1956
    180  C         38.9830  -11.6050   23.7550 C.2   211  GLY211      0.2612
    181  O         38.0650  -12.1590   24.3740 O.2   211  GLY211     -0.2717
    182  N         39.7200  -10.6390   24.3180 N.am  212  CYS212     -0.1970
    183  CA        39.5110  -10.2280   25.7110 C.3   212  CYS212      0.1712
    184  C         39.3450   -8.7260   25.8170 C.2   212  CYS212      0.2296
    185  O         40.2100   -8.0290   25.3020 O.2   212  CYS212     -0.2864
    186  CB        40.6740  -10.6980   26.5760 C.3   212  CYS212      0.0983
    187  SG        40.9920  -12.4850   26.5190 S.3   212  CYS212     -0.0798
    188  N         31.8290  -10.1060   27.5480 N.3   219  GLY219     -0.1210
    189  CA        32.1770  -11.4460   27.9910 C.3   219  GLY219      0.1956
    190  C         30.8670  -12.1980   28.0820 C.2   219  GLY219      0.2612
    191  O         29.8530  -11.5970   28.4200 O.2   219  GLY219     -0.2717
    192  N         30.8530  -13.4890   27.7230 N.am  220  VAL220     -0.1965
    193  CA        29.6440  -14.3400   27.7720 C.3   220  VAL220      0.1727
    194  C         29.8210  -15.3020   28.9090 C.2   220  VAL220      0.2616
    195  O         30.8750  -15.9380   29.0520 O.2   220  VAL220     -0.2715
    196  CB        29.3240  -15.0370   26.4320 C.3   220  VAL220      0.0290
    197  CG1       27.9320  -15.6790   26.4540 C.3   220  VAL220      0.0023
    198  CG2       29.4370  -14.0470   25.2560 C.3   220  VAL220      0.0023
    199  N         28.7840  -15.3710   29.7460 N.am  221  TYR221     -0.1974
    200  CA        28.7240  -16.1300   30.9740 C.3   221  TYR221      0.1639
    201  C         27.5410  -17.0570   30.9790 C.2   221  TYR221      0.2290
    202  O         26.5120  -16.7150   30.4170 O.2   221  TYR221     -0.2864
    203  CB        28.5750  -15.1470   32.1700 C.3   221  TYR221      0.0560
    204  CG        29.7360  -14.1790   32.3150 C.ar  221  TYR221     -0.0198
    205  CD1       29.8270  -13.0380   31.5200 C.ar  221  TYR221     -0.0009
    206  CD2       30.7390  -14.3970   33.2620 C.ar  221  TYR221     -0.0009
    207  CE1       30.9110  -12.1650   31.6310 C.ar  221  TYR221      0.0417
    208  CE2       31.8410  -13.5470   33.3590 C.ar  221  TYR221      0.0417
    209  CZ        31.9140  -12.4210   32.5530 C.ar  221  TYR221      0.1957
    210  OH        32.9580  -11.5320   32.7130 O.3   221  TYR221     -0.2866
@<TRIPOS>BOND
     1    63    62    1
     2    83    81    1
     3   173   172   ar
     4   173   171   ar
     5   178   179    1
     6   172   170   ar
     7   179   180    1
     8    62    60   ar
     9    62    61   ar
    10   171   169   ar
    11   170   167   ar
    12   177   176    2
    13    81    80    1
    14    81    82    1
    15    60    58   ar
    16   176   175    1
    17    61    59   ar
    18    80    77    1
    19   180   182   am
    20   180   181    2
    21   169   167   ar
    22   169   168   ar
    23   167   165   ar
    24   128   127    1
    25    58    57   ar
    26   182   183    1
    27   175   174    1
    28   127   126    1
    29    59    57   ar
    30   168   166   ar
    31   165   164    1
    32   165   166   ar
    33   174   162   am
    34    77    78    1
    35    77    76    1
    36    78    79    2
    37    57    56    1
    38   198   196    1
    39   185   184    2
    40   164   161    1
    41   183   184    1
    42   183   186    1
    43   162   161    1
    44   162   163    2
    45   126   125    1
    46   196   197    1
    47   196   193    1
    48   161   160    1
    49   187   186    1
    50   187   119    1
    51    56    53    1
    52   125   124    1
    53   188   189    1
    54    53    54    1
    55    53    52    1
    56   108   106   ar
    57    54    55    2
    58   160   156   am
    59   192   193    1
    60   192   190   am
    61   193   194    1
    62    40    41    1
    63    40    37    1
    64   119   118    1
    65    73    71   ar
    66    73    74   ar
    67   189   190    1
    68   190   191    2
    69   157   156    2
    70    71    69   ar
    71    75    74    1
    72   159   158    1
    73   124   121    1
    74   156   155    1
    75    41    43   ar
    76    41    42   ar
    77    43    45   ar
    78    39    38    2
    79   106   107   ar
    80   106   105    1
    81    37    38    1
    82    37    36    1
    83    74    72   ar
    84    42    44   ar
    85   194   195    2
    86   194   199   am
    87   120   121    1
    88   120   116   am
    89    45    44   ar
    90   158   155    1
    91   121   122    1
    92   105   102    1
    93    38    46   am
    94   118   115    1
    95   112   111    2
    96    69    68    1
    97    69    70   ar
    98   155   154    1
    99   115   116    1
   100   115   114    1
   101   199   200    1
   102   116   117    2
   103    68    65    1
   104    72    70   ar
   105   202   201    2
   106   146   145    1
   107   111   114   am
   108   111   110    1
   109    84    85    1
   110   154   149   am
   111    46    47    1
   112    11     9    1
   113   122   129   am
   114   122   123    2
   115   200   201    1
   116   200   203    1
   117   102   101    1
   118   102   103    1
   119   129   130    1
   120    48    47    1
   121    48    49    2
   122   109   103   am
   123   109   110    1
   124   205   207   ar
   125   205   204   ar
   126    47    50    1
   127    85    88    1
   128    85    86    1
   129     9    10    1
   130     9     8    2
   131   103   104    2
   132    65    66    1
   133    65    64    1
   134   207   209   ar
   135   145   142    1
   136    66    67    2
   137   110   113    1
   138   149   150    2
   139   149   148    1
   140    88    89    1
   141     8     7    1
   142   203   204    1
   143   204   206   ar
   144   153   151    1
   145   209   210    1
   146   209   208   ar
   147    28    27    1
   148   130   131    1
   149    86    87    2
   150    86    93   am
   151   142   141    1
   152   142   143    1
   153    89    90    1
   154     7     6    1
   155    50    51    1
   156   148   151    1
   157   148   147    1
   158   141   135   am
   159    91    90    1
   160    91    92    1
   161    51    35    1
   162   206   208   ar
   163   133   131   am
   164   133   134    1
   165    35    34    1
   166    93    94    1
   167   140   138   ar
   168   151   152    1
   169   100    98    1
   170    25    24    2
   171   131   132    2
   172   137   134    1
   173   137   138    1
   174    27    29    1
   175    27    26    1
   176   143   144    2
   177    98    97    1
   178   135   134    1
   179   135   136    2
   180   138   139   ar
   181     6     5    1
   182    94    97    1
   183    94    95    1
   184    24    23    1
   185    24    30   am
   186    15    14    2
   187    23    26    1
   188    23    22    1
   189    97    99    1
   190    34    31    1
   191     5     2    1
   192    31    30    1
   193    31    32    1
   194    95    96    2
   195    14    22   am
   196    14    13    1
   197    19    21   ar
   198    19    17   ar
   199    21    20   ar
   200     2     3    1
   201     2     1    1
   202    32    33    2
   203     3     4    2
   204     3    12   am
   205    12    13    1
   206    17    16    1
   207    17    18   ar
   208    13    16    1
   209    20    18   ar
