@<TRIPOS>MOLECULE
tmp/5e2rA00.pdb
 150 146 0 0 0
SMALL
GASTEIGER

@<TRIPOS>ATOM
      1  N        -12.7420    6.3240   11.1640 N.3    93  GLN93      -0.1245
      2  CA       -12.4300    5.1570   10.3470 C.3    93  GLN93       0.1566
      3  C        -12.5850    3.8660   11.1190 C.2    93  GLN93       0.2260
      4  O        -12.6520    3.8740   12.3440 O.2    93  GLN93      -0.2867
      5  CB       -10.9720    5.2360    9.8580 C.3    93  GLN93       0.0367
      6  CG        -9.9460    5.3190   11.0110 C.3    93  GLN93       0.0905
      7  CD        -9.1110    4.0550   11.2010 C.2    93  GLN93       0.2608
      8  OE1       -9.6060    2.9370   11.0720 O.2    93  GLN93      -0.2717
      9  NE2       -7.8410    4.2390   11.5380 N.am   93  GLN93      -0.0878
     10  N        -11.2380   -0.4650   10.8390 N.3    95  HIS95      -0.1241
     11  CA       -10.3530   -1.4170   10.1990 C.3    95  HIS95       0.1621
     12  C        -10.4100   -2.6860   11.0270 C.2    95  HIS95       0.2264
     13  O        -11.0700   -2.7320   12.0740 O.2    95  HIS95      -0.2867
     14  CB        -8.9080   -0.9050   10.1730 C.3    95  HIS95       0.0745
     15  CG        -8.3580   -0.5890   11.5320 C.ar   95  HIS95       0.0817
     16  ND1       -8.4910    0.6340   12.1510 N.ar   95  HIS95      -0.2268
     17  CD2       -7.7300   -1.3870   12.4300 C.ar   95  HIS95       0.1154
     18  CE1       -7.9570    0.5390   13.3780 C.ar   95  HIS95       0.1986
     19  NE2       -7.4790   -0.6730   13.5950 N.ar   95  HIS95      -0.2212
     20  N         -8.0640   -6.4640   12.2860 N.3    97  HIS97      -0.1241
     21  CA        -6.7930   -7.1550   12.5120 C.3    97  HIS97       0.1621
     22  C         -7.2240   -8.6160   12.3980 C.2    97  HIS97       0.2264
     23  O         -8.2670   -8.9870   12.9280 O.2    97  HIS97      -0.2867
     24  CB        -6.2260   -6.8900   13.9080 C.3    97  HIS97       0.0745
     25  CG        -5.8790   -5.4590   14.1530 C.ar   97  HIS97       0.0817
     26  ND1       -4.6300   -4.9170   13.9330 N.ar   97  HIS97      -0.2268
     27  CD2       -6.6650   -4.4300   14.5580 C.ar   97  HIS97       0.1154
     28  CE1       -4.6990   -3.6030   14.2090 C.ar   97  HIS97       0.1986
     29  NE2       -5.9140   -3.2650   14.5900 N.ar   97  HIS97      -0.2212
     30  N        -12.0110   -2.5740   14.7200 N.3   120  HIS120     -0.1241
     31  CA       -11.7680   -1.3660   15.5000 C.3   120  HIS120      0.1621
     32  C        -12.4440   -0.1700   14.8340 C.2   120  HIS120      0.2264
     33  O        -12.1040    0.1800   13.7020 O.2   120  HIS120     -0.2867
     34  CB       -10.2590   -1.1120   15.6010 C.3   120  HIS120      0.0745
     35  CG        -9.5540   -2.0970   16.4740 C.ar  120  HIS120      0.0817
     36  ND1       -8.1930   -2.2850   16.4080 N.ar  120  HIS120     -0.2268
     37  CD2      -10.0740   -2.9060   17.4310 C.ar  120  HIS120      0.1154
     38  CE1       -7.9160   -3.1980   17.3210 C.ar  120  HIS120      0.1986
     39  NE2       -9.0160   -3.6040   17.9690 N.ar  120  HIS120     -0.2212
     40  N        -12.7060    3.5650   15.1270 N.3   122  VAL122     -0.1245
     41  CA       -11.9310    4.6450   15.7410 C.3   122  VAL122      0.1561
     42  C        -12.6360    5.9910   15.7690 C.2   122  VAL122      0.2260
     43  O        -13.0490    6.4930   14.7280 O.2   122  VAL122     -0.2867
     44  CB       -10.5810    4.8000   14.9870 C.3   122  VAL122      0.0252
     45  CG1       -9.6800    5.8040   15.7040 C.3   122  VAL122      0.0019
     46  CG2       -9.8840    3.4330   14.8740 C.3   122  VAL122      0.0019
     47  N         -8.4200   15.0160   14.5550 N.3   131  PHE131     -0.1227
     48  CA        -7.8100   13.7380   14.8850 C.3   131  PHE131      0.1736
     49  C         -6.3450   13.8580   15.2980 C.2   131  PHE131      0.2596
     50  O         -5.9210   13.2490   16.2820 O.2   131  PHE131     -0.2718
     51  CB        -7.9630   12.7970   13.6880 C.3   131  PHE131      0.0547
     52  CG        -7.3960   11.4290   13.9090 C.ar  131  PHE131     -0.0202
     53  CD1       -8.0460   10.5080   14.7260 C.ar  131  PHE131     -0.0042
     54  CD2       -6.2150   11.0600   13.2930 C.ar  131  PHE131     -0.0042
     55  CE1       -7.5250    9.2390   14.9200 C.ar  131  PHE131     -0.0003
     56  CE2       -5.6800    9.7940   13.4780 C.ar  131  PHE131     -0.0003
     57  CZ        -6.3370    8.8800   14.2930 C.ar  131  PHE131     -0.0000
     58  N         -5.5770   14.6420   14.5480 N.am  132  GLY132     -0.1957
     59  CA        -4.1730   14.8130   14.8570 C.3   132  GLY132      0.1869
     60  C         -3.9080   15.3860   16.2370 C.2   132  GLY132      0.2309
     61  O         -2.9490   14.9890   16.8940 O.2   132  GLY132     -0.2863
     62  N         -4.9630   12.6130   19.1330 N.3   135  VAL135     -0.1231
     63  CA        -4.0650   11.5140   19.5030 C.3   135  VAL135      0.1692
     64  C         -2.9340   11.9540   20.4330 C.2   135  VAL135      0.2591
     65  O         -2.2180   11.1260   20.9870 O.2   135  VAL135     -0.2718
     66  CB        -3.4790   10.7670   18.2600 C.3   135  VAL135      0.0266
     67  CG1       -4.6150   10.2190   17.4120 C.3   135  VAL135      0.0020
     68  CG2       -2.5790   11.6790   17.4440 C.3   135  VAL135      0.0020
     69  N         -2.8000   13.2600   20.6370 N.am  136  GLN136     -0.1979
     70  CA        -1.7710   13.7650   21.5310 C.3   136  GLN136      0.1601
     71  C         -2.3190   13.9370   22.9540 C.2   136  GLN136      0.2287
     72  O         -1.6160   14.4390   23.8400 O.2   136  GLN136     -0.2864
     73  CB        -1.2350   15.1000   20.9990 C.3   136  GLN136      0.0394
     74  CG        -0.5800   14.9580   19.6300 C.3   136  GLN136      0.0908
     75  CD        -0.0850   16.2710   19.0570 C.2   136  GLN136      0.2608
     76  OE1        0.7540   16.9440   19.6540 O.2   136  GLN136     -0.2717
     77  NE2       -0.6020   16.6390   17.8870 N.am  136  GLN136     -0.0878
     78  N         -8.9390    9.5980   22.0230 N.3   141  LEU141     -0.1245
     79  CA        -9.6500    8.6580   21.1710 C.3   141  LEU141      0.1561
     80  C        -10.4740    7.6650   21.9580 C.2   141  LEU141      0.2260
     81  O        -10.2030    7.4030   23.1230 O.2   141  LEU141     -0.2867
     82  CB        -8.6620    7.8500   20.3150 C.3   141  LEU141      0.0270
     83  CG        -7.7410    8.5070   19.2870 C.3   141  LEU141      0.0019
     84  CD1       -7.1260    7.4050   18.4160 C.3   141  LEU141      0.0001
     85  CD2       -8.4990    9.4770   18.4100 C.3   141  LEU141      0.0001
     86  N        -11.8980    3.8390   20.9860 N.3   143  VAL143     -0.1245
     87  CA       -11.9420    2.8130   19.9610 C.3   143  VAL143      0.1561
     88  C        -12.8740    1.7120   20.4500 C.2   143  VAL143      0.2260
     89  O        -12.7200    1.1850   21.5610 O.2   143  VAL143     -0.2867
     90  CB       -10.5540    2.2170   19.6560 C.3   143  VAL143      0.0252
     91  CG1      -10.6700    1.2620   18.4620 C.3   143  VAL143      0.0019
     92  CG2       -9.5800    3.3310   19.3130 C.3   143  VAL143      0.0019
     93  N         -2.8560    3.1020   21.1320 N.3   198  LEU198     -0.1231
     94  CA        -3.0160    2.6630   19.7530 C.3   198  LEU198      0.1693
     95  C         -2.2740    1.3270   19.7600 C.2   198  LEU198      0.2593
     96  O         -1.2600    1.1790   20.4590 O.2   198  LEU198     -0.2718
     97  CB        -2.2750    3.6000   18.8040 C.3   198  LEU198      0.0284
     98  CG        -2.6640    5.0730   18.8260 C.3   198  LEU198      0.0019
     99  CD1       -1.8030    5.8230   17.8060 C.3   198  LEU198      0.0001
    100  CD2       -4.1540    5.2370   18.5010 C.3   198  LEU198      0.0001
    101  N         -2.7380    0.3610   18.9770 N.am  199  THR199     -0.1939
    102  CA        -2.0580   -0.9340   18.9480 C.3   199  THR199      0.2028
    103  C         -0.9880   -1.0470   17.8690 C.2   199  THR199      0.2643
    104  O         -0.3930   -2.1100   17.7030 O.2   199  THR199     -0.2714
    105  CB        -3.0390   -2.0990   18.7900 C.3   199  THR199      0.1808
    106  OG1       -3.6530   -2.0390   17.4970 O.3   199  THR199     -0.2208
    107  CG2       -4.0870   -2.0660   19.9040 C.3   199  THR199      0.0379
    108  N         -0.7680    0.0280   17.1100 N.am  200  THR200     -0.1937
    109  CA         0.3120    0.0430   16.1230 C.3   200  THR200      0.2013
    110  C          1.0700    1.3360   16.3380 C.2   200  THR200      0.2484
    111  O          0.5530    2.2720   16.9440 O.2   200  THR200     -0.2729
    112  CB        -0.1630    0.0900   14.6490 C.3   200  THR200      0.1807
    113  OG1       -0.7200    1.3810   14.3680 O.3   200  THR200     -0.2208
    114  CG2       -1.1730   -0.9910   14.3580 C.3   200  THR200      0.0379
    115  N          2.3210    1.4000   15.8600 N.am  201  PRO201     -0.2715
    116  CA         3.0780    2.6410   16.0260 C.3   201  PRO201      0.1521
    117  C          2.1940    3.7670   15.4700 C.2   201  PRO201      0.2440
    118  O          1.4930    3.5780   14.4670 O.2   201  PRO201     -0.2731
    119  CB         4.3110    2.3960   15.1590 C.3   201  PRO201      0.0310
    120  CG         4.5550    0.9270   15.3410 C.3   201  PRO201      0.0237
    121  CD         3.1450    0.3390   15.2500 C.3   201  PRO201      0.0939
    122  N          2.2830    4.9740   16.0410 N.am  202  PRO202     -0.2727
    123  CA         3.1400    5.3990   17.1500 C.3   202  PRO202      0.1402
    124  C          2.8190    4.9230   18.5720 C.2   202  PRO202      0.2269
    125  O          3.4430    5.3840   19.5250 O.2   202  PRO202     -0.2865
    126  CB         3.1250    6.9170   17.0150 C.3   202  PRO202      0.0296
    127  CG         1.7150    7.1860   16.5640 C.3   202  PRO202      0.0237
    128  CD         1.4940    6.1090   15.5200 C.3   202  PRO202      0.0939
    129  N          0.6050    5.5940   20.6820 N.3   204  LEU204     -0.1245
    130  CA         0.2630    6.6680   21.6130 C.3   204  LEU204      0.1561
    131  C         -0.7750    6.2370   22.6520 C.2   204  LEU204      0.2260
    132  O         -1.7500    5.5480   22.3340 O.2   204  LEU204     -0.2867
    133  CB        -0.2220    7.8920   20.8240 C.3   204  LEU204      0.0270
    134  CG         0.8320    8.4380   19.8470 C.3   204  LEU204      0.0019
    135  CD1        0.2160    9.5050   18.9420 C.3   204  LEU204      0.0001
    136  CD2        1.9940    9.0160   20.6380 C.3   204  LEU204      0.0001
    137  N        -10.4240    2.3550   25.5910 N.3   209  TRP209     -0.1241
    138  CA       -10.8820    1.1700   24.8890 C.3   209  TRP209      0.1605
    139  C        -12.2360    0.6990   25.3960 C.2   209  TRP209      0.2264
    140  O        -12.4720    0.6330   26.5990 O.2   209  TRP209     -0.2867
    141  CB        -9.8650    0.0280   25.0390 C.3   209  TRP209      0.0550
    142  CG        -8.7600    0.1160   24.0500 C.ar  209  TRP209      0.0003
    143  CD1       -7.5380    0.7020   24.2250 C.ar  209  TRP209      0.0946
    144  CD2       -8.8230   -0.2990   22.6850 C.ar  209  TRP209      0.0152
    145  NE1       -6.8370    0.6820   23.0370 N.ar  209  TRP209     -0.2442
    146  CE2       -7.6040    0.0700   22.0780 C.ar  209  TRP209      0.0810
    147  CE3       -9.8000   -0.9480   21.9110 C.ar  209  TRP209      0.0012
    148  CZ2       -7.3310   -0.1880   20.7290 C.ar  209  TRP209      0.0191
    149  CZ3       -9.5290   -1.2040   20.5640 C.ar  209  TRP209      0.0001
    150  CH2       -8.3030   -0.8240   19.9900 C.ar  209  TRP209      0.0015
@<TRIPOS>BOND
     1     5     2    1
     2     5     6    1
     3    14    11    1
     4    14    15    1
     5    11    10    1
     6    11    12    1
     7     2     3    1
     8     2     1    1
     9     6     7    1
    10    12    13    2
    11     8     7    2
    12     3     4    2
    13     7     9   am
    14    15    16   ar
    15    15    17   ar
    16    16    18   ar
    17    20    21    1
    18    22    21    1
    19    22    23    2
    20    17    19   ar
    21    21    24    1
    22    54    56   ar
    23    54    52   ar
    24    18    19   ar
    25    56    57   ar
    26    51    52    1
    27    51    48    1
    28    33    32    2
    29    24    25    1
    30    52    53   ar
    31    26    25   ar
    32    26    28   ar
    33    25    27   ar
    34    28    29   ar
    35    57    55   ar
    36   114   112    1
    37   113   112    1
    38   118   117    2
    39    58    59    1
    40    58    49   am
    41    47    48    1
    42    27    29   ar
    43   112   109    1
    44    30    31    1
    45    53    55   ar
    46    43    42    2
    47    32    31    1
    48    59    60    1
    49    46    44    1
    50    48    49    1
    51    44    45    1
    52    44    41    1
    53    40    41    1
    54   119   120    1
    55   119   116    1
    56   121   120    1
    57   121   115    1
    58    49    50    2
    59   117   116    1
    60   117   122   am
    61    31    34    1
    62   128   122    1
    63   128   127    1
    64    34    35    1
    65    41    42    1
    66   115   116    1
    67   115   110   am
    68   122   123    1
    69   109   110    1
    70   109   108    1
    71    60    61    2
    72   110   111    2
    73    36    35   ar
    74    36    38   ar
    75    35    37   ar
    76   127   126    1
    77   126   123    1
    78   108   103   am
    79   123   124    1
    80    38    39   ar
    81    67    66    1
    82    37    39   ar
    83    68    66    1
    84   106   105    1
    85   104   103    2
    86    99    98    1
    87   103   102    1
    88    77    75   am
    89    66    63    1
    90    85    83    1
    91    84    83    1
    92    91    90    1
    93   100    98    1
    94   124   125    2
    95   105   102    1
    96   105   107    1
    97    97    98    1
    98    97    94    1
    99   135   134    1
   100   102   101    1
   101   101    95   am
   102    75    74    1
   103    75    76    2
   104    62    63    1
   105    83    82    1
   106    92    90    1
   107    63    64    1
   108    74    73    1
   109    90    87    1
   110    94    95    1
   111    94    93    1
   112    95    96    2
   113   134   136    1
   114   134   133    1
   115    87    88    1
   116    87    86    1
   117   150   149   ar
   118   150   148   ar
   119    82    79    1
   120    64    69   am
   121    64    65    2
   122    88    89    2
   123   149   147   ar
   124    69    70    1
   125   129   130    1
   126   148   146   ar
   127   133   130    1
   128    73    70    1
   129    79    80    1
   130    79    78    1
   131    70    71    1
   132   130   131    1
   133   147   144   ar
   134    80    81    2
   135   146   144   ar
   136   146   145   ar
   137   132   131    2
   138   144   142   ar
   139    71    72    2
   140   145   143   ar
   141   142   143   ar
   142   142   141    1
   143   138   141    1
   144   138   139    1
   145   138   137    1
   146   139   140    2
