@<TRIPOS>MOLECULE
tmp/5e2sA00.pdb
 161 159 0 0 0
SMALL
GASTEIGER

@<TRIPOS>ATOM
      1  N          8.4840   -0.5470   10.5110 N.3     3  TRP3       -0.1241
      2  CA         7.7610   -1.4780   11.3690 C.3     3  TRP3        0.1605
      3  C          6.7420   -2.2660   10.5590 C.2     3  TRP3        0.2264
      4  O          6.1920   -1.7590    9.5640 O.2     3  TRP3       -0.2867
      5  CB         7.0840   -0.7450   12.5400 C.3     3  TRP3        0.0550
      6  CG         5.8720    0.0630   12.1640 C.ar    3  TRP3        0.0003
      7  CD1        5.8290    1.3930   11.8510 C.ar    3  TRP3        0.0946
      8  CD2        4.5170   -0.4080   12.0880 C.ar    3  TRP3        0.0152
      9  NE1        4.5470    1.7710   11.5620 N.ar    3  TRP3       -0.2442
     10  CE2        3.7190    0.6880   11.7100 C.ar    3  TRP3        0.0810
     11  CE3        3.9050   -1.6470   12.3240 C.ar    3  TRP3        0.0012
     12  CZ2        2.3290    0.5870   11.5500 C.ar    3  TRP3        0.0191
     13  CZ3        2.5360   -1.7570   12.1430 C.ar    3  TRP3        0.0001
     14  CH2        1.7600   -0.6340   11.7730 C.ar    3  TRP3        0.0015
     15  N         -0.6830   -2.2130    6.2470 N.3    62  HIS62      -0.1241
     16  CA        -0.8130   -3.0010    7.4790 C.3    62  HIS62       0.1621
     17  C         -2.2210   -3.4440    7.8090 C.2    62  HIS62       0.2264
     18  O         -2.3860   -4.4010    8.5740 O.2    62  HIS62      -0.2867
     19  CB        -0.1100   -2.3910    8.6990 C.3    62  HIS62       0.0745
     20  CG        -0.5170   -0.9910    9.0230 C.ar   62  HIS62       0.0817
     21  ND1        0.1300    0.1060    8.4920 N.ar   62  HIS62      -0.2268
     22  CD2       -1.4540   -0.5030    9.8700 C.ar   62  HIS62       0.1154
     23  CE1       -0.4160    1.2090    8.9740 C.ar   62  HIS62       0.1986
     24  NE2       -1.3750    0.8680    9.8160 N.ar   62  HIS62      -0.2212
     25  N         -8.4140    0.3730    5.7680 N.3    65  ASN65      -0.1240
     26  CA        -9.2160    1.3210    6.5140 C.3    65  ASN65       0.1653
     27  C        -10.4090    1.7060    5.6770 C.2    65  ASN65       0.2266
     28  O        -10.2460    2.1070    4.5180 O.2    65  ASN65      -0.2867
     29  CB        -8.4110    2.5900    6.8200 C.3    65  ASN65       0.1155
     30  CG        -7.3200    2.3740    7.8390 C.2    65  ASN65       0.2627
     31  OD1       -7.1940    1.3150    8.4420 O.2    65  ASN65      -0.2716
     32  ND2       -6.5030    3.4210    8.0410 N.am   65  ASN65      -0.0877
     33  N        -13.9640    8.1650   12.6500 N.3    89  ILE89      -0.1231
     34  CA       -13.0500    8.5410   11.5640 C.3    89  ILE89       0.1692
     35  C        -12.7860    7.3840   10.5990 C.2    89  ILE89       0.2591
     36  O        -12.7080    7.5820    9.3860 O.2    89  ILE89      -0.2718
     37  CB       -11.7350    9.2020   12.0750 C.3    89  ILE89       0.0266
     38  CG1      -10.7700    9.4790   10.9090 C.3    89  ILE89       0.0019
     39  CG2      -11.0510    8.3640   13.1500 C.3    89  ILE89       0.0020
     40  CD1       -9.5580   10.3160   11.3000 C.3    89  ILE89       0.0001
     41  N        -12.6570    6.1660   11.1300 N.am   90  GLN90      -0.1979
     42  CA       -12.3490    5.0010   10.2960 C.3    90  GLN90       0.1601
     43  C        -12.6130    3.7250   11.0700 C.2    90  GLN90       0.2287
     44  O        -12.6640    3.7470   12.2940 O.2    90  GLN90      -0.2864
     45  CB       -10.8880    5.0220    9.7670 C.3    90  GLN90       0.0394
     46  CG        -9.7850    5.1840   10.8140 C.3    90  GLN90       0.0908
     47  CD        -9.0770    3.8910   11.2190 C.2    90  GLN90       0.2608
     48  OE1       -9.6260    2.8000   11.1510 O.2    90  GLN90      -0.2717
     49  NE2       -7.8360    4.0360   11.6810 N.am   90  GLN90      -0.0878
     50  N        -11.1200   -0.5210   10.8750 N.3    92  HIS92      -0.1241
     51  CA       -10.2500   -1.4980   10.2440 C.3    92  HIS92       0.1621
     52  C        -10.3220   -2.7670   11.0660 C.2    92  HIS92       0.2264
     53  O        -10.9560   -2.8040   12.1170 O.2    92  HIS92      -0.2867
     54  CB        -8.8030   -1.0010   10.2040 C.3    92  HIS92       0.0745
     55  CG        -8.2650   -0.7090   11.5620 C.ar   92  HIS92       0.0817
     56  ND1       -8.3990    0.5190   12.1710 N.ar   92  HIS92      -0.2268
     57  CD2       -7.6650   -1.5190   12.4660 C.ar   92  HIS92       0.1154
     58  CE1       -7.8920    0.4540   13.3910 C.ar   92  HIS92       0.1986
     59  NE2       -7.4380   -0.7720   13.5920 N.ar   92  HIS92      -0.2212
     60  N         -7.9940   -6.4980   12.3760 N.3    94  HIS94      -0.1241
     61  CA        -6.7720   -7.2970   12.5530 C.3    94  HIS94       0.1621
     62  C         -7.2080   -8.7570   12.4500 C.2    94  HIS94       0.2264
     63  O         -8.2600   -9.1190   12.9830 O.2    94  HIS94      -0.2867
     64  CB        -6.1380   -7.0390   13.9370 C.3    94  HIS94       0.0745
     65  CG        -5.8640   -5.5930   14.2180 C.ar   94  HIS94       0.0817
     66  ND1       -4.6130   -5.0390   14.0300 N.ar   94  HIS94      -0.2268
     67  CD2       -6.6760   -4.5750   14.6080 C.ar   94  HIS94       0.1154
     68  CE1       -4.6550   -3.7530   14.3460 C.ar   94  HIS94       0.1986
     69  NE2       -5.9000   -3.4340   14.6600 N.ar   94  HIS94      -0.2212
     70  N        -11.9430   -2.6930   14.7780 N.3   117  HIS117     -0.1241
     71  CA       -11.7000   -1.4670   15.5270 C.3   117  HIS117      0.1621
     72  C        -12.3990   -0.3110   14.8480 C.2   117  HIS117      0.2264
     73  O        -12.0270    0.0540   13.7270 O.2   117  HIS117     -0.2867
     74  CB       -10.1900   -1.2000   15.6110 C.3   117  HIS117      0.0745
     75  CG        -9.4930   -2.1730   16.5050 C.ar  117  HIS117      0.0817
     76  ND1       -8.1240   -2.3780   16.5000 N.ar  117  HIS117     -0.2268
     77  CD2      -10.0020   -3.0140   17.4410 C.ar  117  HIS117      0.1154
     78  CE1       -7.8270   -3.3020   17.4020 C.ar  117  HIS117      0.1986
     79  NE2       -8.9440   -3.6910   17.9940 N.ar  117  HIS117     -0.2212
     80  N        -12.7700    3.4420   15.1300 N.3   119  VAL119     -0.1245
     81  CA       -11.9100    4.4660   15.7500 C.3   119  VAL119      0.1561
     82  C        -12.6160    5.8160   15.7860 C.2   119  VAL119      0.2260
     83  O        -13.0790    6.2960   14.7380 O.2   119  VAL119     -0.2867
     84  CB       -10.5930    4.5830   14.9590 C.3   119  VAL119      0.0252
     85  CG1       -9.6900    5.6590   15.5800 C.3   119  VAL119      0.0019
     86  CG2       -9.8700    3.2340   14.8710 C.3   119  VAL119      0.0019
     87  N         -8.2120   14.8340   14.7060 N.3   128  PHE128     -0.1241
     88  CA        -7.6000   13.5660   15.0660 C.3   128  PHE128      0.1605
     89  C         -6.1480   13.7220   15.4890 C.2   128  PHE128      0.2264
     90  O         -5.7170   13.1060   16.4630 O.2   128  PHE128     -0.2867
     91  CB        -7.7280   12.5740   13.8900 C.3   128  PHE128      0.0534
     92  CG        -7.1100   11.2260   14.1520 C.ar  128  PHE128     -0.0203
     93  CD1       -7.8510   10.2170   14.7500 C.ar  128  PHE128     -0.0042
     94  CD2       -5.7770   10.9700   13.8150 C.ar  128  PHE128     -0.0042
     95  CE1       -7.2840    8.9800   15.0010 C.ar  128  PHE128     -0.0003
     96  CE2       -5.2070    9.7400   14.0660 C.ar  128  PHE128     -0.0003
     97  CZ        -5.9640    8.7340   14.6580 C.ar  128  PHE128     -0.0000
     98  N         -4.8560   12.5380   19.3430 N.3   132  VAL132     -0.1245
     99  CA        -3.9470   11.4250   19.7030 C.3   132  VAL132      0.1561
    100  C         -2.8460   11.8640   20.6660 C.2   132  VAL132      0.2260
    101  O         -2.1420   11.0200   21.2360 O.2   132  VAL132     -0.2867
    102  CB        -3.3210   10.6760   18.4920 C.3   132  VAL132      0.0252
    103  CG1       -4.4040   10.0680   17.6190 C.3   132  VAL132      0.0019
    104  CG2       -2.3870   11.5740   17.6830 C.3   132  VAL132      0.0019
    105  N        -11.8970    3.7330   21.0080 N.3   140  VAL140     -0.1245
    106  CA       -11.9400    2.6690   20.0100 C.3   140  VAL140      0.1561
    107  C        -12.8970    1.5920   20.4790 C.2   140  VAL140      0.2260
    108  O        -12.7550    1.0330   21.5770 O.2   140  VAL140     -0.2867
    109  CB       -10.5560    2.0680   19.6770 C.3   140  VAL140      0.0252
    110  CG1      -10.6850    1.0880   18.5130 C.3   140  VAL140      0.0019
    111  CG2       -9.5880    3.1690   19.2830 C.3   140  VAL140      0.0019
    112  N         -2.9750    3.1360   21.1580 N.3   195  LEU195     -0.1231
    113  CA        -2.9930    2.5970   19.7930 C.3   195  LEU195      0.1693
    114  C         -2.2500    1.2710   19.8220 C.2   195  LEU195      0.2593
    115  O         -1.2560    1.1160   20.5660 O.2   195  LEU195     -0.2718
    116  CB        -2.2620    3.5350   18.8310 C.3   195  LEU195      0.0284
    117  CG        -2.7470    4.9760   18.7970 C.3   195  LEU195      0.0019
    118  CD1       -1.8580    5.7960   17.8650 C.3   195  LEU195      0.0001
    119  CD2       -4.1970    5.0390   18.3570 C.3   195  LEU195      0.0001
    120  N         -2.6890    0.3200   18.9960 N.am  196  THR196     -0.1939
    121  CA        -2.0130   -0.9900   18.9660 C.3   196  THR196      0.2028
    122  C         -1.0180   -1.0810   17.8230 C.2   196  THR196      0.2643
    123  O         -0.3820   -2.1180   17.6550 O.2   196  THR196     -0.2714
    124  CB        -2.9920   -2.1770   18.8420 C.3   196  THR196      0.1808
    125  OG1       -3.6050   -2.1430   17.5470 O.3   196  THR196     -0.2208
    126  CG2       -4.0600   -2.1750   19.9640 C.3   196  THR196      0.0379
    127  N         -0.9130   -0.0190   17.0200 N.am  197  THR197     -0.1937
    128  CA         0.1830    0.1040   16.0480 C.3   197  THR197      0.2013
    129  C          1.0230    1.3300   16.3820 C.2   197  THR197      0.2484
    130  O          0.5150    2.2770   16.9880 O.2   197  THR197     -0.2729
    131  CB        -0.3420    0.2790   14.6190 C.3   197  THR197      0.1807
    132  OG1       -1.1460    1.4720   14.5350 O.3   197  THR197     -0.2208
    133  CG2       -1.1520   -0.9370   14.1810 C.3   197  THR197      0.0379
    134  N          2.3010    1.3340   15.9570 N.am  198  PRO198     -0.2715
    135  CA         3.0810    2.5620   16.0640 C.3   198  PRO198      0.1521
    136  C          2.2460    3.7360   15.5340 C.2   198  PRO198      0.2440
    137  O          1.5780    3.5910   14.5020 O.2   198  PRO198     -0.2731
    138  CB         4.2730    2.2650   15.1520 C.3   198  PRO198      0.0310
    139  CG         4.4870    0.7910   15.3430 C.3   198  PRO198      0.0237
    140  CD         3.0760    0.2420   15.3450 C.3   198  PRO198      0.0939
    141  N          2.2570    4.8950   16.1860 N.am  199  PRO199     -0.2727
    142  CA         3.1930    5.2820   17.2490 C.3   199  PRO199      0.1402
    143  C          2.8550    4.8400   18.6920 C.2   199  PRO199      0.2269
    144  O          3.5000    5.3000   19.6550 O.2   199  PRO199     -0.2865
    145  CB         3.1740    6.8120   17.1400 C.3   199  PRO199      0.0296
    146  CG         1.7950    7.1300   16.6400 C.3   199  PRO199      0.0237
    147  CD         1.5520    6.0640   15.6120 C.3   199  PRO199      0.0939
    148  N        -10.4750    2.2520   25.5730 N.3   206  TRP206     -0.1241
    149  CA       -10.9130    1.0440   24.8790 C.3   206  TRP206      0.1605
    150  C        -12.2610    0.5910   25.3820 C.2   206  TRP206      0.2264
    151  O        -12.4930    0.5410   26.5770 O.2   206  TRP206     -0.2867
    152  CB        -9.8990   -0.0830   25.0980 C.3   206  TRP206      0.0550
    153  CG        -8.7830    0.0420   24.1140 C.ar  206  TRP206      0.0003
    154  CD1       -7.5530    0.6210   24.3090 C.ar  206  TRP206      0.0946
    155  CD2       -8.8260   -0.3620   22.7450 C.ar  206  TRP206      0.0152
    156  NE1       -6.8330    0.5930   23.1370 N.ar  206  TRP206     -0.2442
    157  CE2       -7.5840   -0.0230   22.1670 C.ar  206  TRP206      0.0810
    158  CE3       -9.8000   -0.9890   21.9480 C.ar  206  TRP206      0.0012
    159  CZ2       -7.2970   -0.2840   20.8310 C.ar  206  TRP206      0.0191
    160  CZ3       -9.5120   -1.2760   20.6410 C.ar  206  TRP206      0.0001
    161  CH2       -8.2680   -0.9300   20.0840 C.ar  206  TRP206      0.0015
@<TRIPOS>BOND
     1    28    27    2
     2    27    26    1
     3    25    26    1
     4    15    16    1
     5    26    29    1
     6    29    30    1
     7    16    17    1
     8    16    19    1
     9    17    18    2
    10    30    32   am
    11    30    31    2
    12    21    23   ar
    13    21    20   ar
    14    19    20    1
    15    23    24   ar
    16    20    22   ar
    17    36    35    2
    18     4     3    2
    19    45    42    1
    20    45    46    1
    21    24    22   ar
    22    54    51    1
    23    54    55    1
    24    51    50    1
    25    51    52    1
    26    42    43    1
    27    42    41    1
    28     1     2    1
    29     3     2    1
    30    35    41   am
    31    35    34    1
    32    46    47    1
    33    38    40    1
    34    38    37    1
    35    52    53    2
    36    43    44    2
    37    48    47    2
    38    47    49   am
    39     2     5    1
    40    12    10   ar
    41    12    14   ar
    42    55    56   ar
    43    55    57   ar
    44     9    10   ar
    45     9     7   ar
    46    34    37    1
    47    34    33    1
    48    10     8   ar
    49    14    13   ar
    50     7     6   ar
    51    37    39    1
    52     8     6   ar
    53     8    11   ar
    54    13    11   ar
    55     6     5    1
    56    56    58   ar
    57    60    61    1
    58    62    61    1
    59    62    63    2
    60    57    59   ar
    61    61    64    1
    62    58    59   ar
    63    73    72    2
    64    94    96   ar
    65    94    92   ar
    66    91    92    1
    67    91    88    1
    68    64    65    1
    69    66    65   ar
    70    66    68   ar
    71    96    97   ar
    72    92    93   ar
    73   133   131    1
    74    65    67   ar
    75    68    69   ar
    76   137   136    2
    77   132   131    1
    78    67    69   ar
    79   131   128    1
    80    97    95   ar
    81    87    88    1
    82    83    82    2
    83    93    95   ar
    84    70    71    1
    85    72    71    1
    86    86    84    1
    87    84    85    1
    88    84    81    1
    89    88    89    1
    90    80    81    1
    91   138   139    1
    92   138   135    1
    93   139   140    1
    94   140   134    1
    95    89    90    2
    96    71    74    1
    97   136   135    1
    98   136   141   am
    99    74    75    1
   100   147   141    1
   101   147   146    1
   102    81    82    1
   103   134   135    1
   104   134   129   am
   105   128   129    1
   106   128   127    1
   107   141   142    1
   108   129   130    2
   109    76    75   ar
   110    76    78   ar
   111    75    77   ar
   112   146   145    1
   113   127   122   am
   114   145   142    1
   115   142   143    1
   116    78    79   ar
   117    77    79   ar
   118   125   124    1
   119   103   102    1
   120   123   122    2
   121   104   102    1
   122   122   121    1
   123   118   117    1
   124   119   117    1
   125   102    99    1
   126   110   109    1
   127   143   144    2
   128   117   116    1
   129   116   113    1
   130   124   121    1
   131   124   126    1
   132   121   120    1
   133   120   114   am
   134   111   109    1
   135    98    99    1
   136   109   106    1
   137    99   100    1
   138   113   114    1
   139   113   112    1
   140   114   115    2
   141   106   107    1
   142   106   105    1
   143   161   160   ar
   144   161   159   ar
   145   107   108    2
   146   160   158   ar
   147   100   101    2
   148   159   157   ar
   149   158   155   ar
   150   157   155   ar
   151   157   156   ar
   152   155   153   ar
   153   156   154   ar
   154   153   154   ar
   155   153   152    1
   156   149   152    1
   157   149   150    1
   158   149   148    1
   159   150   151    2
