@<TRIPOS>MOLECULE
tmp/5e2vB00.pdb
 91 90 0 0 0
SMALL
GASTEIGER

@<TRIPOS>ATOM
      1  N         34.3400   17.3290   61.6300 N.3    27  TYR27      -0.1241
      2  CA        34.2470   16.6050   62.8970 C.3    27  TYR27       0.1605
      3  C         34.9490   15.2520   62.8220 C.2    27  TYR27       0.2264
      4  O         34.7540   14.4930   61.8700 O.2    27  TYR27      -0.2867
      5  CB        32.7880   16.4030   63.3380 C.3    27  TYR27       0.0534
      6  CG        32.6720   15.9680   64.7850 C.ar   27  TYR27      -0.0201
      7  CD1       32.7090   16.9020   65.8230 C.ar   27  TYR27      -0.0009
      8  CD2       32.5250   14.6230   65.1190 C.ar   27  TYR27      -0.0009
      9  CE1       32.6020   16.5000   67.1570 C.ar   27  TYR27       0.0417
     10  CE2       32.4170   14.2110   66.4470 C.ar   27  TYR27       0.0417
     11  CZ        32.4560   15.1530   67.4600 C.ar   27  TYR27       0.1957
     12  OH        32.3500   14.7360   68.7750 O.3    27  TYR27      -0.2866
     13  N         36.0920    9.7910   65.6610 N.3    30  THR30      -0.1203
     14  CA        36.5680    9.1510   66.8910 C.3    30  THR30       0.1994
     15  C         36.2730    9.9910   68.1440 C.2    30  THR30       0.2619
     16  O         36.4540    9.5170   69.2710 O.2    30  THR30      -0.2717
     17  CB        38.0920    8.8920   66.8440 C.3    30  THR30       0.1784
     18  OG1       38.7830   10.1430   66.7470 O.3    30  THR30      -0.2211
     19  CG2       38.4660    8.0010   65.6530 C.3    30  THR30       0.0376
     20  N         35.8230   11.2280   67.9380 N.am   31  SER31      -0.1937
     21  CA        35.6770   12.2060   69.0250 C.3    31  SER31       0.2055
     22  C         34.4260   12.0180   69.8760 C.2    31  SER31       0.2644
     23  O         34.3930   12.4220   71.0430 O.2    31  SER31      -0.2714
     24  CB        35.7120   13.6330   68.4650 C.3    31  SER31       0.2130
     25  OG        37.0350   13.9800   68.0860 O.3    31  SER31      -0.2179
     26  N         33.4000   11.4040   69.2900 N.am   32  GLY32      -0.1939
     27  CA        32.1320   11.2010   69.9810 C.3    32  GLY32       0.2014
     28  C         31.0260   10.8110   69.0250 C.2    32  GLY32       0.2639
     29  O         31.2740   10.6300   67.8250 O.2    32  GLY32      -0.2714
     30  N         29.8140   10.6860   69.5750 N.am   33  TYR33      -0.1959
     31  CA        28.5830   10.4100   68.8210 C.3    33  TYR33       0.1771
     32  C         28.4160    8.9770   68.2990 C.2    33  TYR33       0.2619
     33  O         29.3680    8.1850   68.2470 O.2    33  TYR33      -0.2715
     34  CB        28.3940   11.4240   67.6760 C.3    33  TYR33       0.0574
     35  CG        28.1910   12.8300   68.1810 C.ar   33  TYR33      -0.0198
     36  CD1       29.2810   13.6820   68.3900 C.ar   33  TYR33      -0.0009
     37  CD2       26.9060   13.3160   68.4560 C.ar   33  TYR33      -0.0009
     38  CE1       29.0970   14.9890   68.8610 C.ar   33  TYR33       0.0417
     39  CE2       26.7150   14.6150   68.9240 C.ar   33  TYR33       0.0417
     40  CZ        27.8110   15.4420   69.1240 C.ar   33  TYR33       0.1957
     41  OH        27.6270   16.7300   69.5880 O.3    33  TYR33      -0.2866
     42  N         27.1770    8.6780   67.9190 N.am   34  TYR34      -0.1974
     43  CA        26.8220    7.4930   67.1480 C.3    34  TYR34       0.1639
     44  C         26.6340    7.9060   65.6970 C.2    34  TYR34       0.2290
     45  O         26.0920    8.9780   65.4000 O.2    34  TYR34      -0.2864
     46  CB        25.5050    6.8900   67.6360 C.3    34  TYR34       0.0560
     47  CG        25.5150    6.2830   69.0180 C.ar   34  TYR34      -0.0198
     48  CD1       24.3340    6.2170   69.7620 C.ar   34  TYR34      -0.0009
     49  CD2       26.6870    5.7770   69.5860 C.ar   34  TYR34      -0.0009
     50  CE1       24.3180    5.6630   71.0360 C.ar   34  TYR34       0.0417
     51  CE2       26.6810    5.2210   70.8600 C.ar   34  TYR34       0.0417
     52  CZ        25.4910    5.1690   71.5740 C.ar   34  TYR34       0.1957
     53  OH        25.4710    4.6230   72.8310 O.3    34  TYR34      -0.2866
     54  N         25.0060    6.7750   62.3160 N.3    36  ASN36      -0.1240
     55  CA        23.9150    5.8790   61.9200 C.3    36  ASN36       0.1653
     56  C         23.7310    5.7500   60.4130 C.2    36  ASN36       0.2266
     57  O         24.0590    6.6680   59.6510 O.2    36  ASN36      -0.2867
     58  CB        22.5720    6.3680   62.4880 C.3    36  ASN36       0.1155
     59  CG        22.5570    6.4460   63.9940 C.2    36  ASN36       0.2627
     60  OD1       22.2520    5.4660   64.6770 O.2    36  ASN36      -0.2716
     61  ND2       22.8860    7.6210   64.5270 N.am   36  ASN36      -0.0877
     62  N         31.8490    6.0300   68.3380 N.3    54  TYR54      -0.1241
     63  CA        33.1540    6.7030   68.3300 C.3    54  TYR54       0.1605
     64  C         34.3240    5.7400   68.6060 C.2    54  TYR54       0.2264
     65  O         35.4720    6.0420   68.2800 O.2    54  TYR54      -0.2867
     66  CB        33.1720    7.8530   69.3510 C.3    54  TYR54       0.0534
     67  CG        32.8680    7.3930   70.7630 C.ar   54  TYR54      -0.0201
     68  CD1       31.5750    7.5000   71.2850 C.ar   54  TYR54      -0.0009
     69  CD2       33.8690    6.8510   71.5780 C.ar   54  TYR54      -0.0009
     70  CE1       31.2850    7.0810   72.5780 C.ar   54  TYR54       0.0417
     71  CE2       33.5890    6.4270   72.8760 C.ar   54  TYR54       0.0417
     72  CZ        32.2970    6.5450   73.3680 C.ar   54  TYR54       0.1957
     73  OH        32.0060    6.1320   74.6470 O.3    54  TYR54      -0.2866
     74  N         24.1630   10.9520   65.2480 N.3    99  GLY99      -0.1210
     75  CA        23.0160   10.8480   66.1530 C.3    99  GLY99       0.1956
     76  C         21.7150   11.0840   65.4010 C.2    99  GLY99       0.2613
     77  O         21.5670   10.6670   64.2430 O.2    99  GLY99      -0.2717
     78  N         20.7710   11.7530   66.0590 N.am  100  SER100     -0.1938
     79  CA        19.4700   12.0450   65.4650 C.3   100  SER100      0.2055
     80  C         19.3980   13.4500   64.8580 C.2   100  SER100      0.2642
     81  O         18.4270   13.7870   64.1720 O.2   100  SER100     -0.2714
     82  CB        18.3630   11.8770   66.5200 C.3   100  SER100      0.2130
     83  OG        18.1900   10.5090   66.8610 O.3   100  SER100     -0.2179
     84  N         20.4240   14.2580   65.1130 N.am  101  LEU101     -0.1977
     85  CA        20.3780   15.6910   64.8110 C.3   101  LEU101      0.1596
     86  C         20.9020   16.0730   63.4220 C.2   101  LEU101      0.2287
     87  O         20.3200   16.9300   62.7520 O.2   101  LEU101     -0.2864
     88  CB        21.1070   16.4860   65.9120 C.3   101  LEU101      0.0297
     89  CG        20.9430   18.0110   65.9240 C.3   101  LEU101      0.0022
     90  CD1       19.4880   18.4310   66.1510 C.3   101  LEU101      0.0001
     91  CD2       21.8390   18.6420   66.9790 C.3   101  LEU101      0.0001
@<TRIPOS>BOND
     1    57    56    2
     2    56    55    1
     3     1     2    1
     4     4     3    2
     5    55    54    1
     6    55    58    1
     7    58    59    1
     8    87    86    2
     9     3     2    1
    10     2     5    1
    11     5     6    1
    12    86    85    1
    13    59    61   am
    14    59    60    2
    15    81    80    2
    16    77    76    2
    17     6     8   ar
    18     6     7   ar
    19    85    84    1
    20    85    88    1
    21    80    84   am
    22    80    79    1
    23     8    10   ar
    24    74    75    1
    25    45    44    2
    26    76    78   am
    27    76    75    1
    28    79    78    1
    29    79    82    1
    30    19    17    1
    31    13    14    1
    32    44    43    1
    33     7     9   ar
    34    88    89    1
    35    89    90    1
    36    89    91    1
    37    10    11   ar
    38    82    83    1
    39    18    17    1
    40    17    14    1
    41    14    15    1
    42    43    46    1
    43    43    42    1
    44     9    11   ar
    45    11    12    1
    46    46    47    1
    47    34    35    1
    48    34    31    1
    49    29    28    2
    50    42    32   am
    51    20    15   am
    52    20    21    1
    53    25    24    1
    54    15    16    2
    55    35    36   ar
    56    35    37   ar
    57    33    32    2
    58    65    64    2
    59    32    31    1
    60    63    62    1
    61    63    64    1
    62    63    66    1
    63    36    38   ar
    64    37    39   ar
    65    24    21    1
    66    31    30    1
    67    38    40   ar
    68    39    40   ar
    69    47    49   ar
    70    47    48   ar
    71    21    22    1
    72    28    30   am
    73    28    27    1
    74    40    41    1
    75    26    22   am
    76    26    27    1
    77    66    67    1
    78    49    51   ar
    79    48    50   ar
    80    22    23    2
    81    67    68   ar
    82    67    69   ar
    83    51    52   ar
    84    50    52   ar
    85    68    70   ar
    86    52    53    1
    87    69    71   ar
    88    70    72   ar
    89    71    72   ar
    90    72    73    1
