@<TRIPOS>MOLECULE
tmp/5e30E02.pdb
 109 102 0 0 0
SMALL
GASTEIGER

@<TRIPOS>ATOM
      1  N        -36.6380   -2.2910   -1.5070 N.3    94  TYR94      -0.1241
      2  CA       -36.1230   -1.4100   -2.5510 C.3    94  TYR94       0.1605
      3  C        -34.6650   -1.7880   -2.8470 C.2    94  TYR94       0.2264
      4  O        -33.8370   -1.8390   -1.9350 O.2    94  TYR94      -0.2867
      5  CB       -36.2010    0.0540   -2.1270 C.3    94  TYR94       0.0534
      6  CG       -36.0610    1.0390   -3.2730 C.ar   94  TYR94      -0.0201
      7  CD1      -34.8310    1.2840   -3.8540 C.ar   94  TYR94      -0.0009
      8  CD2      -37.1410    1.7750   -3.7200 C.ar   94  TYR94      -0.0009
      9  CE1      -34.6870    2.1950   -4.8770 C.ar   94  TYR94       0.0417
     10  CE2      -37.0090    2.6870   -4.7420 C.ar   94  TYR94       0.0417
     11  CZ       -35.7730    2.8920   -5.3130 C.ar   94  TYR94       0.1957
     12  OH       -35.6230    3.8060   -6.3160 O.3    94  TYR94      -0.2866
     13  N        -42.3330    9.4440    0.8510 N.3   132  GLY132     -0.1210
     14  CA       -41.7880    8.7140   -0.2750 C.3   132  GLY132      0.1956
     15  C        -41.9440    7.2130   -0.1010 C.2   132  GLY132      0.2612
     16  O        -41.6170    6.6580    0.9580 O.2   132  GLY132     -0.2717
     17  N        -42.4330    6.5530   -1.1480 N.am  133  VAL133     -0.1965
     18  CA       -42.8100    5.1480   -1.0920 C.3   133  VAL133      0.1727
     19  C        -42.4660    4.5070   -2.4230 C.2   133  VAL133      0.2617
     20  O        -42.0260    5.1820   -3.3660 O.2   133  VAL133     -0.2715
     21  CB       -44.2930    4.9370   -0.8030 C.3   133  VAL133      0.0290
     22  CG1      -44.6720    5.5450    0.5420 C.3   133  VAL133      0.0023
     23  CG2      -45.1550    5.5070   -1.9350 C.3   133  VAL133      0.0023
     24  N        -42.6070    3.1940   -2.4900 N.am  134  SER134     -0.1936
     25  CA       -42.2880    2.4830   -3.7060 C.3   134  SER134      0.2055
     26  C        -43.0500    1.2010   -3.8480 C.2   134  SER134      0.2643
     27  O        -43.3380    0.5320   -2.8670 O.2   134  SER134     -0.2714
     28  CB       -40.7880    2.1670   -3.7570 C.3   134  SER134      0.2130
     29  OG       -40.5070    1.2000   -4.7670 O.3   134  SER134     -0.2179
     30  N        -43.3210    0.8370   -5.0900 N.am  135  SER135     -0.1949
     31  CA       -43.9840   -0.4130   -5.4040 C.3   135  SER135      0.1924
     32  C        -43.1140   -1.6100   -5.0190 C.2   135  SER135      0.2314
     33  O        -43.6140   -2.7040   -4.7750 O.2   135  SER135     -0.2863
     34  CB       -44.3280   -0.4580   -6.9010 C.3   135  SER135      0.2116
     35  OG       -43.1580   -0.5700   -7.7140 O.3   135  SER135     -0.2180
     36  N        -48.2900    1.0040   -2.0720 N.3   143  SER143     -0.1217
     37  CA       -46.8480    1.1780   -2.1300 C.3   143  SER143      0.1889
     38  C        -46.3590    1.7520   -0.8100 C.2   143  SER143      0.2288
     39  O        -46.8950    2.7370   -0.3020 O.2   143  SER143     -0.2866
     40  CB       -46.4580    2.0730   -3.3020 C.3   143  SER143      0.2089
     41  OG       -46.5760    1.3530   -4.5210 O.3   143  SER143     -0.2183
     42  N        -38.1860    8.4210    3.4510 N.3   151  TRP151     -0.1241
     43  CA       -37.8930    8.9400    2.1320 C.3   151  TRP151      0.1605
     44  C        -38.4270   10.3550    1.9740 C.2   151  TRP151      0.2264
     45  O        -39.6240   10.5570    1.8580 O.2   151  TRP151     -0.2867
     46  CB       -38.4980    8.0280    1.0750 C.3   151  TRP151      0.0550
     47  CG       -37.9270    8.2710   -0.2850 C.ar  151  TRP151      0.0003
     48  CD1      -37.1450    9.3280   -0.6680 C.ar  151  TRP151      0.0946
     49  CD2      -38.0830    7.4390   -1.4380 C.ar  151  TRP151      0.0152
     50  NE1      -36.8050    9.1980   -1.9860 N.ar  151  TRP151     -0.2442
     51  CE2      -37.3720    8.0520   -2.4880 C.ar  151  TRP151      0.0810
     52  CE3      -38.7470    6.2360   -1.6810 C.ar  151  TRP151      0.0012
     53  CZ2      -37.3170    7.5010   -3.7800 C.ar  151  TRP151      0.0191
     54  CZ3      -38.7030    5.6900   -2.9540 C.ar  151  TRP151      0.0001
     55  CH2      -37.9940    6.3230   -3.9920 C.ar  151  TRP151      0.0015
     56  N        -38.8150   13.9780    0.0680 N.3   153  THR153     -0.1218
     57  CA       -38.8790   14.5910   -1.2520 C.3   153  THR153      0.1862
     58  C        -39.1940   16.0720   -1.1270 C.2   153  THR153      0.2287
     59  O        -39.4950   16.5450   -0.0380 O.2   153  THR153     -0.2866
     60  CB       -39.9420   13.9380   -2.1030 C.3   153  THR153      0.1770
     61  OG1      -41.1250   13.8080   -1.3140 O.3   153  THR153     -0.2211
     62  CG2      -39.4800   12.5540   -2.5620 C.3   153  THR153      0.0375
     63  N        -30.5990    7.8360   -1.6980 N.3   181  HIS181     -0.1241
     64  CA       -31.2420    7.3070   -2.9090 C.3   181  HIS181      0.1621
     65  C        -30.4680    7.7390   -4.1570 C.2   181  HIS181      0.2264
     66  O        -30.1900    8.9340   -4.3630 O.2   181  HIS181     -0.2867
     67  CB       -32.7030    7.7670   -3.0080 C.3   181  HIS181      0.0745
     68  CG       -33.3860    7.3390   -4.2740 C.ar  181  HIS181      0.0817
     69  ND1      -33.6230    8.2080   -5.3230 N.ar  181  HIS181     -0.2268
     70  CD2      -33.8830    6.1370   -4.6620 C.ar  181  HIS181      0.1154
     71  CE1      -34.1980    7.5500   -6.3100 C.ar  181  HIS181      0.1986
     72  NE2      -34.3760    6.2930   -5.9310 N.ar  181  HIS181     -0.2212
     73  N        -32.1540    7.6780  -11.3900 N.3   184  ASN184     -0.1240
     74  CA       -31.7830    7.1320  -12.7000 C.3   184  ASN184      0.1653
     75  C        -31.3410    8.1770  -13.7170 C.2   184  ASN184      0.2266
     76  O        -30.6060    7.8600  -14.6540 O.2   184  ASN184     -0.2867
     77  CB       -32.9410    6.3330  -13.2820 C.3   184  ASN184      0.1155
     78  CG       -33.3920    5.2300  -12.3580 C.2   184  ASN184      0.2627
     79  OD1      -32.7850    4.1590  -12.3280 O.2   184  ASN184     -0.2716
     80  ND2      -34.4560    5.4870  -11.5800 N.am  184  ASN184     -0.0877
     81  N        -35.4330   12.6340  -12.9760 N.3   188  GLU188     -0.1245
     82  CA       -35.9200   11.9910  -11.7550 C.3   188  GLU188      0.1567
     83  C        -35.3670   12.7330  -10.5380 C.2   188  GLU188      0.2260
     84  O        -36.1010   13.0130   -9.5960 O.2   188  GLU188     -0.2867
     85  CB       -35.5440   10.5060  -11.7260 C.3   188  GLU188      0.0388
     86  CG       -35.9670    9.7730  -10.4620 C.3   188  GLU188      0.1160
     87  CD       -35.6150    8.2850  -10.4960 C.2   188  GLU188      0.3649
     88  OE1      -35.5960    7.6990  -11.5900 O.co2 188  GLU188     -0.2457
     89  OE2      -35.3230    7.7050   -9.4260 O.co2 188  GLU188     -0.2457
     90  N        -37.9140   14.7530   -7.7140 N.3   192  LEU192     -0.1245
     91  CA       -37.9300   14.2850   -6.3240 C.3   192  LEU192      0.1561
     92  C        -37.3110   15.2530   -5.3370 C.2   192  LEU192      0.2260
     93  O        -37.8170   15.3850   -4.2270 O.2   192  LEU192     -0.2867
     94  CB       -37.2580   12.9010   -6.1930 C.3   192  LEU192      0.0270
     95  CG       -38.0820   11.6500   -6.5630 C.3   192  LEU192      0.0019
     96  CD1      -38.7970   11.7560   -7.8900 C.3   192  LEU192      0.0001
     97  CD2      -37.2370   10.4020   -6.5270 C.3   192  LEU192      0.0001
     98  N        -37.1860   -1.8710  -10.8430 N.3   224  LEU224     -0.1245
     99  CA       -36.5800   -0.5800  -10.5390 C.3   224  LEU224      0.1561
    100  C        -35.1160   -0.5480  -10.9390 C.2   224  LEU224      0.2260
    101  O        -34.3640   -1.5060  -10.7440 O.2   224  LEU224     -0.2867
    102  CB       -36.7310   -0.2250   -9.0610 C.3   224  LEU224      0.0270
    103  CG       -38.1480   -0.1610   -8.4700 C.3   224  LEU224      0.0019
    104  CD1      -38.0210    0.2550   -7.0290 C.3   224  LEU224      0.0001
    105  CD2      -39.0730    0.7900   -9.2180 C.3   224  LEU224      0.0001
    106  N        -33.5300    2.4080  -10.0840 N.3   226  GLY226     -0.1225
    107  CA       -33.0080    3.2180   -8.9930 C.3   226  GLY226      0.1811
    108  C        -32.4160    2.3710   -7.8850 C.2   226  GLY226      0.2280
    109  O        -32.7080    1.1810   -7.7480 O.2   226  GLY226     -0.2866
@<TRIPOS>BOND
     1    76    75    2
     2    75    74    1
     3    77    74    1
     4    77    78    1
     5    81    82    1
     6    74    73    1
     7    78    79    2
     8    78    80   am
     9    82    85    1
    10    82    83    1
    11    85    86    1
    12    88    87   ar
    13   100   101    2
    14   100    99    1
    15    98    99    1
    16    99   102    1
    17    83    84    2
    18    87    86    1
    19    87    89   ar
    20   106   107    1
    21   105   103    1
    22   102   103    1
    23   107   108    1
    24   103   104    1
    25    96    95    1
    26   108   109    2
    27    90    91    1
    28    35    34    1
    29    34    31    1
    30    95    97    1
    31    95    94    1
    32    91    94    1
    33    91    92    1
    34    12    11    1
    35    71    72   ar
    36    71    69   ar
    37    72    70   ar
    38    31    30    1
    39    31    32    1
    40    92    93    2
    41    69    68   ar
    42    11     9   ar
    43    11    10   ar
    44    30    26   am
    45    32    33    2
    46     9     7   ar
    47    29    28    1
    48    10     8   ar
    49    70    68   ar
    50    41    40    1
    51    66    65    2
    52    68    67    1
    53    65    64    1
    54    55    53   ar
    55    55    54   ar
    56     7     6   ar
    57    26    25    1
    58    26    27    2
    59    53    51   ar
    60    28    25    1
    61     8     6   ar
    62    25    24    1
    63    20    19    2
    64    40    37    1
    65     6     5    1
    66    67    64    1
    67    54    52   ar
    68    64    63    1
    69     3     2    1
    70     3     4    2
    71    62    60    1
    72     2     5    1
    73     2     1    1
    74    24    19   am
    75    51    50   ar
    76    51    49   ar
    77    19    18    1
    78    37    36    1
    79    37    38    1
    80    60    61    1
    81    60    57    1
    82    50    48   ar
    83    23    21    1
    84    52    49   ar
    85    49    47   ar
    86    57    58    1
    87    57    56    1
    88    17    18    1
    89    17    15   am
    90    58    59    2
    91    18    21    1
    92    38    39    2
    93    21    22    1
    94    48    47   ar
    95    47    46    1
    96    14    15    1
    97    14    13    1
    98    15    16    2
    99    46    43    1
   100    45    44    2
   101    44    43    1
   102    43    42    1
