@<TRIPOS>MOLECULE
tmp/5e3dA00.pdb
 105 104 0 0 0
SMALL
GASTEIGER

@<TRIPOS>ATOM
      1  N         16.2530  -12.6490    5.2890 N.3    25  ILE25      -0.1231
      2  CA        14.8120  -12.4360    5.2220 C.3    25  ILE25       0.1692
      3  C         14.0580  -13.7230    4.9600 C.2    25  ILE25       0.2592
      4  O         12.8200  -13.7140    4.9490 O.2    25  ILE25      -0.2718
      5  CB        14.4280  -11.3750    4.1730 C.3    25  ILE25       0.0266
      6  CG1       14.4250  -11.9580    2.7750 C.3    25  ILE25       0.0019
      7  CG2       15.3610  -10.1610    4.2510 C.3    25  ILE25       0.0020
      8  CD1       13.2970  -11.4060    1.9470 C.3    25  ILE25       0.0001
      9  N         14.7660  -14.8310    4.7450 N.am   26  PHE26      -0.1976
     10  CA        14.1660  -16.1450    4.5610 C.3    26  PHE26       0.1639
     11  C         14.5900  -17.1130    5.6570 C.2    26  PHE26       0.2290
     12  O         14.3840  -18.3260    5.5190 O.2    26  PHE26      -0.2864
     13  CB        14.5550  -16.7110    3.1940 C.3    26  PHE26       0.0560
     14  CG        14.1710  -15.8330    2.0410 C.ar   26  PHE26      -0.0200
     15  CD1       12.8360  -15.6290    1.7270 C.ar   26  PHE26      -0.0042
     16  CD2       15.1400  -15.2300    1.2600 C.ar   26  PHE26      -0.0042
     17  CE1       12.4750  -14.8240    0.6660 C.ar   26  PHE26      -0.0003
     18  CE2       14.7830  -14.4200    0.1950 C.ar   26  PHE26      -0.0003
     19  CZ        13.4500  -14.2340   -0.1100 C.ar   26  PHE26      -0.0000
     20  N         13.5030  -17.4620    8.7700 N.3    28  GLU28      -0.1231
     21  CA        12.4470  -17.8970    9.6720 C.3    28  GLU28       0.1684
     22  C         11.1060  -17.8020    8.9570 C.2    28  GLU28       0.2434
     23  O         10.9940  -17.1230    7.9320 O.2    28  GLU28      -0.2733
     24  CB        12.4430  -17.0410   10.9470 C.3    28  GLU28       0.0402
     25  CG        13.7470  -17.1160   11.7270 C.3    28  GLU28       0.1161
     26  CD        13.7080  -16.3300   13.0230 C.2    28  GLU28       0.3649
     27  OE1       12.9290  -15.3570   13.1090 O.co2  28  GLU28      -0.2457
     28  OE2       14.4560  -16.6910   13.9570 O.co2  28  GLU28      -0.2457
     29  N         10.0760  -18.4910    9.4620 N.am   29  PRO29      -0.2718
     30  CA         8.7550  -18.3920    8.8240 C.3    29  PRO29       0.1535
     31  C          8.2760  -16.9480    8.7400 C.2    29  PRO29       0.2598
     32  O          8.5950  -16.1130    9.5890 O.2    29  PRO29      -0.2715
     33  CB         7.8490  -19.2210    9.7460 C.3    29  PRO29       0.0310
     34  CG         8.7650  -20.1660   10.4430 C.3    29  PRO29       0.0237
     35  CD        10.0910  -19.4670   10.5670 C.3    29  PRO29       0.0939
     36  N          7.5050  -16.6590    7.6950 N.am   30  VAL30      -0.1964
     37  CA         6.8930  -15.3390    7.5360 C.3    30  VAL30       0.1712
     38  C          5.9560  -15.0980    8.7140 C.2    30  VAL30       0.2458
     39  O          5.0130  -15.8770    8.9170 O.2    30  VAL30      -0.2730
     40  CB         6.1420  -15.2180    6.2000 C.3    30  VAL30       0.0289
     41  CG1        5.5000  -13.8450    6.0770 C.3    30  VAL30       0.0023
     42  CG2        7.0810  -15.4890    5.0200 C.3    30  VAL30       0.0023
     43  N          6.1670  -14.0420    9.5120 N.am   31  PRO31      -0.2727
     44  CA         5.3350  -13.8410   10.7090 C.3    31  PRO31       0.1402
     45  C          3.8970  -13.4790   10.3770 C.2    31  PRO31       0.2269
     46  O          3.5980  -12.3300   10.0330 O.2    31  PRO31      -0.2865
     47  CB         6.0460  -12.6960   11.4420 C.3    31  PRO31       0.0296
     48  CG         6.7550  -11.9480   10.3680 C.3    31  PRO31       0.0237
     49  CD         7.1740  -12.9790    9.3520 C.3    31  PRO31       0.0939
     50  N          1.8950  -10.3040    8.8590 N.3    35  VAL35      -0.1245
     51  CA         1.3700  -10.4650    7.5070 C.3    35  VAL35       0.1561
     52  C          0.1030  -11.3100    7.6080 C.2    35  VAL35       0.2260
     53  O          0.1100  -12.4880    7.2220 O.2    35  VAL35      -0.2867
     54  CB         2.4250  -11.0960    6.5820 C.3    35  VAL35       0.0252
     55  CG1        1.9330  -11.1560    5.1530 C.3    35  VAL35       0.0019
     56  CG2        3.7320  -10.3100    6.6610 C.3    35  VAL35       0.0019
     57  N         -1.1620  -13.6780    4.6780 N.3    38  TYR38      -0.1241
     58  CA        -0.1560  -14.4560    3.9630 C.3    38  TYR38       0.1605
     59  C         -0.6960  -15.8110    3.5200 C.2    38  TYR38       0.2264
     60  O         -0.4590  -16.2400    2.3840 O.2    38  TYR38      -0.2867
     61  CB         1.0810  -14.6350    4.8390 C.3    38  TYR38       0.0534
     62  CG         2.2620  -15.2140    4.0960 C.ar   38  TYR38      -0.0201
     63  CD1        3.0600  -14.4090    3.2920 C.ar   38  TYR38      -0.0009
     64  CD2        2.5740  -16.5640    4.1890 C.ar   38  TYR38      -0.0009
     65  CE1        4.1380  -14.9330    2.6050 C.ar   38  TYR38       0.0417
     66  CE2        3.6590  -17.0970    3.5060 C.ar   38  TYR38       0.0417
     67  CZ         4.4330  -16.2740    2.7150 C.ar   38  TYR38       0.1957
     68  OH         5.5110  -16.7930    2.0300 O.3    38  TYR38      -0.2866
     69  N          7.6330  -16.2190   -2.0990 N.3    77  CYS77      -0.1235
     70  CA         7.9830  -14.8090   -2.0170 C.3    77  CYS77       0.1677
     71  C          7.6340  -14.0820   -3.3100 C.2    77  CYS77       0.2270
     72  O          7.0740  -12.9760   -3.2750 O.2    77  CYS77      -0.2867
     73  CB         9.4690  -14.6790   -1.6900 C.3    77  CYS77       0.0956
     74  SG         9.9930  -13.0060   -1.3470 S.3    77  CYS77      -0.0801
     75  N          3.7480  -13.7150   -3.2860 N.3    80  TYR80      -0.1227
     76  CA         3.0780  -12.8330   -2.3370 C.3    80  TYR80       0.1736
     77  C          3.3690  -11.3590   -2.5790 C.2    80  TYR80       0.2595
     78  O          2.4910  -10.5170   -2.3510 O.2    80  TYR80      -0.2718
     79  CB         3.4570  -13.1920   -0.8980 C.3    80  TYR80       0.0548
     80  CG         2.7340  -12.3100    0.0840 C.ar   80  TYR80      -0.0200
     81  CD1        1.3790  -12.4980    0.3510 C.ar   80  TYR80      -0.0009
     82  CD2        3.3860  -11.2540    0.7060 C.ar   80  TYR80      -0.0009
     83  CE1        0.7040  -11.6620    1.2320 C.ar   80  TYR80       0.0417
     84  CE2        2.7210  -10.4190    1.5870 C.ar   80  TYR80       0.0417
     85  CZ         1.3840  -10.6260    1.8430 C.ar   80  TYR80       0.1957
     86  OH         0.7280   -9.7930    2.7170 O.3    80  TYR80      -0.2866
     87  N          4.5690  -11.0220   -3.0320 N.am   81  ASN81      -0.1974
     88  CA         5.0430   -9.6450   -3.0090 C.3    81  ASN81       0.1688
     89  C          5.0080   -9.0330   -4.3970 C.2    81  ASN81       0.2292
     90  O          5.2320   -9.7240   -5.3960 O.2    81  ASN81      -0.2864
     91  CB         6.4640   -9.5830   -2.4590 C.3    81  ASN81       0.1181
     92  CG         6.5390  -10.0480   -1.0330 C.2    81  ASN81       0.2629
     93  OD1        6.1060   -9.3470   -0.1250 O.2    81  ASN81      -0.2716
     94  ND2        7.0600  -11.2530   -0.8260 N.am   81  ASN81      -0.0877
     95  N         11.4690   -7.4610   -1.1420 N.3    87  PHE87      -0.1241
     96  CA        11.2050   -8.8890   -0.9810 C.3    87  PHE87       0.1605
     97  C         11.2760   -9.6100   -2.3150 C.2    87  PHE87       0.2264
     98  O         11.9410  -10.6460   -2.4430 O.2    87  PHE87      -0.2867
     99  CB         9.8320   -9.1280   -0.3480 C.3    87  PHE87       0.0534
    100  CG         9.7490   -8.7510    1.0950 C.ar   87  PHE87      -0.0203
    101  CD1       10.3100   -9.5630    2.0690 C.ar   87  PHE87      -0.0042
    102  CD2        9.0910   -7.5950    1.4870 C.ar   87  PHE87      -0.0042
    103  CE1       10.2270   -9.2230    3.4030 C.ar   87  PHE87      -0.0003
    104  CE2        9.0060   -7.2520    2.8180 C.ar   87  PHE87      -0.0003
    105  CZ         9.5730   -8.0660    3.7790 C.ar   87  PHE87      -0.0000
@<TRIPOS>BOND
     1    90    89    2
     2    89    88    1
     3    71    72    2
     4    71    70    1
     5    75    76    1
     6    87    88    1
     7    87    77   am
     8    88    91    1
     9    77    78    2
    10    77    76    1
    11    91    92    1
    12    98    97    2
    13    76    79    1
    14    97    96    1
    15    69    70    1
    16    70    73    1
    17    73    74    1
    18    95    96    1
    19    92    94   am
    20    92    93    2
    21    96    99    1
    22    79    80    1
    23    99   100    1
    24    19    18   ar
    25    19    17   ar
    26    80    81   ar
    27    80    82   ar
    28    18    16   ar
    29    81    83   ar
    30    17    15   ar
    31    82    84   ar
    32   100   102   ar
    33   100   101   ar
    34    83    85   ar
    35    16    14   ar
    36   102   104   ar
    37    84    85   ar
    38    15    14   ar
    39    85    86    1
    40     8     6    1
    41    68    67    1
    42    14    13    1
    43   101   103   ar
    44    60    59    2
    45    65    67   ar
    46    65    63   ar
    47    67    66   ar
    48     6     5    1
    49   104   105   ar
    50    13    10    1
    51    63    62   ar
    52   103   105   ar
    53    66    64   ar
    54    59    58    1
    55    58    57    1
    56    58    61    1
    57    62    64   ar
    58    62    61    1
    59     5     7    1
    60     5     2    1
    61    10     9    1
    62    10    11    1
    63     9     3   am
    64     4     3    2
    65     3     2    1
    66    42    40    1
    67    55    54    1
    68     2     1    1
    69    12    11    2
    70    41    40    1
    71    40    37    1
    72    54    56    1
    73    54    51    1
    74    53    52    2
    75    51    52    1
    76    51    50    1
    77    37    36    1
    78    37    38    1
    79    36    31   am
    80    23    22    2
    81    38    39    2
    82    38    43   am
    83    31    30    1
    84    31    32    2
    85    20    21    1
    86    30    29    1
    87    30    33    1
    88    22    29   am
    89    22    21    1
    90    49    43    1
    91    49    48    1
    92    29    35    1
    93    43    44    1
    94    21    24    1
    95    33    34    1
    96    46    45    2
    97    48    47    1
    98    45    44    1
    99    34    35    1
   100    44    47    1
   101    24    25    1
   102    25    26    1
   103    26    27   ar
   104    26    28   ar
