@<TRIPOS>MOLECULE
tmp/5e3gA00.pdb
 105 104 0 0 0
SMALL
GASTEIGER

@<TRIPOS>ATOM
      1  N         19.1950    7.7780   -5.3610 N.3    25  ILE25      -0.1231
      2  CA        18.2520    6.6710   -5.4170 C.3    25  ILE25       0.1692
      3  C         18.9630    5.3440   -5.5810 C.2    25  ILE25       0.2592
      4  O         18.3240    4.2990   -5.4330 O.2    25  ILE25      -0.2718
      5  CB        17.1920    6.8900   -6.5080 C.3    25  ILE25       0.0266
      6  CG1       17.7560    6.6250   -7.8740 C.3    25  ILE25       0.0019
      7  CG2       16.6110    8.3100   -6.4250 C.3    25  ILE25       0.0020
      8  CD1       16.8190    5.8040   -8.6770 C.3    25  ILE25       0.0001
      9  N         20.2730    5.3670   -5.8570 N.am   26  PHE26      -0.1976
     10  CA        21.1110    4.1790   -5.9710 C.3    26  PHE26       0.1639
     11  C         22.1480    4.0920   -4.8540 C.2    26  PHE26       0.2290
     12  O         23.1200    3.3350   -4.9690 O.2    26  PHE26      -0.2864
     13  CB        21.8140    4.1660   -7.3300 C.3    26  PHE26       0.0560
     14  CG        20.8850    4.3080   -8.4970 C.ar   26  PHE26      -0.0200
     15  CD1       20.9070    5.4470   -9.2820 C.ar   26  PHE26      -0.0042
     16  CD2       19.9820    3.3050   -8.8010 C.ar   26  PHE26      -0.0042
     17  CE1       20.0360    5.5790  -10.3560 C.ar   26  PHE26      -0.0003
     18  CE2       19.1150    3.4270   -9.8780 C.ar   26  PHE26      -0.0003
     19  CZ        19.1560    4.5550  -10.6650 C.ar   26  PHE26      -0.0000
     20  N         21.9310    2.9710   -1.7290 N.3    28  GLU28      -0.1231
     21  CA        21.8250    1.8370   -0.8250 C.3    28  GLU28       0.1684
     22  C         21.0730    0.7130   -1.5210 C.2    28  GLU28       0.2434
     23  O         20.3840    0.9510   -2.5170 O.2    28  GLU28      -0.2733
     24  CB        21.1080    2.2460    0.4700 C.3    28  GLU28       0.0402
     25  CG        21.8530    3.3100    1.2510 C.3    28  GLU28       0.1161
     26  CD        21.1260    3.7320    2.5060 C.2    28  GLU28       0.3649
     27  OE1       21.7950    4.2350    3.4330 O.co2  28  GLU28      -0.2457
     28  OE2       19.8910    3.5560    2.5700 O.co2  28  GLU28      -0.2457
     29  N         21.2010   -0.5250   -1.0320 N.am   29  PRO29      -0.2718
     30  CA        20.4710   -1.6380   -1.6550 C.3    29  PRO29       0.1535
     31  C         18.9800   -1.3490   -1.7690 C.2    29  PRO29       0.2598
     32  O         18.3970   -0.6310   -0.9530 O.2    29  PRO29      -0.2715
     33  CB        20.7360   -2.8120   -0.7010 C.3    29  PRO29       0.0310
     34  CG        22.0400   -2.4910   -0.0670 C.3    29  PRO29       0.0237
     35  CD        22.0730   -0.9870    0.0670 C.3    29  PRO29       0.0939
     36  N         18.3660   -1.9080   -2.8080 N.am   30  VAL30      -0.1964
     37  CA        16.9150   -1.8340   -2.9630 C.3    30  VAL30       0.1712
     38  C         16.2830   -2.5730   -1.7900 C.2    30  VAL30       0.2458
     39  O         16.5260   -3.7770   -1.6270 O.2    30  VAL30      -0.2730
     40  CB        16.4560   -2.4320   -4.3030 C.3    30  VAL30       0.0289
     41  CG1       14.9330   -2.5180   -4.3470 C.3    30  VAL30       0.0023
     42  CG2       16.9950   -1.6090   -5.4790 C.3    30  VAL30       0.0023
     43  N         15.4770   -1.9040   -0.9480 N.am   31  PRO31      -0.2727
     44  CA        14.9400   -2.5720    0.2470 C.3    31  PRO31       0.1402
     45  C         13.9240   -3.6500   -0.0900 C.2    31  PRO31       0.2269
     46  O         12.7790   -3.3470   -0.4390 O.2    31  PRO31      -0.2865
     47  CB        14.2970   -1.4220    1.0320 C.3    31  PRO31       0.0296
     48  CG        13.9480   -0.4130   -0.0040 C.3    31  PRO31       0.0237
     49  CD        15.0270   -0.5060   -1.0500 C.3    31  PRO31       0.0939
     50  N         10.0560   -3.6310   -1.6000 N.3    35  VAL35      -0.1245
     51  CA         9.8840   -4.1190   -2.9650 C.3    35  VAL35       0.1561
     52  C          9.9660   -5.6410   -2.9070 C.2    35  VAL35       0.2260
     53  O         10.9690   -6.2230   -3.3420 O.2    35  VAL35      -0.2867
     54  CB        10.9430   -3.5170   -3.9040 C.3    35  VAL35       0.0252
     55  CG1       10.6620   -3.8900   -5.3450 C.3    35  VAL35       0.0019
     56  CG2       10.9950   -2.0010   -3.7400 C.3    35  VAL35       0.0019
     57  N         11.3400   -7.9130   -5.8000 N.3    38  TYR38      -0.1241
     58  CA        12.5160   -7.4230   -6.5130 C.3    38  TYR38       0.1605
     59  C         13.4050   -8.5650   -6.9920 C.2    38  TYR38       0.2264
     60  O         13.8320   -8.5890   -8.1520 O.2    38  TYR38      -0.2867
     61  CB        13.3080   -6.4680   -5.6250 C.3    38  TYR38       0.0534
     62  CG        14.3810   -5.7310   -6.3870 C.ar   38  TYR38      -0.0201
     63  CD1       14.0480   -4.7140   -7.2730 C.ar   38  TYR38      -0.0009
     64  CD2       15.7220   -6.0580   -6.2370 C.ar   38  TYR38      -0.0009
     65  CE1       15.0190   -4.0360   -7.9830 C.ar   38  TYR38       0.0417
     66  CE2       16.7050   -5.3800   -6.9440 C.ar   38  TYR38       0.0417
     67  CZ        16.3440   -4.3700   -7.8160 C.ar   38  TYR38       0.1957
     68  OH        17.3110   -3.6850   -8.5260 O.3    38  TYR38      -0.2866
     69  N         17.9640   -1.4000  -12.7020 N.3    77  CYS77      -0.1235
     70  CA        16.9190   -0.3850  -12.6100 C.3    77  CYS77       0.1677
     71  C         16.0910   -0.3250  -13.8900 C.2    77  CYS77       0.2270
     72  O         14.8570   -0.2080  -13.8380 O.2    77  CYS77      -0.2867
     73  CB        17.5660    0.9650  -12.3150 C.3    77  CYS77       0.0956
     74  SG        16.3870    2.2440  -11.9320 S.3    77  CYS77      -0.0801
     75  N         13.8330   -3.5920  -13.8190 N.3    80  TYR80      -0.1227
     76  CA        12.7330   -3.7160  -12.8650 C.3    80  TYR80       0.1736
     77  C         11.6060   -2.7290  -13.1420 C.2    80  TYR80       0.2595
     78  O         10.4280   -3.0670  -12.9690 O.2    80  TYR80      -0.2718
     79  CB        13.2340   -3.5330  -11.4360 C.3    80  TYR80       0.0548
     80  CG        12.1130   -3.7390  -10.4560 C.ar   80  TYR80      -0.0200
     81  CD1       11.6540   -5.0170  -10.1650 C.ar   80  TYR80      -0.0009
     82  CD2       11.4770   -2.6590   -9.8640 C.ar   80  TYR80      -0.0009
     83  CE1       10.6060   -5.2120   -9.2900 C.ar   80  TYR80       0.0417
     84  CE2       10.4280   -2.8440   -8.9860 C.ar   80  TYR80       0.0417
     85  CZ         9.9970   -4.1200   -8.7030 C.ar   80  TYR80       0.1957
     86  OH         8.9510   -4.3080   -7.8320 O.3    80  TYR80      -0.2866
     87  N         11.9390   -1.5110  -13.5580 N.am   81  ASN81      -0.1974
     88  CA        11.0060   -0.3930  -13.5610 C.3    81  ASN81       0.1688
     89  C         10.4770   -0.1150  -14.9570 C.2    81  ASN81       0.2292
     90  O         11.2080   -0.2360  -15.9490 O.2    81  ASN81      -0.2864
     91  CB        11.6860    0.8520  -13.0100 C.3    81  ASN81       0.1181
     92  CG        12.1150    0.6790  -11.5740 C.2    81  ASN81       0.2629
     93  OD1       11.2830    0.6720  -10.6710 O.2    81  ASN81      -0.2716
     94  ND2       13.4120    0.5340  -11.3530 N.am   81  ASN81      -0.0877
     95  N         12.3090    6.3300  -11.8700 N.3    87  PHE87      -0.1241
     96  CA        13.4290    5.4060  -11.6800 C.3    87  PHE87       0.1605
     97  C         14.0910    5.0610  -13.0030 C.2    87  PHE87       0.2264
     98  O         15.3230    5.0840  -13.1240 O.2    87  PHE87      -0.2867
     99  CB        12.9540    4.1180  -11.0040 C.3    87  PHE87       0.0534
    100  CG        12.6920    4.2520   -9.5360 C.ar   87  PHE87      -0.0203
    101  CD1       13.6130    4.8630   -8.7070 C.ar   87  PHE87      -0.0042
    102  CD2       11.5240    3.7590   -8.9830 C.ar   87  PHE87      -0.0042
    103  CE1       13.3780    4.9820   -7.3560 C.ar   87  PHE87      -0.0003
    104  CE2       11.2810    3.8760   -7.6320 C.ar   87  PHE87      -0.0003
    105  CZ        12.2100    4.4880   -6.8170 C.ar   87  PHE87      -0.0000
@<TRIPOS>BOND
     1    90    89    2
     2    89    88    1
     3    71    72    2
     4    71    70    1
     5    75    76    1
     6    88    87    1
     7    88    91    1
     8    87    77   am
     9    77    78    2
    10    77    76    1
    11    98    97    2
    12    91    92    1
    13    97    96    1
    14    76    79    1
    15    69    70    1
    16    70    73    1
    17    73    74    1
    18    95    96    1
    19    96    99    1
    20    92    94   am
    21    92    93    2
    22    79    80    1
    23    99   100    1
    24    19    17   ar
    25    19    18   ar
    26    80    81   ar
    27    80    82   ar
    28    17    15   ar
    29    81    83   ar
    30    18    16   ar
    31    82    84   ar
    32   100   102   ar
    33   100   101   ar
    34    83    85   ar
    35    15    14   ar
    36    84    85   ar
    37   102   104   ar
    38    16    14   ar
    39   101   103   ar
    40    85    86    1
    41     8     6    1
    42    68    67    1
    43    14    13    1
    44    60    59    2
    45    65    67   ar
    46    65    63   ar
    47     6     5    1
    48    67    66   ar
    49   104   105   ar
    50   103   105   ar
    51    13    10    1
    52    63    62   ar
    53    59    58    1
    54    66    64   ar
    55    58    57    1
    56    58    61    1
    57     5     7    1
    58     5     2    1
    59    62    64   ar
    60    62    61    1
    61    10     9    1
    62    10    11    1
    63     9     3   am
    64     3     4    2
    65     3     2    1
    66    42    40    1
    67     2     1    1
    68    55    54    1
    69    12    11    2
    70    41    40    1
    71    40    37    1
    72    54    56    1
    73    54    51    1
    74    53    52    2
    75    51    52    1
    76    51    50    1
    77    37    36    1
    78    37    38    1
    79    36    31   am
    80    23    22    2
    81    38    39    2
    82    38    43   am
    83    31    30    1
    84    31    32    2
    85    20    21    1
    86    30    29    1
    87    30    33    1
    88    22    29   am
    89    22    21    1
    90    49    43    1
    91    49    48    1
    92    29    35    1
    93    43    44    1
    94    21    24    1
    95    33    34    1
    96    46    45    2
    97    45    44    1
    98    34    35    1
    99    48    47    1
   100    44    47    1
   101    24    25    1
   102    25    26    1
   103    26    28   ar
   104    26    27   ar
