@<TRIPOS>MOLECULE
tmp/5e3hA00.pdb
 140 135 0 0 0
SMALL
GASTEIGER

@<TRIPOS>ATOM
      1  N         36.7490  -89.1740    2.3750 N.3     1  PHE1       -0.1227
      2  CA        36.8110  -88.3300    3.5630 C.3     1  PHE1        0.1736
      3  C         36.9000  -89.1600    4.8360 C.2     1  PHE1        0.2595
      4  O         35.9930  -89.9330    5.1500 O.2     1  PHE1       -0.2718
      5  CB        35.5860  -87.4130    3.6430 C.3     1  PHE1        0.0547
      6  CG        35.5690  -86.3120    2.6160 C.ar    1  PHE1       -0.0202
      7  CD1       36.5910  -86.1740    1.6890 C.ar    1  PHE1       -0.0042
      8  CD2       34.5230  -85.4060    2.5900 C.ar    1  PHE1       -0.0042
      9  CE1       36.5640  -85.1580    0.7540 C.ar    1  PHE1       -0.0003
     10  CE2       34.4920  -84.3890    1.6590 C.ar    1  PHE1       -0.0003
     11  CZ        35.5130  -84.2630    0.7390 C.ar    1  PHE1       -0.0000
     12  N         37.9970  -88.9930    5.5670 N.am    2  LYS2       -0.1980
     13  CA        38.1310  -89.5930    6.8870 C.3     2  LYS2        0.1596
     14  C         37.3370  -88.7560    7.8870 C.2     2  LYS2        0.2287
     15  O         37.6510  -87.5820    8.0880 O.2     2  LYS2       -0.2864
     16  CB        39.6000  -89.6760    7.3010 C.3     2  LYS2        0.0298
     17  CG        39.9060  -90.1180    8.7210 C.3     2  LYS2        0.0038
     18  CD        39.7580  -91.6170    8.8460 C.3     2  LYS2        0.0206
     19  CE        40.4100  -92.0690   10.1420 C.3     2  LYS2        0.1093
     20  NZ        39.5540  -91.8230   11.2840 N.3     2  LYS2       -0.1314
     21  N         35.9920  -86.6130   10.7420 N.3     4  ARG4       -0.1245
     22  CA        36.5810  -85.9150   11.8740 C.3     4  ARG4        0.1563
     23  C         35.9140  -86.3880   13.1580 C.2     4  ARG4        0.2260
     24  O         34.7460  -86.7760   13.1500 O.2     4  ARG4       -0.2867
     25  CB        36.4350  -84.4030   11.7040 C.3     4  ARG4        0.0307
     26  CG        37.2550  -83.8470   10.5510 C.3     4  ARG4        0.0489
     27  CD        36.5470  -82.6970    9.8580 C.3     4  ARG4        0.2205
     28  NE        37.3260  -82.1760    8.7370 N.pl3   4  ARG4       -0.0865
     29  CZ        36.8590  -81.3220    7.8320 C.cat   4  ARG4        0.5346
     30  NH1       35.6070  -80.8880    7.9020 N.pl3   4  ARG4        0.1354
     31  NH2       37.6460  -80.9050    6.8500 N.pl3   4  ARG4        0.1354
     32  N         32.6180  -84.9640   14.0660 N.3     7  GLN7       -0.1245
     33  CA        31.5090  -85.3800   13.2130 C.3     7  GLN7        0.1566
     34  C         30.8450  -86.6230   13.7930 C.2     7  GLN7        0.2260
     35  O         29.6250  -86.7800   13.7310 O.2     7  GLN7       -0.2867
     36  CB        31.9870  -85.6470   11.7860 C.3     7  GLN7        0.0367
     37  CG        32.3690  -84.3910   11.0280 C.3     7  GLN7        0.0905
     38  CD        32.9630  -84.6870    9.6680 C.2     7  GLN7        0.2608
     39  OE1       33.8080  -85.5690    9.5230 O.2     7  GLN7       -0.2717
     40  NE2       32.5180  -83.9500    8.6590 N.am    7  GLN7       -0.0878
     41  N         28.8640  -75.1040   13.4970 N.3    25  PRO25      -0.2102
     42  CA        29.1140  -73.9580   12.6110 C.3    25  PRO25       0.1504
     43  C         29.1330  -74.3240   11.1260 C.2    25  PRO25       0.2576
     44  O         29.4390  -75.4600   10.7670 O.2    25  PRO25      -0.2718
     45  CB        30.4900  -73.4600   13.0630 C.3    25  PRO25       0.0282
     46  CG        31.1390  -74.6440   13.6780 C.3    25  PRO25       0.0208
     47  CD        30.0370  -75.4190   14.3300 C.3    25  PRO25       0.0893
     48  N         28.8020  -73.3550   10.2780 N.am   26  THR26      -0.1939
     49  CA        28.8060  -73.5550    8.8330 C.3    26  THR26       0.2028
     50  C         30.1920  -73.9550    8.3380 C.2    26  THR26       0.2643
     51  O         31.1990  -73.3770    8.7500 O.2    26  THR26      -0.2714
     52  CB        28.3570  -72.2780    8.0910 C.3    26  THR26       0.1808
     53  OG1       27.0720  -71.8670    8.5740 O.3    26  THR26      -0.2208
     54  CG2       28.2810  -72.5180    6.5870 C.3    26  THR26       0.0379
     55  N         30.2340  -74.9520    7.4590 N.am   27  GLY27      -0.1939
     56  CA        31.4760  -75.3880    6.8470 C.3    27  GLY27       0.2014
     57  C         32.1700  -76.5140    7.5920 C.2    27  GLY27       0.2639
     58  O         33.1750  -77.0460    7.1200 O.2    27  GLY27      -0.2714
     59  N         31.6390  -76.8800    8.7550 N.am   28  CYS28      -0.1953
     60  CA        32.2290  -77.9420    9.5660 C.3    28  CYS28       0.1843
     61  C         31.9390  -79.3230    8.9770 C.2    28  CYS28       0.2626
     62  O         32.4150  -80.3330    9.4940 O.2    28  CYS28      -0.2714
     63  CB        31.7230  -77.8680   11.0090 C.3    28  CYS28       0.0997
     64  SG        30.0560  -78.5190   11.2660 S.3    28  CYS28      -0.0797
     65  N         31.1700  -79.3620    7.8920 N.am   29  GLY29      -0.1940
     66  CA        30.8140  -80.6150    7.2470 C.3    29  GLY29       0.2014
     67  C         29.6450  -81.3590    7.8680 C.2    29  GLY29       0.2639
     68  O         29.7000  -82.5760    8.0550 O.2    29  GLY29      -0.2714
     69  N         28.5820  -80.6260    8.1880 N.am   30  LYS30      -0.1963
     70  CA        27.3490  -81.2330    8.6840 C.3    30  LYS30       0.1728
     71  C         26.7220  -82.1800    7.6630 C.2    30  LYS30       0.2617
     72  O         25.9180  -83.0400    8.0220 O.2    30  LYS30      -0.2715
     73  CB        26.3330  -80.1530    9.0660 C.3    30  LYS30       0.0311
     74  CG        26.5390  -79.5770   10.4560 C.3    30  LYS30       0.0038
     75  CD        25.4300  -78.6070   10.8440 C.3    30  LYS30       0.0206
     76  CE        25.7420  -77.1760   10.4260 C.3    30  LYS30       0.1093
     77  NZ        25.4860  -76.9010    8.9900 N.3    30  LYS30      -0.1314
     78  N         27.0790  -82.0180    6.3920 N.am   31  THR31      -0.1937
     79  CA        26.5480  -82.8810    5.3400 C.3    31  THR31       0.2028
     80  C         27.0050  -84.3210    5.5450 C.2    31  THR31       0.2642
     81  O         26.2020  -85.2540    5.4800 O.2    31  THR31      -0.2714
     82  CB        26.9880  -82.4090    3.9380 C.3    31  THR31       0.1808
     83  OG1       26.5520  -81.0610    3.7230 O.3    31  THR31      -0.2208
     84  CG2       26.4020  -83.3070    2.8500 C.3    31  THR31       0.0379
     85  N         28.2980  -84.4950    5.7950 N.am   32  PHE32      -0.1973
     86  CA        28.8700  -85.8230    5.9750 C.3    32  PHE32       0.1639
     87  C         28.3580  -86.4710    7.2590 C.2    32  PHE32       0.2290
     88  O         28.3100  -87.6970    7.3680 O.2    32  PHE32      -0.2864
     89  CB        30.4000  -85.7480    5.9900 C.3    32  PHE32       0.0560
     90  CG        31.0740  -87.0910    6.0690 C.ar   32  PHE32      -0.0200
     91  CD1       30.5920  -88.1690    5.3430 C.ar   32  PHE32      -0.0042
     92  CD2       32.1960  -87.2720    6.8580 C.ar   32  PHE32      -0.0042
     93  CE1       31.2080  -89.4030    5.4130 C.ar   32  PHE32      -0.0003
     94  CE2       32.8180  -88.5040    6.9270 C.ar   32  PHE32      -0.0003
     95  CZ        32.3230  -89.5700    6.2040 C.ar   32  PHE32      -0.0000
     96  N         22.5650  -81.0890   -5.0380 N.3    65  GLN65      -0.1245
     97  CA        23.8600  -81.4950   -4.5080 C.3    65  GLN65       0.1566
     98  C         23.7320  -82.7010   -3.5820 C.2    65  GLN65       0.2260
     99  O         24.4970  -83.6570   -3.6930 O.2    65  GLN65      -0.2867
    100  CB        24.5220  -80.3350   -3.7640 C.3    65  GLN65       0.0367
    101  CG        25.8900  -80.6750   -3.1940 C.3    65  GLN65       0.0905
    102  CD        26.6060  -79.4630   -2.6380 C.2    65  GLN65       0.2608
    103  OE1       26.8470  -78.4880   -3.3500 O.2    65  GLN65      -0.2717
    104  NE2       26.9470  -79.5150   -1.3550 N.am   65  GLN65      -0.0878
    105  N         17.3680  -80.3790    6.7850 N.3   132  ASP132     -0.1225
    106  CA        18.5200  -79.4980    6.6240 C.3   132  ASP132      0.1805
    107  C         18.0790  -78.0530    6.8290 C.2   132  ASP132      0.2597
    108  O         17.0400  -77.6390    6.3180 O.2   132  ASP132     -0.2718
    109  CB        19.1640  -79.6830    5.2500 C.3   132  ASP132      0.1424
    110  CG        20.4530  -78.8990    5.1030 C.2   132  ASP132      0.3668
    111  OD1       20.5210  -78.0240    4.2150 O.co2 132  ASP132     -0.2456
    112  OD2       21.3940  -79.1500    5.8860 O.co2 132  ASP132     -0.2456
    113  N         18.8790  -77.2920    7.5720 N.am  133  GLU133     -0.1979
    114  CA        18.4950  -75.9510    8.0100 C.3   133  GLU133      0.1602
    115  C         17.1930  -76.0300    8.8040 C.2   133  GLU133      0.2287
    116  O         16.2240  -75.3330    8.5040 O.2   133  GLU133     -0.2864
    117  CB        18.3400  -75.0000    6.8190 C.3   133  GLU133      0.0415
    118  CG        19.5140  -75.0060    5.8450 C.3   133  GLU133      0.1163
    119  CD        20.8100  -74.5110    6.4670 C.2   133  GLU133      0.3649
    120  OE1       20.7620  -73.8800    7.5440 O.co2 133  GLU133     -0.2457
    121  OE2       21.8810  -74.7530    5.8740 O.co2 133  GLU133     -0.2457
    122  N         27.3100  -72.8220   -0.4720 N.3   441  ASP441     -0.1239
    123  CA        28.6810  -73.3330   -0.3950 C.3   441  ASP441      0.1674
    124  C         29.5230  -72.8160   -1.5640 C.2   441  ASP441      0.2266
    125  O         30.1470  -73.5900   -2.2900 O.2   441  ASP441     -0.2867
    126  CB        28.6920  -74.8650   -0.3630 C.3   441  ASP441      0.1410
    127  CG        30.0330  -75.4310    0.0640 C.2   441  ASP441      0.3668
    128  OD1       30.7820  -75.9180   -0.8090 O.co2 441  ASP441     -0.2456
    129  OD2       30.3420  -75.3820    1.2740 O.co2 441  ASP441     -0.2456
    130  N         35.5640  -69.1110    6.6920 N.3   468  ARG468     -0.1245
    131  CA        36.0870  -70.2620    7.4330 C.3   468  ARG468      0.1563
    132  C         37.6000  -70.2180    7.6230 C.2   468  ARG468      0.2260
    133  O         38.1160  -70.7100    8.6230 O.2   468  ARG468     -0.2867
    134  CB        35.7330  -71.5680    6.7210 C.3   468  ARG468      0.0307
    135  CG        34.2660  -71.7590    6.4150 C.3   468  ARG468      0.0489
    136  CD        34.0670  -72.9980    5.5590 C.3   468  ARG468      0.2205
    137  NE        32.8410  -72.9390    4.7690 N.pl3 468  ARG468     -0.0865
    138  CZ        32.5120  -73.8270    3.8370 C.cat 468  ARG468      0.5346
    139  NH1       33.3160  -74.8500    3.5750 N.pl3 468  ARG468      0.1354
    140  NH2       31.3780  -73.6940    3.1640 N.pl3 468  ARG468      0.1354
@<TRIPOS>BOND
     1    96    97    1
     2    97   100    1
     3    97    98    1
     4   100   101    1
     5    99    98    2
     6   103   102    2
     7   101   102    1
     8   102   104   am
     9   125   124    2
    10   124   123    1
    11   128   127   ar
    12   122   123    1
    13   123   126    1
    14   126   127    1
    15   127   129   ar
    16    11     9   ar
    17    11    10   ar
    18     9     7   ar
    19    10     8   ar
    20     7     6   ar
    21     1     2    1
    22     8     6   ar
    23     6     5    1
    24    84    82    1
    25   140   138    1
    26     2     5    1
    27     2     3    1
    28   139   138    1
    29    83    82    1
    30   138   137    2
    31    82    79    1
    32   111   110   ar
    33   137   136    1
    34     3     4    2
    35     3    12   am
    36   110   109    1
    37   110   112   ar
    38   109   106    1
    39    79    80    1
    40    79    78    1
    41    91    93   ar
    42    91    90   ar
    43    93    95   ar
    44    81    80    2
    45    80    85   am
    46   136   135    1
    47    12    13    1
    48    85    86    1
    49   118   119    1
    50   118   117    1
    51   121   119   ar
    52    86    89    1
    53    86    87    1
    54    89    90    1
    55    90    92   ar
    56    95    94   ar
    57   108   107    2
    58    78    71   am
    59   135   134    1
    60   119   120   ar
    61    54    52    1
    62   106   105    1
    63   106   107    1
    64   130   131    1
    65   134   131    1
    66   117   114    1
    67   107   113   am
    68    56    55    1
    69    56    57    1
    70    31    29    1
    71    92    94   ar
    72    13    16    1
    73    13    14    1
    74    58    57    2
    75    66    67    1
    76    66    65    1
    77    87    88    2
    78    16    17    1
    79   131   132    1
    80    55    50   am
    81   113   114    1
    82    57    59   am
    83   132   133    2
    84    71    72    2
    85    71    70    1
    86    29    30    1
    87    29    28    2
    88    67    68    2
    89    67    69   am
    90    14    15    2
    91    65    61   am
    92   114   115    1
    93    52    53    1
    94    52    49    1
    95    69    70    1
    96    50    51    2
    97    50    49    1
    98   116   115    2
    99    40    38   am
   100    70    73    1
   101    17    18    1
   102    28    27    1
   103    59    60    1
   104    49    48    1
   105    18    19    1
   106    61    62    2
   107    61    60    1
   108    77    76    1
   109    73    74    1
   110    39    38    2
   111    60    63    1
   112    38    37    1
   113    27    26    1
   114    19    20    1
   115    48    43   am
   116    76    75    1
   117    74    75    1
   118    26    25    1
   119    21    22    1
   120    44    43    2
   121    63    64    1
   122    37    36    1
   123    43    42    1
   124    25    22    1
   125    36    33    1
   126    22    23    1
   127    42    45    1
   128    42    41    1
   129    45    46    1
   130    24    23    2
   131    33    34    1
   132    33    32    1
   133    41    47    1
   134    46    47    1
   135    35    34    2
