@<TRIPOS>MOLECULE
tmp/5e3kA00.pdb
 139 134 0 0 0
SMALL
GASTEIGER

@<TRIPOS>ATOM
      1  N         42.2350   -0.4460   53.0980 N.3    32  TYR32      -0.1241
      2  CA        41.4100   -0.3750   51.9160 C.3    32  TYR32       0.1605
      3  C         42.2160   -0.7970   50.6860 C.2    32  TYR32       0.2264
      4  O         43.3810   -0.4550   50.5690 O.2    32  TYR32      -0.2867
      5  CB        40.9120    1.0200   51.7070 C.3    32  TYR32       0.0534
      6  CG        39.6910    1.3300   52.5420 C.ar   32  TYR32      -0.0201
      7  CD1       39.8060    1.6320   53.8780 C.ar   32  TYR32      -0.0009
      8  CD2       38.4330    1.3020   51.9820 C.ar   32  TYR32      -0.0009
      9  CE1       38.6810    1.8510   54.6590 C.ar   32  TYR32       0.0417
     10  CE2       37.2890    1.5550   52.7480 C.ar   32  TYR32       0.0417
     11  CZ        37.4150    1.8120   54.0840 C.ar   32  TYR32       0.1957
     12  OH        36.2850    2.0710   54.8550 O.3    32  TYR32      -0.2866
     13  N         29.2090    7.8500   48.6660 N.3    61  GLY61      -0.1210
     14  CA        29.4190    7.5480   50.0890 C.3    61  GLY61       0.1956
     15  C         28.5810    6.4090   50.5810 C.2    61  GLY61       0.2611
     16  O         28.3460    6.3130   51.7700 O.2    61  GLY61      -0.2717
     17  N         28.2350    5.5070   49.6710 N.am   62  VAL62      -0.1979
     18  CA        27.2260    4.4420   49.8460 C.3    62  VAL62       0.1595
     19  C         25.9550    5.0320   50.4930 C.2    62  VAL62       0.2287
     20  O         25.4880    4.5690   51.5570 O.2    62  VAL62      -0.2864
     21  CB        27.7330    3.2200   50.6440 C.3    62  VAL62       0.0276
     22  CG1       26.8030    2.0100   50.4310 C.3    62  VAL62       0.0022
     23  CG2       29.1720    2.7760   50.2480 C.3    62  VAL62       0.0022
     24  N         28.9400    8.1100   64.3480 N.3   118  THR118     -0.1203
     25  CA        29.0400    7.2070   63.2120 C.3   118  THR118      0.1994
     26  C         27.9000    6.1480   63.2330 C.2   118  THR118      0.2618
     27  O         27.2110    5.9270   64.2420 O.2   118  THR118     -0.2717
     28  CB        30.4050    6.4500   63.2050 C.3   118  THR118      0.1784
     29  OG1       30.4450    5.6070   64.3690 O.3   118  THR118     -0.2211
     30  CG2       31.5320    7.3930   63.2810 C.3   118  THR118      0.0376
     31  N         27.7690    5.4470   62.1220 N.am  119  GLY119     -0.1942
     32  CA        26.7590    4.3620   62.0440 C.3   119  GLY119      0.2014
     33  C         27.0520    3.2590   63.0320 C.2   119  GLY119      0.2638
     34  O         26.1520    2.7610   63.7230 O.2   119  GLY119     -0.2714
     35  N         28.3400    2.9090   63.1640 N.am  120  ALA120     -0.1977
     36  CA        28.7150    1.9000   64.1710 C.3   120  ALA120      0.1597
     37  C         28.2840    2.3280   65.5730 C.2   120  ALA120      0.2287
     38  O         27.7910    1.5120   66.3540 O.2   120  ALA120     -0.2864
     39  CB        30.2160    1.6340   64.1420 C.3   120  ALA120      0.0319
     40  N         25.6580   -5.9260   57.9430 N.3   154  TYR154     -0.1227
     41  CA        26.7610   -5.0090   58.1740 C.3   154  TYR154      0.1736
     42  C         26.2330   -3.8530   58.9990 C.2   154  TYR154      0.2595
     43  O         25.2790   -3.2170   58.5870 O.2   154  TYR154     -0.2718
     44  CB        27.3770   -4.4740   56.8770 C.3   154  TYR154      0.0548
     45  CG        28.6290   -3.6520   57.0850 C.ar  154  TYR154     -0.0200
     46  CD1       28.5690   -2.3210   57.3590 C.ar  154  TYR154     -0.0009
     47  CD2       29.8970   -4.2380   57.0420 C.ar  154  TYR154     -0.0009
     48  CE1       29.7180   -1.5920   57.5130 C.ar  154  TYR154      0.0417
     49  CE2       31.0490   -3.5160   57.2630 C.ar  154  TYR154      0.0417
     50  CZ        30.9470   -2.1990   57.5140 C.ar  154  TYR154      0.1957
     51  OH        32.0910   -1.4600   57.6810 O.3   154  TYR154     -0.2866
     52  N         26.8940   -3.5770   60.1040 N.am  155  TRP155     -0.1962
     53  CA        26.5690   -2.3910   60.9260 C.3   155  TRP155      0.1771
     54  C         27.7970   -1.6720   61.4300 C.2   155  TRP155      0.2620
     55  O         27.6970   -0.7010   62.1340 O.2   155  TRP155     -0.2715
     56  CB        25.5780   -2.7000   62.0250 C.3   155  TRP155      0.0590
     57  CG        25.9840   -3.6550   63.1550 C.ar  155  TRP155      0.0006
     58  CD1       25.8310   -5.0130   63.1760 C.ar  155  TRP155      0.0946
     59  CD2       26.5170   -3.3040   64.4360 C.ar  155  TRP155      0.0152
     60  NE1       26.2460   -5.5110   64.3560 N.ar  155  TRP155     -0.2442
     61  CE2       26.6470   -4.4840   65.1690 C.ar  155  TRP155      0.0810
     62  CE3       26.9270   -2.1060   65.0230 C.ar  155  TRP155      0.0012
     63  CZ2       27.1550   -4.5050   66.4350 C.ar  155  TRP155      0.0191
     64  CZ3       27.4520   -2.1400   66.2760 C.ar  155  TRP155      0.0001
     65  CH2       27.5150   -3.3130   67.0000 C.ar  155  TRP155      0.0015
     66  N         28.9790   -2.0570   60.9900 N.am  156  GLY156     -0.1940
     67  CA        30.1380   -1.3810   61.4920 C.3   156  GLY156      0.2014
     68  C         31.3040   -2.2660   61.7870 C.2   156  GLY156      0.2638
     69  O         31.3040   -3.4360   61.3990 O.2   156  GLY156     -0.2714
     70  N         32.3080   -1.6390   62.3850 N.am  157  ARG157     -0.1977
     71  CA        33.6340   -2.2570   62.5370 C.3   157  ARG157      0.1597
     72  C         34.1500   -2.2870   63.9630 C.2   157  ARG157      0.2287
     73  O         35.3130   -2.6750   64.2130 O.2   157  ARG157     -0.2864
     74  CB        34.6270   -1.5510   61.6100 C.3   157  ARG157      0.0334
     75  CG        34.2760   -1.6640   60.1460 C.3   157  ARG157      0.0492
     76  CD        34.6370   -3.0550   59.6020 C.3   157  ARG157      0.2205
     77  NE        34.5410   -3.0830   58.1730 N.pl3 157  ARG157     -0.0865
     78  CZ        35.1880   -3.9390   57.4000 C.cat 157  ARG157      0.5346
     79  NH1       35.9170   -4.8980   57.9410 N.pl3 157  ARG157      0.1354
     80  NH2       35.1080   -3.8020   56.0970 N.pl3 157  ARG157      0.1354
     81  N         18.3100   -4.9010   58.5770 N.3   207  GLU207     -0.1245
     82  CA        18.3260   -3.9090   57.4930 C.3   207  GLU207      0.1567
     83  C         17.1010   -4.1040   56.5840 C.2   207  GLU207      0.2260
     84  O         16.8140   -5.2110   56.2060 O.2   207  GLU207     -0.2867
     85  CB        19.6120   -4.0720   56.6530 C.3   207  GLU207      0.0388
     86  CG        20.9190   -3.7830   57.4040 C.3   207  GLU207      0.1160
     87  CD        22.1510   -4.2740   56.6360 C.2   207  GLU207      0.3649
     88  OE1       22.5850   -3.5270   55.6960 O.co2 207  GLU207     -0.2457
     89  OE2       22.6710   -5.3640   57.0020 O.co2 207  GLU207     -0.2457
     90  N         25.6980   -3.4870   52.4210 N.3   212  GLU212     -0.1245
     91  CA        27.0020   -4.1070   52.0720 C.3   212  GLU212      0.1567
     92  C         26.8540   -5.5610   51.6990 C.2   212  GLU212      0.2260
     93  O         27.7040   -6.0800   50.9520 O.2   212  GLU212     -0.2867
     94  CB        28.0380   -3.9970   53.1860 C.3   212  GLU212      0.0388
     95  CG        28.3380   -2.5400   53.6450 C.3   212  GLU212      0.1160
     96  CD        28.8140   -1.6400   52.5020 C.2   212  GLU212      0.3649
     97  OE1       30.0220   -1.7130   52.1560 O.co2 212  GLU212     -0.2457
     98  OE2       27.9730   -0.8840   51.9040 O.co2 212  GLU212     -0.2457
     99  N         17.8640   -0.7260   60.9710 N.3   240  ASP240     -0.1239
    100  CA        19.0260    0.0150   60.5510 C.3   240  ASP240      0.1674
    101  C         18.7560    0.6240   59.2060 C.2   240  ASP240      0.2266
    102  O         18.7680   -0.0770   58.1970 O.2   240  ASP240     -0.2867
    103  CB        20.2590   -0.8790   60.5030 C.3   240  ASP240      0.1410
    104  CG        21.5410   -0.1090   60.1870 C.2   240  ASP240      0.3668
    105  OD1       21.4520    1.0430   59.6960 O.co2 240  ASP240     -0.2456
    106  OD2       22.6670   -0.6800   60.4050 O.co2 240  ASP240     -0.2456
    107  N         20.5990    3.3000   58.1730 N.3   242  ILE242     -0.1231
    108  CA        21.8120    4.1020   57.9230 C.3   242  ILE242      0.1692
    109  C         22.0980    4.2270   56.4270 C.2   242  ILE242      0.2592
    110  O         22.4210    5.2950   55.9340 O.2   242  ILE242     -0.2718
    111  CB        23.0110    3.5910   58.7630 C.3   242  ILE242      0.0266
    112  CG1       22.7290    3.9000   60.2490 C.3   242  ILE242      0.0019
    113  CG2       24.3340    4.2070   58.3680 C.3   242  ILE242      0.0020
    114  CD1       23.4930    3.0890   61.2670 C.3   242  ILE242      0.0001
    115  N         21.9390    3.1310   55.6780 N.am  243  GLN243     -0.1966
    116  CA        22.1350    3.1290   54.2440 C.3   243  GLN243      0.1733
    117  C         20.8170    3.2890   53.4200 C.2   243  GLN243      0.2617
    118  O         20.7980    3.9310   52.3710 O.2   243  GLN243     -0.2715
    119  CB        22.9080    1.8620   53.8560 C.3   243  GLN243      0.0408
    120  CG        23.2040    1.8730   52.3570 C.3   243  GLN243      0.0908
    121  CD        24.0970    0.7480   51.8800 C.2   243  GLN243      0.2608
    122  OE1       23.9870    0.3260   50.7170 O.2   243  GLN243     -0.2717
    123  NE2       24.9940    0.2610   52.7360 N.am  243  GLN243     -0.0878
    124  N         19.6910    2.7510   53.9130 N.am  244  THR244     -0.1951
    125  CA        18.4910    2.7330   53.1780 C.3   244  THR244      0.1897
    126  C         17.5720    3.9010   53.4560 C.2   244  THR244      0.2313
    127  O         16.5900    4.0920   52.7500 O.2   244  THR244     -0.2863
    128  CB        17.6560    1.4550   53.4610 C.3   244  THR244      0.1794
    129  OG1       17.2480    1.4410   54.8420 O.3   244  THR244     -0.2208
    130  CG2       18.4340    0.1730   53.0890 C.3   244  THR244      0.0378
    131  N         24.8950    8.4740   57.7770 N.3   269  LYS269     -0.1245
    132  CA        25.2260    8.7830   56.4060 C.3   269  LYS269      0.1561
    133  C         24.6390   10.1360   55.8950 C.2   269  LYS269      0.2260
    134  O         25.1580   11.1730   56.2420 O.2   269  LYS269     -0.2867
    135  CB        24.8800    7.5760   55.5420 C.3   269  LYS269      0.0271
    136  CG        25.9210    6.4480   55.6850 C.3   269  LYS269      0.0035
    137  CD        25.5810    5.3470   54.7110 C.3   269  LYS269      0.0206
    138  CE        26.4780    4.1240   54.7830 C.3   269  LYS269      0.1093
    139  NZ        27.7730    4.4110   54.2020 N.3   269  LYS269     -0.1314
@<TRIPOS>BOND
     1    13    14    1
     2    17    18    1
     3    17    15   am
     4    18    19    1
     5    18    21    1
     6    14    15    1
     7    23    21    1
     8    22    21    1
     9    19    20    2
    10     4     3    2
    11    15    16    2
    12     3     2    1
    13   122   121    2
    14    93    92    2
    15    92    91    1
    16     5     2    1
    17     5     6    1
    18   121   120    1
    19   121   123   am
    20    98    96   ar
    21     2     1    1
    22     8     6   ar
    23     8    10   ar
    24    91    90    1
    25    91    94    1
    26    97    96   ar
    27   120   119    1
    28   118   117    2
    29    96    95    1
    30     6     7   ar
    31    10    11   ar
    32   127   126    2
    33   130   128    1
    34   125   126    1
    35   125   128    1
    36   125   124    1
    37    94    95    1
    38   117   124   am
    39   117   116    1
    40   128   129    1
    41   119   116    1
    42     7     9   ar
    43    11     9   ar
    44    11    12    1
    45   139   138    1
    46   116   115    1
    47   137   138    1
    48   137   136    1
    49   135   136    1
    50   135   132    1
    51   115   109   am
    52    88    87   ar
    53   133   134    2
    54   133   132    1
    55   110   109    2
    56    80    78    1
    57    84    83    2
    58   132   131    1
    59   109   108    1
    60    83    82    1
    61    87    89   ar
    62    87    86    1
    63    85    86    1
    64    85    82    1
    65    44    45    1
    66    44    41    1
    67    47    45   ar
    68    47    49   ar
    69    45    46   ar
    70    49    50   ar
    71    46    48   ar
    72    78    79    1
    73    78    77    2
    74    82    81    1
    75    48    50   ar
    76    50    51    1
    77   108   107    1
    78   108   111    1
    79    40    41    1
    80    77    76    1
    81    41    42    1
    82   102   101    2
    83   113   111    1
    84    43    42    2
    85   111   112    1
    86    42    52   am
    87   101   100    1
    88    76    75    1
    89   105   104   ar
    90    52    53    1
    91    75    74    1
    92   104   106   ar
    93   104   103    1
    94   112   114    1
    95   103   100    1
    96   100    99    1
    97    53    54    1
    98    53    56    1
    99    66    54   am
   100    66    67    1
   101    69    68    2
   102    54    55    2
   103    67    68    1
   104    74    71    1
   105    68    70   am
   106    56    57    1
   107    32    31    1
   108    32    33    1
   109    31    26   am
   110    70    71    1
   111    71    72    1
   112    33    35   am
   113    33    34    2
   114    57    58   ar
   115    57    59   ar
   116    35    36    1
   117    58    60   ar
   118    28    25    1
   119    28    30    1
   120    28    29    1
   121    25    26    1
   122    25    24    1
   123    26    27    2
   124    72    73    2
   125    39    36    1
   126    36    37    1
   127    60    61   ar
   128    59    62   ar
   129    59    61   ar
   130    62    64   ar
   131    61    63   ar
   132    37    38    2
   133    64    65   ar
   134    63    65   ar
