@<TRIPOS>MOLECULE
tmp/5e3qA00.pdb
 148 140 0 0 0
SMALL
GASTEIGER

@<TRIPOS>ATOM
      1  N          5.1500   -2.8830   34.3480 N.3   164  GLU164     -0.1245
      2  CA         4.6250   -2.0420   35.4150 C.3   164  GLU164      0.1567
      3  C          5.5210   -0.7910   35.6960 C.2   164  GLU164      0.2260
      4  O          5.1110    0.1060   36.3810 O.2   164  GLU164     -0.2867
      5  CB         4.4800   -2.7930   36.7070 C.3   164  GLU164      0.0388
      6  CG         3.7710   -1.9180   37.7970 C.3   164  GLU164      0.1160
      7  CD         2.2970   -1.5280   37.5360 C.2   164  GLU164      0.3649
      8  OE1        1.7080   -2.0760   36.5420 O.co2 164  GLU164     -0.2457
      9  OE2        1.7800   -0.6080   38.2650 O.co2 164  GLU164     -0.2457
     10  N         10.3420   -1.6920   37.8760 N.3   180  GLU180     -0.1245
     11  CA         8.9860   -2.2420   37.7960 C.3   180  GLU180      0.1567
     12  C          7.9910   -1.3250   38.4570 C.2   180  GLU180      0.2260
     13  O          6.8190   -1.6580   38.6130 O.2   180  GLU180     -0.2867
     14  CB         8.9240   -3.6260   38.4600 C.3   180  GLU180      0.0388
     15  CG        10.1010   -4.5630   38.0250 C.3   180  GLU180      0.1160
     16  CD        10.0180   -5.9580   38.5860 C.2   180  GLU180      0.3649
     17  OE1       10.6630   -6.2670   39.5580 O.co2 180  GLU180     -0.2457
     18  OE2        9.2180   -6.6570   38.0340 O.co2 180  GLU180     -0.2457
     19  N         16.9370   -1.4820   42.4190 N.3   194  ASP194     -0.1239
     20  CA        15.7770   -2.1530   41.7890 C.3   194  ASP194      0.1674
     21  C         14.4980   -1.5980   42.3930 C.2   194  ASP194      0.2266
     22  O         14.4410   -1.3900   43.6190 O.2   194  ASP194     -0.2867
     23  CB        15.8530   -3.6870   42.0100 C.3   194  ASP194      0.1410
     24  CG        17.0090   -4.3180   41.1780 C.2   194  ASP194      0.3668
     25  OD1       17.5190   -3.7420   40.1550 O.co2 194  ASP194     -0.2456
     26  OD2       17.4450   -5.3820   41.6090 O.co2 194  ASP194     -0.2456
     27  N         10.7170   -2.1900   42.7540 N.3   196  GLY196     -0.1210
     28  CA         9.7350   -3.2890   42.6830 C.3   196  GLY196      0.1956
     29  C          8.3930   -2.9450   42.0760 C.2   196  GLY196      0.2612
     30  O          8.0870   -1.7930   41.8380 O.2   196  GLY196     -0.2717
     31  N          7.6380   -3.9950   41.7640 N.am  197  GLY197     -0.1956
     32  CA         6.3980   -3.8310   41.0520 C.3   197  GLY197      0.1869
     33  C          5.4170   -2.8880   41.7140 C.2   197  GLY197      0.2309
     34  O          5.0840   -3.0770   42.8710 O.2   197  GLY197     -0.2863
     35  N         16.6920   -1.1630   47.2160 N.3   212  LEU212     -0.1231
     36  CA        15.5970   -2.0840   46.8270 C.3   212  LEU212      0.1693
     37  C         14.3020   -1.4460   47.3370 C.2   212  LEU212      0.2592
     38  O         14.1160   -1.2430   48.5820 O.2   212  LEU212     -0.2718
     39  CB        15.7510   -3.5160   47.4220 C.3   212  LEU212      0.0284
     40  CG        14.5290   -4.4190   47.1190 C.3   212  LEU212      0.0019
     41  CD1       14.3410   -4.5720   45.6240 C.3   212  LEU212      0.0001
     42  CD2       14.7810   -5.7270   47.8510 C.3   212  LEU212      0.0001
     43  N         13.3990   -1.1150   46.4430 N.am  213  LEU213     -0.1966
     44  CA        12.0680   -0.6650   46.8160 C.3   213  LEU213      0.1728
     45  C         11.1490   -1.8520   46.5980 C.2   213  LEU213      0.2617
     46  O         11.0670   -2.3960   45.4980 O.2   213  LEU213     -0.2715
     47  CB        11.5690    0.5270   45.9370 C.3   213  LEU213      0.0311
     48  CG        12.3490    1.8160   46.0630 C.3   213  LEU213      0.0022
     49  CD1       11.5320    2.9140   45.4490 C.3   213  LEU213      0.0001
     50  CD2       12.8170    2.2160   47.4280 C.3   213  LEU213      0.0001
     51  N         10.5760   -2.3460   47.6860 N.am  214  GLY214     -0.1940
     52  CA         9.6290   -3.4560   47.5930 C.3   214  GLY214      0.2014
     53  C          8.4190   -3.1700   46.7320 C.2   214  GLY214      0.2639
     54  O          8.0720   -2.0030   46.4440 O.2   214  GLY214     -0.2714
     55  N          7.7850   -4.2370   46.2840 N.am  215  ALA215     -0.1963
     56  CA         6.5800   -4.0580   45.5470 C.3   215  ALA215      0.1728
     57  C          5.5410   -3.2150   46.3310 C.2   215  ALA215      0.2616
     58  O          5.3750   -3.3460   47.5290 O.2   215  ALA215     -0.2715
     59  CB         6.0290   -5.3990   45.2010 C.3   215  ALA215      0.0334
     60  N          4.8700   -2.3370   45.6020 N.am  216  ASN216     -0.1972
     61  CA         3.8810   -1.4520   46.1440 C.3   216  ASN216      0.1688
     62  C          4.3430   -0.5120   47.2580 C.2   216  ASN216      0.2292
     63  O          3.5340   -0.0730   48.0400 O.2   216  ASN216     -0.2864
     64  CB         2.5740   -2.2450   46.5760 C.3   216  ASN216      0.1181
     65  CG         1.8250   -2.8040   45.3990 C.2   216  ASN216      0.2629
     66  OD1        2.0970   -2.4100   44.2760 O.2   216  ASN216     -0.2716
     67  ND2        0.7800   -3.6270   45.6330 N.am  216  ASN216     -0.0877
     68  N         16.6050   -0.2730   51.8400 N.3   228  ILE228     -0.1231
     69  CA        15.5230   -1.1640   51.4480 C.3   228  ILE228      0.1692
     70  C         14.2820   -0.5740   52.0180 C.2   228  ILE228      0.2592
     71  O         14.2300   -0.1560   53.1830 O.2   228  ILE228     -0.2718
     72  CB        15.7020   -2.6090   51.9530 C.3   228  ILE228      0.0266
     73  CG1       16.9850   -3.2140   51.4340 C.3   228  ILE228      0.0019
     74  CG2       14.4710   -3.3900   51.5300 C.3   228  ILE228      0.0020
     75  CD1       17.2450   -4.5950   51.9730 C.3   228  ILE228      0.0001
     76  N         13.1800   -0.5160   51.1890 N.am  229  ILE229     -0.1966
     77  CA        11.8760   -0.1150   51.7360 C.3   229  ILE229      0.1727
     78  C         11.0010   -1.3680   51.5530 C.2   229  ILE229      0.2616
     79  O         10.8410   -1.9000   50.4240 O.2   229  ILE229     -0.2715
     80  CB        11.2540    1.0840   51.0800 C.3   229  ILE229      0.0290
     81  CG1       12.1050    2.3400   51.3630 C.3   229  ILE229      0.0022
     82  CG2        9.8620    1.3530   51.6280 C.3   229  ILE229      0.0023
     83  CD1       11.6070    3.6170   50.7460 C.3   229  ILE229      0.0001
     84  N         10.4710   -1.8610   52.6840 N.am  230  GLU230     -0.1963
     85  CA         9.6010   -3.0780   52.6650 C.3   230  GLU230      0.1733
     86  C          8.4430   -2.9640   51.6520 C.2   230  GLU230      0.2616
     87  O          7.8470   -1.8960   51.4740 O.2   230  GLU230     -0.2715
     88  CB         8.9450   -3.2120   54.0410 C.3   230  GLU230      0.0429
     89  CG         8.1270   -4.4690   54.2580 C.3   230  GLU230      0.1163
     90  CD         7.4850   -4.4550   55.6930 C.2   230  GLU230      0.3649
     91  OE1        7.3580   -5.6010   56.2220 O.co2 230  GLU230     -0.2457
     92  OE2        7.0170   -3.4270   56.1790 O.co2 230  GLU230     -0.2457
     93  N          8.0850   -4.0920   51.0350 N.am  231  ALA231     -0.1977
     94  CA         6.8770   -4.1270   50.2090 C.3   231  ALA231      0.1597
     95  C          5.6690   -3.5470   50.9450 C.2   231  ALA231      0.2287
     96  O          5.4400   -3.7960   52.1470 O.2   231  ALA231     -0.2864
     97  CB         6.5510   -5.5370   49.7510 C.3   231  ALA231      0.0319
     98  N         17.0650   -0.2070   56.4140 N.3   260  ILE260     -0.1245
     99  CA        15.9020   -1.0180   55.9820 C.3   260  ILE260      0.1561
    100  C         14.7170   -0.4200   56.7310 C.2   260  ILE260      0.2260
    101  O         14.6350   -0.4240   57.9620 O.2   260  ILE260     -0.2867
    102  CB        16.0780   -2.5360   56.3340 C.3   260  ILE260      0.0252
    103  CG1       17.3440   -3.1090   55.7160 C.3   260  ILE260      0.0019
    104  CG2       14.8310   -3.2630   55.9460 C.3   260  ILE260      0.0019
    105  CD1       17.6400   -4.5120   56.1270 C.3   260  ILE260      0.0001
    106  N         10.6870   -0.6960   57.5560 N.3   262  ARG262     -0.1231
    107  CA         9.6450   -1.6790   57.5870 C.3   262  ARG262      0.1694
    108  C          8.5680   -1.1190   58.4980 C.2   262  ARG262      0.2592
    109  O          8.7970   -0.1950   59.3190 O.2   262  ARG262     -0.2718
    110  CB        10.0530   -2.9950   58.2560 C.3   262  ARG262      0.0321
    111  CG        11.1520   -3.7450   57.6140 C.3   262  ARG262      0.0489
    112  CD        11.4840   -5.0360   58.4220 C.3   262  ARG262      0.2205
    113  NE        11.3290   -4.9320   59.8960 N.pl3 262  ARG262     -0.0865
    114  CZ        11.9620   -5.7590   60.7570 C.cat 262  ARG262      0.5346
    115  NH1       12.7870   -6.7220   60.2980 N.pl3 262  ARG262      0.1354
    116  NH2       11.7730   -5.6520   62.0640 N.pl3 262  ARG262      0.1354
    117  N          7.3790   -1.6560   58.3380 N.am  263  ARG263     -0.1966
    118  CA         6.2950   -1.3260   59.2850 C.3   263  ARG263      0.1729
    119  C          6.1690   -2.5910   60.1740 C.2   263  ARG263      0.2616
    120  O          5.8140   -3.6240   59.6680 O.2   263  ARG263     -0.2715
    121  CB         4.9150   -1.0850   58.6240 C.3   263  ARG263      0.0348
    122  CG         3.9160   -0.6450   59.6430 C.3   263  ARG263      0.0492
    123  CD         2.5580   -0.3260   59.1310 C.3   263  ARG263      0.2205
    124  NE         2.6020    0.6700   58.1010 N.pl3 263  ARG263     -0.0865
    125  CZ         2.5340    1.9500   58.3510 C.cat 263  ARG263      0.5346
    126  NH1        2.4270    2.3810   59.5360 N.pl3 263  ARG263      0.1354
    127  NH2        2.5540    2.7890   57.2890 N.pl3 263  ARG263      0.1354
    128  N          6.4440   -2.4340   61.4650 N.am  264  ASP264     -0.1957
    129  CA         6.3180   -3.5810   62.3650 C.3   264  ASP264      0.1840
    130  C          4.9430   -4.1620   62.3210 C.2   264  ASP264      0.2623
    131  O          3.9350   -3.4460   62.4050 O.2   264  ASP264     -0.2715
    132  CB         6.6940   -3.1800   63.7840 C.3   264  ASP264      0.1450
    133  CG         6.8420   -4.4060   64.6510 C.2   264  ASP264      0.3671
    134  OD1        7.9400   -4.9870   64.5780 O.co2 264  ASP264     -0.2456
    135  OD2        5.8970   -4.7830   65.2730 O.co2 264  ASP264     -0.2456
    136  N          4.8690   -5.4700   62.0660 N.am  265  SER265     -0.1936
    137  CA         3.5520   -6.0100   61.8250 C.3   265  SER265      0.2055
    138  C          2.7810   -6.2210   63.1140 C.2   265  SER265      0.2642
    139  O          1.5880   -6.4800   63.0150 O.2   265  SER265     -0.2714
    140  CB         3.6720   -7.3230   61.0430 C.3   265  SER265      0.2130
    141  OG         4.4300   -8.2650   61.7340 O.3   265  SER265     -0.2179
    142  N          3.4750   -6.2040   64.2300 N.am  266  VAL266     -0.1977
    143  CA         2.8030   -6.3680   65.5580 C.3   266  VAL266      0.1596
    144  C          2.2900   -5.0600   66.0990 C.2   266  VAL266      0.2287
    145  O          1.1250   -4.9460   66.4770 O.2   266  VAL266     -0.2864
    146  CB         3.7300   -7.1170   66.5270 C.3   266  VAL266      0.0276
    147  CG1        3.0680   -7.2140   67.8900 C.3   266  VAL266      0.0022
    148  CG2        4.1600   -8.4510   65.9110 C.3   266  VAL266      0.0022
@<TRIPOS>BOND
     1     1     2    1
     2     2     3    1
     3     2     5    1
     4     3     4    2
     5     8     7   ar
     6     5     6    1
     7     7     6    1
     8     7     9   ar
     9    11    10    1
    10    11    12    1
    11    11    14    1
    12    15    14    1
    13    15    16    1
    14    18    16   ar
    15    12    13    2
    16    16    17   ar
    17    25    24   ar
    18    32    33    1
    19    32    31    1
    20    24    26   ar
    21    24    23    1
    22    33    34    2
    23    31    29   am
    24    20    23    1
    25    20    21    1
    26    20    19    1
    27    30    29    2
    28    29    28    1
    29    21    22    2
    30    28    27    1
    31    66    65    2
    32    59    56    1
    33    65    67   am
    34    65    64    1
    35    49    48    1
    36    46    45    2
    37    56    55    1
    38    56    57    1
    39    60    61    1
    40    60    57   am
    41    41    40    1
    42    47    48    1
    43    47    44    1
    44    48    50    1
    45    61    64    1
    46    61    62    1
    47    55    53   am
    48    57    58    2
    49    43    44    1
    50    43    37   am
    51    54    53    2
    52    45    44    1
    53    45    51   am
    54    53    52    1
    55    36    35    1
    56    36    37    1
    57    36    39    1
    58    40    39    1
    59    40    42    1
    60    62    63    2
    61    37    38    2
    62    52    51    1
    63    97    94    1
    64    94    95    1
    65    94    93    1
    66    79    78    2
    67    83    81    1
    68    95    96    2
    69    93    86   am
    70    80    81    1
    71    80    82    1
    72    80    77    1
    73    76    77    1
    74    76    70   am
    75    73    72    1
    76    73    75    1
    77    69    68    1
    78    69    72    1
    79    69    70    1
    80    87    86    2
    81    74    72    1
    82    78    77    1
    83    78    84   am
    84    86    85    1
    85    70    71    2
    86    85    84    1
    87    85    88    1
    88    88    89    1
    89    89    90    1
    90    90    92   ar
    91    90    91   ar
    92   103   105    1
    93   103   102    1
    94   104   102    1
    95    99   102    1
    96    99    98    1
    97    99   100    1
    98   100   101    2
    99   127   125    1
   100   106   107    1
   101   107   110    1
   102   107   108    1
   103   111   110    1
   104   111   112    1
   105   124   125    2
   106   124   123    1
   107   117   108   am
   108   117   118    1
   109   125   126    1
   110   112   113    1
   111   108   109    2
   112   121   118    1
   113   121   122    1
   114   123   122    1
   115   118   119    1
   116   120   119    2
   117   113   114    2
   118   119   128   am
   119   115   114    1
   120   114   116    1
   121   140   141    1
   122   140   137    1
   123   128   129    1
   124   137   136    1
   125   137   138    1
   126   136   130   am
   127   130   129    1
   128   130   131    2
   129   129   132    1
   130   139   138    2
   131   138   142   am
   132   132   133    1
   133   142   143    1
   134   134   133   ar
   135   133   135   ar
   136   143   144    1
   137   143   146    1
   138   148   146    1
   139   144   145    2
   140   146   147    1
