@<TRIPOS>MOLECULE
tmp/5e3tA00.pdb
 176 161 0 0 0
SMALL
GASTEIGER

@<TRIPOS>ATOM
      1  N         14.4820  107.5010   34.4770 N.3    94  LEU94      -0.1245
      2  CA        13.7760  108.7280   34.2170 C.3    94  LEU94       0.1561
      3  C         12.2410  108.5670   34.2760 C.2    94  LEU94       0.2260
      4  O         11.6670  107.6260   33.6940 O.2    94  LEU94      -0.2867
      5  CB        14.2210  109.2510   32.8450 C.3    94  LEU94       0.0270
      6  CG        14.8460  110.6320   32.7830 C.3    94  LEU94       0.0019
      7  CD1       14.9090  111.0650   31.3220 C.3    94  LEU94       0.0001
      8  CD2       14.0540  111.6230   33.6350 C.3    94  LEU94       0.0001
      9  N          8.6220  109.8050   33.1290 N.3    96  ASN96      -0.1240
     10  CA         7.9530  110.5040   32.0130 C.3    96  ASN96       0.1653
     11  C          6.7990  109.6730   31.4090 C.2    96  ASN96       0.2266
     12  O          6.7520  109.3890   30.2010 O.2    96  ASN96      -0.2867
     13  CB         8.9690  110.8930   30.9310 C.3    96  ASN96       0.1155
     14  CG         8.4180  111.9400   29.9770 C.2    96  ASN96       0.2627
     15  OD1        7.2290  112.2510   29.9610 O.2    96  ASN96      -0.2716
     16  ND2        9.3100  112.5010   29.1580 N.am   96  ASN96      -0.0877
     17  N          3.1690  104.1860   30.1230 N.3    97  GLY97      -0.1210
     18  CA         3.7310  103.3370   29.0830 C.3    97  GLY97       0.1956
     19  C          4.7490  104.0810   28.2430 C.2    97  GLY97       0.2612
     20  O          4.3770  104.9930   27.4940 O.2    97  GLY97      -0.2717
     21  N          6.0200  103.6730   28.3820 N.am   98  SER98      -0.1952
     22  CA         7.2170  104.2500   27.7090 C.3    98  SER98       0.1924
     23  C          8.2230  104.6110   28.8070 C.2    98  SER98       0.2314
     24  O          8.0470  105.6330   29.4780 O.2    98  SER98      -0.2863
     25  CB         6.9130  105.4820   26.8290 C.3    98  SER98       0.2116
     26  OG         6.6520  106.7090   27.5040 O.3    98  SER98      -0.2180
     27  N         11.9910  105.7280   29.7940 N.3   100  PHE100     -0.1241
     28  CA        13.1660  106.4300   29.2750 C.3   100  PHE100      0.1605
     29  C         14.4190  106.2950   30.1750 C.2   100  PHE100      0.2264
     30  O         14.3400  106.5170   31.3690 O.2   100  PHE100     -0.2867
     31  CB        12.8580  107.9260   29.1830 C.3   100  PHE100      0.0534
     32  CG        11.7540  108.3020   28.2180 C.ar  100  PHE100     -0.0203
     33  CD1       10.4220  108.2530   28.6020 C.ar  100  PHE100     -0.0042
     34  CD2       12.0570  108.8100   26.9570 C.ar  100  PHE100     -0.0042
     35  CE1        9.4070  108.6500   27.7260 C.ar  100  PHE100     -0.0003
     36  CE2       11.0590  109.2080   26.0840 C.ar  100  PHE100     -0.0003
     37  CZ         9.7290  109.1270   26.4630 C.ar  100  PHE100     -0.0000
     38  N         19.4660  109.3530   24.6330 N.3   109  ILE109     -0.1245
     39  CA        18.2700  108.7980   25.2550 C.3   109  ILE109      0.1561
     40  C         17.9920  107.3800   24.7910 C.2   109  ILE109      0.2260
     41  O         18.3080  107.0030   23.6610 O.2   109  ILE109     -0.2867
     42  CB        16.9910  109.5830   24.9720 C.3   109  ILE109      0.0252
     43  CG1       17.2690  111.0570   24.8440 C.3   109  ILE109      0.0019
     44  CG2       16.0060  109.3840   26.1170 C.3   109  ILE109      0.0019
     45  CD1       16.0310  111.9070   25.0460 C.3   109  ILE109      0.0001
     46  N         14.5300  104.9230   24.6980 N.3   111  LYS111     -0.1245
     47  CA        13.1240  104.6430   24.9120 C.3   111  LYS111      0.1561
     48  C         12.9650  103.1710   24.7930 C.2   111  LYS111      0.2260
     49  O         13.8450  102.4630   24.2950 O.2   111  LYS111     -0.2867
     50  CB        12.2500  105.2940   23.8500 C.3   111  LYS111      0.0271
     51  CG        11.2640  106.3310   24.3730 C.3   111  LYS111      0.0035
     52  CD         9.7970  105.9370   24.1620 C.3   111  LYS111      0.0206
     53  CE         9.2090  106.3670   22.8040 C.3   111  LYS111      0.1093
     54  NZ         8.3900  107.6180   22.8410 N.3   111  LYS111     -0.1314
     55  N         18.8730  106.9950   20.8680 N.3   161  MET161     -0.1230
     56  CA        18.7150  108.1640   20.0210 C.3   161  MET161      0.1702
     57  C         19.2700  109.4030   20.6940 C.2   161  MET161      0.2592
     58  O         19.7450  109.3270   21.8000 O.2   161  MET161     -0.2718
     59  CB        17.2340  108.3350   19.6350 C.3   161  MET161      0.0401
     60  CG        16.2750  108.3220   20.8160 C.3   161  MET161      0.0596
     61  SD        14.5420  108.0600   20.3570 S.3   161  MET161     -0.1393
     62  CE        13.9800  109.7410   19.9770 C.3   161  MET161      0.0692
     63  N         19.2300  110.5320   20.0020 N.am  162  ASN162     -0.1960
     64  CA        19.8390  111.7730   20.4880 C.3   162  ASN162      0.1819
     65  C         19.0440  112.4810   21.5730 C.2   162  ASN162      0.2621
     66  O         17.9490  112.9870   21.3050 O.2   162  ASN162     -0.2715
     67  CB        19.9730  112.7600   19.3340 C.3   162  ASN162      0.1195
     68  CG        18.7230  112.8070   18.4830 C.2   162  ASN162      0.2630
     69  OD1       18.0920  111.7630   18.2670 O.2   162  ASN162     -0.2716
     70  ND2       18.3530  114.0000   17.9930 N.am  162  ASN162     -0.0877
     71  N         19.5870  112.5810   22.7820 N.am  163  ASN163     -0.1958
     72  CA        19.0100  113.5360   23.7060 C.3   163  ASN163      0.1819
     73  C         19.0690  114.9260   23.0580 C.2   163  ASN163      0.2621
     74  O         20.1040  115.3730   22.5780 O.2   163  ASN163     -0.2715
     75  CB        19.6970  113.5070   25.0660 C.3   163  ASN163      0.1195
     76  CG        19.2680  114.6620   25.9400 C.2   163  ASN163      0.2630
     77  OD1       20.0950  115.3530   26.5170 O.2   163  ASN163     -0.2716
     78  ND2       17.9730  114.9040   26.0090 N.am  163  ASN163     -0.0877
     79  N         17.9340  115.5880   23.0030 N.am  164  LEU164     -0.1963
     80  CA        17.8160  116.7970   22.2100 C.3   164  LEU164      0.1728
     81  C         18.2170  117.9900   23.0480 C.2   164  LEU164      0.2616
     82  O         18.4040  119.0990   22.5400 O.2   164  LEU164     -0.2715
     83  CB        16.3670  116.9490   21.7630 C.3   164  LEU164      0.0311
     84  CG        16.0360  117.2170   20.3030 C.3   164  LEU164      0.0022
     85  CD1       16.4730  116.0460   19.4530 C.3   164  LEU164      0.0001
     86  CD2       14.5350  117.3890   20.1850 C.3   164  LEU164      0.0001
     87  N         18.3440  117.7540   24.3460 N.am  165  LEU165     -0.1977
     88  CA        18.4130  118.8180   25.3180 C.3   165  LEU165      0.1596
     89  C         19.4460  118.4310   26.3480 C.2   165  LEU165      0.2287
     90  O         19.1030  118.0270   27.4660 O.2   165  LEU165     -0.2864
     91  CB        17.0470  118.9970   25.9660 C.3   165  LEU165      0.0297
     92  CG        15.9120  119.4400   25.0370 C.3   165  LEU165      0.0022
     93  CD1       14.6020  119.4730   25.8060 C.3   165  LEU165      0.0001
     94  CD2       16.1760  120.7950   24.3700 C.3   165  LEU165      0.0001
     95  N          6.8210  120.8160   25.0960 N.3   176  ASP176     -0.1239
     96  CA         6.4990  119.7050   24.1840 C.3   176  ASP176      0.1674
     97  C          5.2330  120.1200   23.4720 C.2   176  ASP176      0.2266
     98  O          4.2100  120.2910   24.0990 O.2   176  ASP176     -0.2867
     99  CB         6.3040  118.3830   24.9610 C.3   176  ASP176      0.1410
    100  CG         5.6660  117.2600   24.1110 C.2   176  ASP176      0.3668
    101  OD1        4.8110  117.5840   23.2350 O.co2 176  ASP176     -0.2456
    102  OD2        6.0060  116.0540   24.3430 O.co2 176  ASP176     -0.2456
    103  N          2.4180  120.3950   19.9120 N.3   178  LYS178     -0.1245
    104  CA         1.6690  119.5370   18.9730 C.3   178  LYS178      0.1561
    105  C          0.7700  120.2480   18.0060 C.2   178  LYS178      0.2260
    106  O          0.2820  119.6100   17.0850 O.2   178  LYS178     -0.2867
    107  CB         0.7890  118.5220   19.7250 C.3   178  LYS178      0.0271
    108  CG         1.5470  117.3130   20.2640 C.3   178  LYS178      0.0035
    109  CD         0.6330  116.1830   20.7340 C.3   178  LYS178      0.0206
    110  CE         1.4450  115.0660   21.3850 C.3   178  LYS178      0.1093
    111  NZ         0.6790  113.8230   21.7080 N.3   178  LYS178     -0.1314
    112  N         -3.5230  119.7970   26.9050 N.3   184  ARG184     -0.1245
    113  CA        -2.2380  120.3360   26.4980 C.3   184  ARG184      0.1563
    114  C         -1.8280  121.4760   27.4630 C.2   184  ARG184      0.2260
    115  O         -1.4650  122.6000   27.0510 O.2   184  ARG184     -0.2867
    116  CB        -2.2860  120.7490   25.0120 C.3   184  ARG184      0.0307
    117  CG        -1.0690  120.2940   24.2020 C.3   184  ARG184      0.0489
    118  CD        -1.2030  118.9070   23.5540 C.3   184  ARG184      0.2205
    119  NE        -0.1380  117.9480   23.9100 N.pl3 184  ARG184     -0.0865
    120  CZ         1.1760  118.1470   23.7750 C.cat 184  ARG184      0.5346
    121  NH1        1.6710  119.2990   23.3160 N.pl3 184  ARG184      0.1354
    122  NH2        2.0150  117.1830   24.1290 N.pl3 184  ARG184      0.1354
    123  N          8.5340  120.5790   31.7030 N.3   197  THR197     -0.1218
    124  CA         8.1200  120.3370   30.3190 C.3   197  THR197      0.1862
    125  C          6.6660  120.7540   30.1060 C.2   197  THR197      0.2287
    126  O          5.7220  119.9780   30.3700 O.2   197  THR197     -0.2866
    127  CB         8.2970  118.8620   29.9200 C.3   197  THR197      0.1770
    128  OG1        9.6390  118.4490   30.2150 O.3   197  THR197     -0.2211
    129  CG2        8.0230  118.6820   28.4400 C.3   197  THR197      0.0375
    130  N          0.5100  111.8270   16.5560 N.3   239  ASP239     -0.1239
    131  CA         0.9170  112.1720   17.9350 C.3   239  ASP239      0.1674
    132  C          2.3400  112.7860   18.0990 C.2   239  ASP239      0.2266
    133  O          2.8210  112.9770   19.2210 O.2   239  ASP239     -0.2867
    134  CB         0.6240  110.9500   18.8580 C.3   239  ASP239      0.1410
    135  CG         1.8380  110.4760   19.6730 C.2   239  ASP239      0.3668
    136  OD1        2.1140  111.0700   20.7500 O.co2 239  ASP239     -0.2456
    137  OD2        2.4780  109.4750   19.2540 O.co2 239  ASP239     -0.2456
    138  N          5.4660  115.3300   18.4370 N.3   241  SER241     -0.1217
    139  CA         5.5560  116.6010   19.1130 C.3   241  SER241      0.1889
    140  C          6.8310  117.2880   18.7110 C.2   241  SER241      0.2288
    141  O          7.8490  116.6300   18.5400 O.2   241  SER241     -0.2866
    142  CB         5.5320  116.3640   20.6160 C.3   241  SER241      0.2089
    143  OG         4.7990  115.1840   20.9100 O.3   241  SER241     -0.2183
    144  N          9.6200  119.1270   20.2490 N.3   243  LEU243     -0.1245
    145  CA        10.1910  119.4020   21.5440 C.3   243  LEU243      0.1561
    146  C         11.0800  120.6180   21.4120 C.2   243  LEU243      0.2260
    147  O         12.0710  120.5720   20.6820 O.2   243  LEU243     -0.2867
    148  CB        11.0210  118.2170   22.0150 C.3   243  LEU243      0.0270
    149  CG        11.6520  118.3770   23.3860 C.3   243  LEU243      0.0019
    150  CD1       10.5700  118.7940   24.3670 C.3   243  LEU243      0.0001
    151  CD2       12.3460  117.0940   23.8330 C.3   243  LEU243      0.0001
    152  N          9.6190  114.5220   17.8110 N.3   271  ILE271     -0.1231
    153  CA         9.6730  113.2490   18.5290 C.3   271  ILE271      0.1692
    154  C          8.4050  112.4090   18.4550 C.2   271  ILE271      0.2592
    155  O          7.3700  112.8350   17.9300 O.2   271  ILE271     -0.2718
    156  CB         9.9620  113.4870   20.0030 C.3   271  ILE271      0.0266
    157  CG1        9.1010  114.6260   20.5470 C.3   271  ILE271      0.0019
    158  CG2       11.4100  113.8520   20.1850 C.3   271  ILE271      0.0020
    159  CD1        8.9810  114.6090   22.0670 C.3   271  ILE271      0.0001
    160  N          8.5010  111.1980   18.9940 N.am  272  ASP272     -0.1974
    161  CA         7.3360  110.3310   19.1440 C.3   272  ASP272      0.1709
    162  C          6.6970  110.1090   17.7840 C.2   272  ASP272      0.2293
    163  O          5.6280  110.6200   17.4660 O.2   272  ASP272     -0.2864
    164  CB         6.3490  110.9530   20.1330 C.3   272  ASP272      0.1436
    165  CG         5.7010  109.9310   21.0230 C.2   272  ASP272      0.3671
    166  OD1        6.0860  108.7410   20.9450 O.co2 272  ASP272     -0.2456
    167  OD2        4.8020  110.3210   21.8070 O.co2 272  ASP272     -0.2456
    168  N          4.0620  105.7820   16.2760 N.3   275  GLN275     -0.1245
    169  CA         2.6490  105.4360   16.2210 C.3   275  GLN275      0.1566
    170  C          2.1030  105.9170   14.8800 C.2   275  GLN275      0.2260
    171  O          1.9280  107.1260   14.6850 O.2   275  GLN275     -0.2867
    172  CB         1.8520  106.0480   17.4040 C.3   275  GLN275      0.0367
    173  CG         2.1160  105.3440   18.7360 C.3   275  GLN275      0.0905
    174  CD         1.4410  106.1600   19.8240 C.2   275  GLN275      0.2608
    175  OE1        0.2100  106.2720   19.9040 O.2   275  GLN275     -0.2717
    176  NE2        2.2890  106.6970   20.6930 N.am  275  GLN275     -0.0878
@<TRIPOS>BOND
     1   171   170    2
     2   170   169    1
     3   169   168    1
     4   169   172    1
     5   130   131    1
     6   106   105    2
     7   172   173    1
     8   163   162    2
     9   162   161    1
    10   152   153    1
    11   155   154    2
    12   131   132    1
    13   131   134    1
    14    70    68   am
    15   105   104    1
    16   132   133    2
    17    69    68    2
    18   138   139    1
    19   154   153    1
    20   154   160   am
    21    68    67    1
    22   153   156    1
    23   141   140    2
    24   140   139    1
    25   173   174    1
    26   134   135    1
    27   104   107    1
    28   104   103    1
    29   160   161    1
    30   139   142    1
    31   161   164    1
    32   137   135   ar
    33    67    64    1
    34    85    84    1
    35    59    56    1
    36    59    60    1
    37   135   136   ar
    38   107   108    1
    39   174   175    2
    40   174   176   am
    41    62    61    1
    42    63    64    1
    43    63    57   am
    44   156   158    1
    45   156   157    1
    46    56    57    1
    47    56    55    1
    48   164   165    1
    49    86    84    1
    50   144   145    1
    51   108   109    1
    52    84    83    1
    53    61    60    1
    54    64    65    1
    55   157   159    1
    56   142   143    1
    57   147   146    2
    58    57    58    2
    59   109   110    1
    60   166   165   ar
    61   165   167   ar
    62    66    65    2
    63   110   111    1
    64   146   145    1
    65   145   148    1
    66    65    71   am
    67    83    80    1
    68   148   149    1
    69    80    79    1
    70    80    81    1
    71    82    81    2
    72    74    73    2
    73    71    72    1
    74    53    54    1
    75    53    52    1
    76    79    73   am
    77    81    87   am
    78    73    72    1
    79   101   100   ar
    80   121   120    1
    81   149   151    1
    82   149   150    1
    83    97    98    2
    84    97    96    1
    85   118   119    1
    86   118   117    1
    87    41    40    2
    88    72    75    1
    89   120   119    2
    90   120   122    1
    91    50    51    1
    92    50    47    1
    93   100   102   ar
    94   100    99    1
    95    52    51    1
    96    96    99    1
    97    96    95    1
    98   117   116    1
    99    49    48    2
   100    87    88    1
   101    94    92    1
   102    38    39    1
   103    46    47    1
   104    40    39    1
   105    48    47    1
   106    43    42    1
   107    43    45    1
   108    42    39    1
   109    42    44    1
   110   116   113    1
   111    92    93    1
   112    92    91    1
   113    75    76    1
   114    88    91    1
   115    88    89    1
   116    76    78   am
   117    76    77    2
   118    36    37   ar
   119    36    34   ar
   120    89    90    2
   121    37    35   ar
   122   113   112    1
   123   113   114    1
   124    25    26    1
   125    25    22    1
   126    34    32   ar
   127   115   114    2
   128    20    19    2
   129    22    21    1
   130    22    23    1
   131    35    33   ar
   132    32    33   ar
   133    32    31    1
   134    19    21   am
   135    19    18    1
   136   129   127    1
   137    23    24    2
   138    18    17    1
   139    16    14   am
   140    31    28    1
   141    28    27    1
   142    28    29    1
   143   127   128    1
   144   127   124    1
   145    15    14    2
   146    14    13    1
   147   125   124    1
   148   125   126    2
   149    29    30    2
   150    12    11    2
   151   124   123    1
   152    13    10    1
   153     7     6    1
   154    11    10    1
   155    10     9    1
   156     6     5    1
   157     6     8    1
   158     5     2    1
   159     4     3    2
   160     2     3    1
   161     2     1    1
