@<TRIPOS>MOLECULE
tmp/5e44A00.pdb
 89 83 0 0 0
SMALL
GASTEIGER

@<TRIPOS>ATOM
      1  N        -31.2210   -6.5810  -34.5560 N.3    73  ALA73      -0.1245
      2  CA       -30.1070   -5.8790  -33.8830 C.3    73  ALA73       0.1562
      3  C        -28.8330   -6.7170  -33.7030 C.2    73  ALA73       0.2260
      4  O        -28.8850   -7.9590  -33.6230 O.2    73  ALA73      -0.2867
      5  CB       -30.5500   -5.3580  -32.5140 C.3    73  ALA73       0.0290
      6  N        -32.6790    3.5640  -29.7610 N.3   135  GLY135     -0.1210
      7  CA       -31.9670    2.9340  -30.8410 C.3   135  GLY135      0.1956
      8  C        -32.9310    2.4110  -31.8870 C.2   135  GLY135      0.2611
      9  O        -32.7280    2.5930  -33.1150 O.2   135  GLY135     -0.2717
     10  N        -33.9950    1.7690  -31.4130 N.am  136  ASP136     -0.1973
     11  CA       -34.9180    1.1370  -32.3200 C.3   136  ASP136      0.1709
     12  C        -35.6210    2.2010  -33.1570 C.2   136  ASP136      0.2293
     13  O        -35.8890    1.9970  -34.3590 O.2   136  ASP136     -0.2864
     14  CB       -35.9110    0.2640  -31.5520 C.3   136  ASP136      0.1436
     15  CG       -35.2890   -0.9990  -31.0770 C.2   136  ASP136      0.3671
     16  OD1      -34.3130   -1.4200  -31.7330 O.co2 136  ASP136     -0.2456
     17  OD2      -35.7580   -1.5600  -30.0630 O.co2 136  ASP136     -0.2456
     18  N        -34.2690    5.1020  -34.0950 N.3   138  GLU138     -0.1231
     19  CA       -33.2740    5.4120  -35.1100 C.3   138  GLU138      0.1699
     20  C        -33.2980    4.3500  -36.2370 C.2   138  GLU138      0.2592
     21  O        -33.2330    4.6930  -37.4340 O.2   138  GLU138     -0.2718
     22  CB       -31.8820    5.5270  -34.4660 C.3   138  GLU138      0.0402
     23  CG       -31.7420    6.7160  -33.5140 C.3   138  GLU138      0.1161
     24  CD       -30.4680    6.6750  -32.6790 C.2   138  GLU138      0.3649
     25  OE1      -29.4390    6.1230  -33.1400 O.co2 138  GLU138     -0.2457
     26  OE2      -30.5020    7.1950  -31.5480 O.co2 138  GLU138     -0.2457
     27  N        -33.4240    3.0730  -35.8690 N.am  139  MET139     -0.1979
     28  CA       -33.4630    2.0550  -36.9000 C.3   139  MET139      0.1605
     29  C        -34.6560    2.3220  -37.8040 C.2   139  MET139      0.2287
     30  O        -34.5370    2.2720  -39.0310 O.2   139  MET139     -0.2864
     31  CB       -33.5260    0.6530  -36.3030 C.3   139  MET139      0.0413
     32  CG       -33.2300   -0.4830  -37.3130 C.3   139  MET139      0.0598
     33  SD       -31.6620   -0.2990  -38.2260 S.3   139  MET139     -0.1393
     34  CE       -31.7440   -1.6620  -39.3550 C.3   139  MET139      0.0692
     35  N        -33.9210    4.9930  -40.2180 N.3   142  LEU142     -0.1245
     36  CA       -32.9910    4.4060  -41.2090 C.3   142  LEU142      0.1561
     37  C        -33.7420    3.6480  -42.3000 C.2   142  LEU142      0.2260
     38  O        -33.5020    3.8620  -43.4850 O.2   142  LEU142     -0.2867
     39  CB       -31.9760    3.4700  -40.5540 C.3   142  LEU142      0.0270
     40  CG       -30.9530    2.8560  -41.5270 C.3   142  LEU142      0.0019
     41  CD1      -29.6150    2.6950  -40.8290 C.3   142  LEU142      0.0001
     42  CD2      -31.3480    1.5010  -42.1740 C.3   142  LEU142      0.0001
     43  N        -24.4030    5.0430  -42.0970 N.3   154  ALA154     -0.1231
     44  CA       -25.0150    5.0760  -40.7730 C.3   154  ALA154      0.1694
     45  C        -24.6080    3.8850  -39.9380 C.2   154  ALA154      0.2592
     46  O        -24.1660    4.0370  -38.7850 O.2   154  ALA154     -0.2718
     47  CB       -26.5120    5.1270  -40.8810 C.3   154  ALA154      0.0304
     48  N        -24.7730    2.6970  -40.5210 N.am  155  PHE155     -0.1976
     49  CA       -24.4810    1.4550  -39.8280 C.3   155  PHE155      0.1639
     50  C        -23.0010    1.4720  -39.4050 C.2   155  PHE155      0.2290
     51  O        -22.6620    1.1620  -38.2600 O.2   155  PHE155     -0.2864
     52  CB       -24.8330    0.2430  -40.7310 C.3   155  PHE155      0.0560
     53  CG       -24.3230   -1.0870  -40.2140 C.ar  155  PHE155     -0.0200
     54  CD1      -25.0520   -1.8130  -39.2770 C.ar  155  PHE155     -0.0042
     55  CD2      -23.1200   -1.6170  -40.6790 C.ar  155  PHE155     -0.0042
     56  CE1      -24.5730   -3.0580  -38.7840 C.ar  155  PHE155     -0.0003
     57  CE2      -22.6500   -2.8510  -40.2010 C.ar  155  PHE155     -0.0003
     58  CZ       -23.3800   -3.5670  -39.2400 C.ar  155  PHE155     -0.0000
     59  N        -22.2410    3.8980  -36.6800 N.3   158  ASN158     -0.1240
     60  CA       -22.7690    3.4220  -35.4260 C.3   158  ASN158      0.1653
     61  C        -21.7780    2.4980  -34.7490 C.2   158  ASN158      0.2266
     62  O        -21.3790    2.7870  -33.6330 O.2   158  ASN158     -0.2867
     63  CB       -24.0940    2.7350  -35.6310 C.3   158  ASN158      0.1155
     64  CG       -24.6350    2.1810  -34.3560 C.2   158  ASN158      0.2627
     65  OD1      -24.7680    0.9620  -34.2050 O.2   158  ASN158     -0.2716
     66  ND2      -24.9370    3.0640  -33.4120 N.am  158  ASN158     -0.0877
     67  N        -19.6640    2.9530  -31.1980 N.3   162  ARG162     -0.1245
     68  CA       -19.8590    2.0180  -30.1050 C.3   162  ARG162      0.1563
     69  C        -18.5510    1.3610  -29.6870 C.2   162  ARG162      0.2260
     70  O        -18.3910    1.0250  -28.5200 O.2   162  ARG162     -0.2867
     71  CB       -20.8860    0.9550  -30.4860 C.3   162  ARG162      0.0307
     72  CG       -22.1890    1.5430  -30.8950 C.3   162  ARG162      0.0489
     73  CD       -23.3270    0.6410  -30.5010 C.3   162  ARG162      0.2205
     74  NE       -23.7410   -0.2900  -31.5490 N.pl3 162  ARG162     -0.0865
     75  CZ       -24.3720   -1.4220  -31.2850 C.cat 162  ARG162      0.5346
     76  NH1      -24.6450   -1.7280  -30.0300 N.pl3 162  ARG162      0.1354
     77  NH2      -24.7430   -2.2330  -32.2540 N.pl3 162  ARG162      0.1354
     78  N        -30.1600   -7.0990  -41.8940 N.3   185  TYR185     -0.1241
     79  CA       -30.4360   -5.9780  -40.9910 C.3   185  TYR185      0.1605
     80  C        -30.7900   -4.6740  -41.7220 C.2   185  TYR185      0.2264
     81  O        -31.7140   -3.9790  -41.3460 O.2   185  TYR185     -0.2867
     82  CB       -29.2130   -5.7650  -40.1020 C.3   185  TYR185      0.0534
     83  CG       -29.3610   -4.7470  -39.0040 C.ar  185  TYR185     -0.0201
     84  CD1      -30.3700   -4.8740  -38.0310 C.ar  185  TYR185     -0.0009
     85  CD2      -28.4720   -3.6780  -38.9040 C.ar  185  TYR185     -0.0009
     86  CE1      -30.5060   -3.9460  -37.0050 C.ar  185  TYR185      0.0417
     87  CE2      -28.6000   -2.7460  -37.8830 C.ar  185  TYR185      0.0417
     88  CZ       -29.6110   -2.8870  -36.9370 C.ar  185  TYR185      0.1957
     89  OH       -29.7180   -1.9770  -35.9260 O.3   185  TYR185     -0.2866
@<TRIPOS>BOND
     1    38    37    2
     2    37    36    1
     3    42    40    1
     4    43    44    1
     5    78    79    1
     6    80    81    2
     7    80    79    1
     8    40    41    1
     9    40    39    1
    10    36    39    1
    11    36    35    1
    12    79    82    1
    13    47    44    1
    14    44    45    1
    15    52    53    1
    16    52    49    1
    17    55    53   ar
    18    55    57   ar
    19    48    45   am
    20    48    49    1
    21    53    54   ar
    22    57    58   ar
    23    82    83    1
    24    45    46    2
    25    49    50    1
    26    50    51    2
    27    34    33    1
    28    54    56   ar
    29    58    56   ar
    30    30    29    2
    31    83    85   ar
    32    83    84   ar
    33    85    87   ar
    34    33    32    1
    35    84    86   ar
    36    87    88   ar
    37    29    28    1
    38    21    20    2
    39    32    31    1
    40    86    88   ar
    41    88    89    1
    42    28    31    1
    43    28    27    1
    44    59    60    1
    45    20    27   am
    46    20    19    1
    47    63    60    1
    48    63    64    1
    49    60    61    1
    50    19    22    1
    51    19    18    1
    52    61    62    2
    53     1     2    1
    54    22    23    1
    55    13    12    2
    56    64    65    2
    57    64    66   am
    58     2     3    1
    59     2     5    1
    60     3     4    2
    61    23    24    1
    62    12    11    1
    63    25    24   ar
    64     9     8    2
    65    24    26   ar
    66    11    14    1
    67    11    10    1
    68    77    75    1
    69     8    10   am
    70     8     7    1
    71    16    15   ar
    72    14    15    1
    73    74    75    2
    74    74    73    1
    75    75    76    1
    76    67    68    1
    77    15    17   ar
    78    72    73    1
    79    72    71    1
    80     7     6    1
    81    71    68    1
    82    68    69    1
    83    69    70    2
