@<TRIPOS>MOLECULE
tmp/5e4aA00.pdb
 70 62 0 0 0
SMALL
GASTEIGER

@<TRIPOS>ATOM
      1  N          3.4890  -11.0060    0.7430 N.3     4  MET4       -0.1301
      2  CA         2.1430  -10.4610    0.8260 C.3     4  MET4        0.1256
      3  C          1.6430  -10.2530   -0.6150 C.3     4  MET4        0.2010
      4  O          2.4780  -10.0690   -1.5860 O.3     4  MET4       -0.2188
      5  CB         2.1740   -9.0880    1.6480 C.3     4  MET4        0.0333
      6  CG         0.7890   -8.5230    1.9970 C.3     4  MET4        0.0592
      7  SD         0.1500   -7.2970    0.8320 S.3     4  MET4       -0.1393
      8  CE         1.0840   -5.8820    1.3790 C.3     4  MET4        0.0692
      9  N         -1.3050   -7.9290   -2.7510 N.3     6  LYS6       -0.1301
     10  CA        -2.2730   -6.8390   -2.6520 C.3     6  LYS6        0.1247
     11  C         -3.0190   -6.6980   -3.9860 C.3     6  LYS6        0.2009
     12  O         -2.2800   -6.6870   -5.0060 O.3     6  LYS6       -0.2188
     13  CB        -1.4420   -5.5560   -2.2930 C.3     6  LYS6        0.0218
     14  CG        -2.3220   -4.2880   -2.3060 C.3     6  LYS6        0.0031
     15  CD        -1.4880   -3.1090   -1.8280 C.3     6  LYS6        0.0205
     16  CE        -2.3300   -1.8420   -1.4450 C.3     6  LYS6        0.1093
     17  NZ        -3.5790   -2.2890   -0.7050 N.3     6  LYS6       -0.1314
     18  N         -5.9860   -4.5390   -6.2670 N.3     8  LEU8       -0.1245
     19  CA        -6.8070   -3.3620   -6.3810 C.3     8  LEU8        0.1561
     20  C         -7.7020   -3.4220   -7.6450 C.2     8  LEU8        0.2260
     21  O         -7.3130   -4.0770   -8.6510 O.2     8  LEU8       -0.2867
     22  CB        -5.9170   -2.0940   -6.5390 C.3     8  LEU8        0.0270
     23  CG        -5.1080   -1.7950   -5.2800 C.3     8  LEU8        0.0019
     24  CD1       -4.2650   -0.5930   -5.5210 C.3     8  LEU8        0.0001
     25  CD2       -5.9450   -1.3940   -4.0810 C.3     8  LEU8        0.0001
     26  N          6.3100   -7.9390   -1.7420 N.3    97  THR97      -0.1218
     27  CA         4.8990   -7.5400   -1.8890 C.3    97  THR97       0.1862
     28  C          4.5720   -7.6430   -3.3640 C.2    97  THR97       0.2287
     29  O          5.2630   -7.0240   -4.2010 O.2    97  THR97      -0.2866
     30  CB         4.6780   -6.1300   -1.4000 C.3    97  THR97       0.1770
     31  OG1        4.9560   -6.1150    0.0050 O.3    97  THR97      -0.2211
     32  CG2        3.1870   -5.7560   -1.5530 C.3    97  THR97       0.0375
     33  N          1.7980   -6.8730   -6.0280 N.3    99  ALA99      -0.1231
     34  CA         0.5570   -6.1400   -6.1950 C.3    99  ALA99       0.1694
     35  C         -0.0400   -6.4030   -7.5970 C.2    99  ALA99       0.2592
     36  O          0.7140   -6.6130   -8.5790 O.2    99  ALA99      -0.2718
     37  CB         0.8030   -4.6510   -6.0590 C.3    99  ALA99       0.0304
     38  N         -1.3290   -6.3600   -7.7100 N.am  100  ALA100     -0.1966
     39  CA        -1.9680   -6.4720   -9.0390 C.3   100  ALA100      0.1728
     40  C         -3.0440   -5.4360   -9.0800 C.2   100  ALA100      0.2616
     41  O         -3.8220   -5.2950   -8.1190 O.2   100  ALA100     -0.2715
     42  CB        -2.5400   -7.9070   -9.3090 C.3   100  ALA100      0.0334
     43  N         -3.1500   -4.7100  -10.1960 N.am  101  LEU101     -0.1977
     44  CA        -4.2000   -3.6960  -10.4210 C.3   101  LEU101      0.1596
     45  C         -5.0810   -4.2180  -11.5580 C.2   101  LEU101      0.2287
     46  O         -4.5360   -4.5080  -12.6630 O.2   101  LEU101     -0.2864
     47  CB        -3.5140   -2.3830  -10.8350 C.3   101  LEU101      0.0297
     48  CG        -4.5170   -1.2690  -11.2200 C.3   101  LEU101      0.0022
     49  CD1       -5.3770   -0.8560   -9.9740 C.3   101  LEU101      0.0001
     50  CD2       -3.7060   -0.0750  -11.6880 C.3   101  LEU101      0.0001
     51  N         -2.0110   -4.9230  -14.3560 N.3   108  SER108     -0.1217
     52  CA        -0.5880   -4.7920  -14.1930 C.3   108  SER108      0.1889
     53  C         -0.2190   -5.5220  -12.9060 C.2   108  SER108      0.2288
     54  O         -0.9770   -5.4680  -11.8780 O.2   108  SER108     -0.2866
     55  CB        -0.1520   -3.3440  -14.0570 C.3   108  SER108      0.2089
     56  OG        -0.8790   -2.7960  -12.9530 O.3   108  SER108     -0.2183
     57  N          3.1230   -5.7970  -10.1360 N.3   110  THR110     -0.1218
     58  CA         4.2700   -5.0920   -9.6750 C.3   110  THR110      0.1862
     59  C          4.8650   -5.8640   -8.4350 C.2   110  THR110      0.2287
     60  O          4.1050   -6.5210   -7.7610 O.2   110  THR110     -0.2866
     61  CB         3.8440   -3.6570   -9.3050 C.3   110  THR110      0.1770
     62  OG1        3.4280   -2.9200  -10.4490 O.3   110  THR110     -0.2211
     63  CG2        4.9520   -2.7910   -8.6830 C.3   110  THR110      0.0375
     64  N          7.3760   -5.1450   -4.9710 N.3   112  VAL112     -0.1245
     65  CA         8.2930   -4.3300   -4.1740 C.3   112  VAL112      0.1561
     66  C          9.0300   -5.3480   -3.3000 C.2   112  VAL112      0.2260
     67  O          8.4310   -6.1940   -2.6040 O.2   112  VAL112     -0.2867
     68  CB         7.4990   -3.3050   -3.2400 C.3   112  VAL112      0.0252
     69  CG1        8.5140   -2.7250   -2.2010 C.3   112  VAL112      0.0019
     70  CG2        7.0130   -2.2400   -4.1570 C.3   112  VAL112      0.0019
@<TRIPOS>BOND
     1    51    52    1
     2    52    55    1
     3    52    53    1
     4    55    56    1
     5    53    54    2
     6    46    45    2
     7    50    48    1
     8    45    44    1
     9    48    47    1
    10    48    49    1
    11    47    44    1
    12    62    61    1
    13    44    43    1
    14    43    40   am
    15    57    58    1
    16    58    61    1
    17    58    59    1
    18    42    39    1
    19    61    63    1
    20    40    39    1
    21    40    41    2
    22    39    38    1
    23    21    20    2
    24    36    35    2
    25    59    60    2
    26    38    35   am
    27    20    19    1
    28    35    34    1
    29    22    19    1
    30    22    23    1
    31    19    18    1
    32    34    37    1
    33    34    33    1
    34    24    23    1
    35    23    25    1
    36    12    11    1
    37    64    65    1
    38    29    28    2
    39    65    66    1
    40    65    68    1
    41    70    68    1
    42    11    10    1
    43    28    27    1
    44    66    67    2
    45    68    69    1
    46     9    10    1
    47    10    13    1
    48    14    13    1
    49    14    15    1
    50    27    26    1
    51    27    30    1
    52    15    16    1
    53     4     3    1
    54    32    30    1
    55    16    17    1
    56    30    31    1
    57     3     2    1
    58     1     2    1
    59     2     5    1
    60     7     8    1
    61     7     6    1
    62     5     6    1
