@<TRIPOS>MOLECULE
tmp/5e4bA00.pdb
 157 153 0 0 0
SMALL
GASTEIGER

@<TRIPOS>ATOM
      1  N         81.5610   23.6890  239.7400 N.3    36  VAL36      -0.1245
      2  CA        82.9880   23.7440  239.9960 C.3    36  VAL36       0.1561
      3  C         83.7540   23.4910  238.6870 C.2    36  VAL36       0.2260
      4  O         84.9440   23.8060  238.5910 O.2    36  VAL36      -0.2867
      5  CB        83.3920   22.7420  241.1140 C.3    36  VAL36       0.0252
      6  CG1       83.1110   21.3100  240.7080 C.3    36  VAL36       0.0019
      7  CG2       84.8680   22.9130  241.5250 C.3    36  VAL36       0.0019
      8  N         85.2240   26.5770  237.5500 N.3    39  TRP39      -0.1227
      9  CA        86.3260   27.0660  238.3690 C.3    39  TRP39       0.1737
     10  C         87.5780   26.2290  238.0740 C.2    39  TRP39       0.2595
     11  O         88.4860   26.6980  237.3920 O.2    39  TRP39      -0.2718
     12  CB        85.9460   27.0280  239.8550 C.3    39  TRP39       0.0564
     13  CG        87.0960   27.3070  240.7950 C.ar   39  TRP39       0.0003
     14  CD1       88.3250   27.8330  240.4810 C.ar   39  TRP39       0.0946
     15  CD2       87.1180   27.0480  242.2020 C.ar   39  TRP39       0.0152
     16  NE1       89.1040   27.9130  241.6110 N.ar   39  TRP39      -0.2442
     17  CE2       88.3850   27.4400  242.6810 C.ar   39  TRP39       0.0810
     18  CE3       86.1860   26.5180  243.1050 C.ar   39  TRP39       0.0012
     19  CZ2       88.7430   27.3230  244.0280 C.ar   39  TRP39       0.0191
     20  CZ3       86.5390   26.3980  244.4350 C.ar   39  TRP39       0.0001
     21  CH2       87.8090   26.7990  244.8870 C.ar   39  TRP39       0.0015
     22  N         87.6230   24.9940  238.5710 N.am   40  VAL40      -0.1980
     23  CA        88.8300   24.1710  238.4550 C.3    40  VAL40       0.1595
     24  C         88.7810   23.4140  237.1290 C.2    40  VAL40       0.2287
     25  O         88.8080   22.1820  237.0830 O.2    40  VAL40      -0.2864
     26  CB        88.9600   23.2110  239.6560 C.3    40  VAL40       0.0276
     27  CG1       90.3600   22.6190  239.7220 C.3    40  VAL40       0.0022
     28  CG2       88.6510   23.9650  240.9590 C.3    40  VAL40       0.0022
     29  N         90.8990   20.4550  235.7420 N.3    43  VAL43      -0.1231
     30  CA        90.7420   19.1640  236.3810 C.3    43  VAL43       0.1692
     31  C         89.3390   18.6030  236.1640 C.2    43  VAL43       0.2591
     32  O         89.1580   17.4020  235.9480 O.2    43  VAL43      -0.2718
     33  CB        91.0200   19.2710  237.9050 C.3    43  VAL43       0.0266
     34  CG1       90.6720   17.9750  238.6330 C.3    43  VAL43       0.0020
     35  CG2       92.4770   19.6670  238.1390 C.3    43  VAL43       0.0020
     36  N         88.3540   19.4930  236.2300 N.am   44  VAL44      -0.1980
     37  CA        86.9500   19.1070  236.2280 C.3    44  VAL44       0.1595
     38  C         86.3160   19.3680  234.8710 C.2    44  VAL44       0.2287
     39  O         86.3060   20.4970  234.3780 O.2    44  VAL44      -0.2864
     40  CB        86.1730   19.8640  237.3140 C.3    44  VAL44       0.0276
     41  CG1       84.6950   19.4730  237.2750 C.3    44  VAL44       0.0022
     42  CG2       86.7850   19.5680  238.6810 C.3    44  VAL44       0.0022
     43  N         76.5790   17.7540  244.7420 N.3    61  ARG61      -0.1245
     44  CA        77.0530   17.9110  243.3770 C.3    61  ARG61       0.1563
     45  C         77.7350   16.6300  242.9180 C.2    61  ARG61       0.2260
     46  O         78.3060   15.8860  243.7240 O.2    61  ARG61      -0.2867
     47  CB        78.0160   19.0920  243.2650 C.3    61  ARG61       0.0307
     48  CG        79.3750   18.8600  243.9210 C.3    61  ARG61       0.0489
     49  CD        80.2690   20.0660  243.7920 C.3    61  ARG61       0.2205
     50  NE        81.4890   19.8500  244.5670 N.pl3  61  ARG61      -0.0865
     51  CZ        82.4140   20.7820  244.7810 C.cat  61  ARG61       0.5346
     52  NH1       82.2730   22.0010  244.2790 N.pl3  61  ARG61       0.1354
     53  NH2       83.4780   20.4920  245.5190 N.pl3  61  ARG61       0.1354
     54  N         80.5680   15.7290  240.0770 N.3    63  PHE63      -0.1241
     55  CA        81.4140   16.2570  239.0140 C.3    63  PHE63       0.1605
     56  C         82.3670   15.2130  238.4960 C.2    63  PHE63       0.2264
     57  O         82.6710   14.2340  239.1580 O.2    63  PHE63      -0.2867
     58  CB        82.1330   17.5630  239.4400 C.3    63  PHE63       0.0534
     59  CG        83.1710   17.4360  240.5300 C.ar   63  PHE63      -0.0203
     60  CD1       84.4700   17.0360  240.2530 C.ar   63  PHE63      -0.0042
     61  CD2       82.8650   17.8370  241.8210 C.ar   63  PHE63      -0.0042
     62  CE1       85.4310   16.9920  241.2620 C.ar   63  PHE63      -0.0003
     63  CE2       83.8160   17.7870  242.8280 C.ar   63  PHE63      -0.0003
     64  CZ        85.0970   17.3680  242.5500 C.ar   63  PHE63      -0.0000
     65  N         83.2190   12.5780  241.3840 N.3    77  ASP77      -0.1239
     66  CA        83.1410   13.0180  242.7730 C.3    77  ASP77       0.1674
     67  C         81.6890   13.3240  243.1100 C.2    77  ASP77       0.2266
     68  O         81.0090   14.0100  242.3490 O.2    77  ASP77      -0.2867
     69  CB        84.0200   14.2590  242.9710 C.3    77  ASP77       0.1410
     70  CG        83.9600   14.8420  244.3850 C.2    77  ASP77       0.3668
     71  OD1       82.8840   15.2810  244.8390 O.co2  77  ASP77      -0.2456
     72  OD2       85.0350   14.9440  245.0180 O.co2  77  ASP77      -0.2456
     73  N         82.0130   21.6110  252.7340 N.3    93  TYR93      -0.1241
     74  CA        81.5090   20.4660  251.9860 C.3    93  TYR93       0.1605
     75  C         82.2620   19.1950  252.3430 C.2    93  TYR93       0.2264
     76  O         83.3380   19.2510  252.9310 O.2    93  TYR93      -0.2867
     77  CB        81.5710   20.7370  250.4740 C.3    93  TYR93       0.0534
     78  CG        82.9440   21.0530  249.9050 C.ar   93  TYR93      -0.0201
     79  CD1       83.4770   22.3340  250.0050 C.ar   93  TYR93      -0.0009
     80  CD2       83.6780   20.0820  249.2440 C.ar   93  TYR93      -0.0009
     81  CE1       84.7210   22.6390  249.4720 C.ar   93  TYR93       0.0417
     82  CE2       84.9400   20.3750  248.7190 C.ar   93  TYR93       0.0417
     83  CZ        85.4390   21.6530  248.8340 C.ar   93  TYR93       0.1957
     84  OH        86.6720   21.9650  248.3040 O.3    93  TYR93      -0.2866
     85  N         83.1050   15.0010  250.8120 N.3    95  ILE95      -0.1245
     86  CA        82.9520   13.9910  249.7900 C.3    95  ILE95       0.1561
     87  C         82.0930   12.8730  250.3500 C.2    95  ILE95       0.2260
     88  O         82.3680   12.3370  251.4320 O.2    95  ILE95      -0.2867
     89  CB        84.3210   13.4710  249.3180 C.3    95  ILE95       0.0252
     90  CG1       84.9990   14.5770  248.5080 C.3    95  ILE95       0.0019
     91  CG2       84.1530   12.1910  248.4820 C.3    95  ILE95       0.0019
     92  CD1       86.4050   14.2400  248.0250 C.3    95  ILE95       0.0001
     93  N         86.9070    9.6440  242.5740 N.3   100  ILE100     -0.1245
     94  CA        87.8480   10.6940  242.2150 C.3   100  ILE100      0.1561
     95  C         89.2370   10.3600  242.7520 C.2   100  ILE100      0.2260
     96  O         89.4130    9.9890  243.9160 O.2   100  ILE100     -0.2867
     97  CB        87.3680   12.0850  242.7240 C.3   100  ILE100      0.0252
     98  CG1       88.4580   13.1410  242.5120 C.3   100  ILE100      0.0019
     99  CG2       86.9320   12.0180  244.1890 C.3   100  ILE100      0.0019
    100  CD1       88.0050   14.5610  242.8300 C.3   100  ILE100      0.0001
    101  N         91.3720   11.7670  246.3170 N.3   103  PHE103     -0.1241
    102  CA        90.3770   12.2670  247.2660 C.3   103  PHE103      0.1605
    103  C         89.4050   11.1940  247.7580 C.2   103  PHE103      0.2264
    104  O         88.9870   11.2210  248.9190 O.2   103  PHE103     -0.2867
    105  CB        89.5860   13.4180  246.6500 C.3   103  PHE103      0.0534
    106  CG        90.3550   14.7020  246.5760 C.ar  103  PHE103     -0.0203
    107  CD1       91.1840   14.9770  245.4930 C.ar  103  PHE103     -0.0042
    108  CD2       90.2650   15.6340  247.6020 C.ar  103  PHE103     -0.0042
    109  CE1       91.9050   16.1670  245.4330 C.ar  103  PHE103     -0.0003
    110  CE2       90.9770   16.8210  247.5470 C.ar  103  PHE103     -0.0003
    111  CZ        91.8060   17.0880  246.4620 C.ar  103  PHE103     -0.0000
    112  N         86.5530   13.1050  254.0340 N.3   109  TYR109     -0.1241
    113  CA        87.1780   14.3430  253.6140 C.3   109  TYR109      0.1605
    114  C         86.1700   15.4700  253.7150 C.2   109  TYR109      0.2264
    115  O         85.1050   15.4290  253.0770 O.2   109  TYR109     -0.2867
    116  CB        87.6950   14.2330  252.1870 C.3   109  TYR109      0.0534
    117  CG        88.1580   15.5400  251.5750 C.ar  109  TYR109     -0.0201
    118  CD1       89.4650   15.9980  251.7540 C.ar  109  TYR109     -0.0009
    119  CD2       87.2950   16.3120  250.7980 C.ar  109  TYR109     -0.0009
    120  CE1       89.8870   17.1720  251.1740 C.ar  109  TYR109      0.0417
    121  CE2       87.7110   17.4910  250.2250 C.ar  109  TYR109      0.0417
    122  CZ        89.0130   17.9150  250.4100 C.ar  109  TYR109      0.1957
    123  OH        89.4240   19.0990  249.8260 O.3   109  TYR109     -0.2866
    124  N         91.3530   28.0310  252.7430 N.3   130  TRP130     -0.1241
    125  CA        90.8990   26.7200  252.2970 C.3   130  TRP130      0.1605
    126  C         91.5380   25.6650  253.1720 C.2   130  TRP130      0.2264
    127  O         92.7750   25.5660  253.2310 O.2   130  TRP130     -0.2867
    128  CB        91.2810   26.5020  250.8370 C.3   130  TRP130      0.0550
    129  CG        90.4730   25.4990  250.0610 C.ar  130  TRP130      0.0003
    130  CD1       89.5440   24.6120  250.5400 C.ar  130  TRP130      0.0946
    131  CD2       90.5230   25.3040  248.6460 C.ar  130  TRP130      0.0152
    132  NE1       89.0210   23.8680  249.4980 N.ar  130  TRP130     -0.2442
    133  CE2       89.6040   24.2830  248.3260 C.ar  130  TRP130      0.0810
    134  CE3       91.2650   25.8940  247.6160 C.ar  130  TRP130      0.0012
    135  CZ2       89.4080   23.8420  247.0110 C.ar  130  TRP130      0.0191
    136  CZ3       91.0740   25.4580  246.3210 C.ar  130  TRP130      0.0001
    137  CH2       90.1480   24.4440  246.0240 C.ar  130  TRP130      0.0015
    138  N         96.0860   20.0210  244.3670 N.3   152  LEU152     -0.1231
    139  CA        94.8080   20.3590  243.7650 C.3   152  LEU152      0.1693
    140  C         94.4100   21.7830  244.1470 C.2   152  LEU152      0.2592
    141  O         93.9540   22.5400  243.3030 O.2   152  LEU152     -0.2718
    142  CB        93.7210   19.3580  244.1760 C.3   152  LEU152      0.0284
    143  CG        92.3120   19.4800  243.5750 C.3   152  LEU152      0.0019
    144  CD1       91.4860   20.5190  244.3220 C.3   152  LEU152      0.0001
    145  CD2       92.3690   19.7800  242.0890 C.3   152  LEU152      0.0001
    146  N         94.5520   22.1480  245.4250 N.am  153  TYR153     -0.1976
    147  CA        94.2620   23.5260  245.8190 C.3   153  TYR153      0.1639
    148  C         95.1280   24.5110  245.0160 C.2   153  TYR153      0.2290
    149  O         94.6610   25.5610  244.5850 O.2   153  TYR153     -0.2864
    150  CB        94.5090   23.7410  247.3190 C.3   153  TYR153      0.0560
    151  CG        93.5130   23.0740  248.2440 C.ar  153  TYR153     -0.0198
    152  CD1       92.4890   22.2660  247.7560 C.ar  153  TYR153     -0.0009
    153  CD2       93.6090   23.2570  249.6120 C.ar  153  TYR153     -0.0009
    154  CE1       91.5800   21.6610  248.6170 C.ar  153  TYR153      0.0417
    155  CE2       92.7060   22.6690  250.4770 C.ar  153  TYR153      0.0417
    156  CZ        91.6960   21.8830  249.9760 C.ar  153  TYR153      0.1957
    157  OH        90.8280   21.2880  250.8520 O.3   153  TYR153     -0.2866
@<TRIPOS>BOND
     1    39    38    2
     2    38    37    1
     3    29    30    1
     4    32    31    2
     5    31    36   am
     6    31    30    1
     7    37    36    1
     8    37    40    1
     9    30    33    1
    10    25    24    2
    11    24    23    1
    12    41    40    1
    13    40    42    1
    14    11    10    2
    15     8     9    1
    16    33    35    1
    17    33    34    1
    18    10     9    1
    19    10    22   am
    20     9    12    1
    21    23    22    1
    22    23    26    1
    23    56    55    1
    24    56    57    2
    25     4     3    2
    26     3     2    1
    27    55    58    1
    28    55    54    1
    29    58    59    1
    30    26    27    1
    31    26    28    1
    32     1     2    1
    33    12    13    1
    34     2     5    1
    35    60    59   ar
    36    60    62   ar
    37    14    13   ar
    38    14    16   ar
    39    59    61   ar
    40     6     5    1
    41    13    15   ar
    42     5     7    1
    43    62    64   ar
    44    65    66    1
    45    16    17   ar
    46    61    63   ar
    47   145   143    1
    48    15    17   ar
    49    15    18   ar
    50    94    93    1
    51    94    97    1
    52    94    95    1
    53    68    67    2
    54    98    97    1
    55    98   100    1
    56    64    63   ar
    57    17    19   ar
    58    97    99    1
    59    95    96    2
    60    66    69    1
    61    66    67    1
    62    45    44    1
    63    45    46    2
    64    69    70    1
    65    18    20   ar
    66    47    44    1
    67    47    48    1
    68   141   140    2
    69    44    43    1
    70   143   142    1
    71   143   144    1
    72   139   140    1
    73   139   142    1
    74   139   138    1
    75    49    48    1
    76    49    50    1
    77    19    21   ar
    78   140   146   am
    79    52    51    1
    80    70    71   ar
    81    70    72   ar
    82    20    21   ar
    83    50    51    2
    84   149   148    2
    85    51    53    1
    86   148   147    1
    87   146   147    1
    88   109   107   ar
    89   109   111   ar
    90   107   106   ar
    91   147   150    1
    92   137   136   ar
    93   137   135   ar
    94   101   102    1
    95   136   134   ar
    96   111   110   ar
    97   106   105    1
    98   106   108   ar
    99   105   102    1
   100   135   133   ar
   101   102   103    1
   102   150   151    1
   103   110   108   ar
   104   134   131   ar
   105   152   151   ar
   106   152   154   ar
   107   103   104    2
   108    92    90    1
   109   151   153   ar
   110    84    83    1
   111   133   131   ar
   112   133   132   ar
   113    91    89    1
   114    90    89    1
   115   154   156   ar
   116   131   129   ar
   117    82    83   ar
   118    82    80   ar
   119    83    81   ar
   120    80    78   ar
   121    89    86    1
   122    81    79   ar
   123   132   130   ar
   124   153   155   ar
   125    86    87    1
   126    86    85    1
   127   123   122    1
   128    78    79   ar
   129    78    77    1
   130   156   155   ar
   131   156   157    1
   132   129   130   ar
   133   129   128    1
   134   121   122   ar
   135   121   119   ar
   136    87    88    2
   137   122   120   ar
   138    77    74    1
   139   119   117   ar
   140   128   125    1
   141   120   118   ar
   142   117   118   ar
   143   117   116    1
   144    74    75    1
   145    74    73    1
   146   116   113    1
   147   125   124    1
   148   125   126    1
   149    75    76    2
   150   115   114    2
   151   126   127    2
   152   113   114    1
   153   113   112    1
