@<TRIPOS>MOLECULE
tmp/5e4dA00.pdb
 163 158 0 0 0
SMALL
GASTEIGER

@<TRIPOS>ATOM
      1  N         28.6390  117.2070  239.8920 N.3    36  VAL36      -0.1245
      2  CA        27.2040  117.1320  240.1280 C.3    36  VAL36       0.1561
      3  C         26.4530  117.3080  238.8000 C.2    36  VAL36       0.2260
      4  O         25.2980  116.8870  238.6670 O.2    36  VAL36      -0.2867
      5  CB        26.7620  118.1780  241.1710 C.3    36  VAL36       0.0252
      6  CG1       27.1090  119.6150  240.7040 C.3    36  VAL36       0.0019
      7  CG2       25.2840  118.0080  241.5220 C.3    36  VAL36       0.0019
      8  N         24.9610  114.2810  237.6180 N.3    39  TRP39      -0.1227
      9  CA        23.8320  113.7860  238.4290 C.3    39  TRP39       0.1737
     10  C         22.5580  114.6020  238.1370 C.2    39  TRP39       0.2595
     11  O         21.6820  114.1390  237.4120 O.2    39  TRP39      -0.2718
     12  CB        24.1880  113.8210  239.9260 C.3    39  TRP39       0.0564
     13  CG        23.0450  113.5530  240.8980 C.ar   39  TRP39       0.0003
     14  CD1       21.7930  113.0630  240.6120 C.ar   39  TRP39       0.0946
     15  CD2       23.0670  113.7870  242.3110 C.ar   39  TRP39       0.0152
     16  NE1       21.0420  112.9890  241.7640 N.ar   39  TRP39      -0.2442
     17  CE2       21.8000  113.4210  242.8180 C.ar   39  TRP39       0.0810
     18  CE3       24.0380  114.2720  243.1990 C.ar   39  TRP39       0.0012
     19  CZ2       21.4780  113.5260  244.1810 C.ar   39  TRP39       0.0191
     20  CZ3       23.7140  114.3720  244.5490 C.ar   39  TRP39       0.0001
     21  CH2       22.4480  113.9950  245.0230 C.ar   39  TRP39       0.0015
     22  N         22.4630  115.8140  238.6770 N.am   40  VAL40      -0.1980
     23  CA        21.2620  116.6410  238.5080 C.3    40  VAL40       0.1595
     24  C         21.3690  117.3900  237.1730 C.2    40  VAL40       0.2287
     25  O         21.3200  118.6190  237.1180 O.2    40  VAL40      -0.2864
     26  CB        21.0650  117.6330  239.6840 C.3    40  VAL40       0.0276
     27  CG1       19.6010  118.1470  239.7540 C.3    40  VAL40       0.0022
     28  CG2       21.4280  116.9770  241.0060 C.3    40  VAL40       0.0022
     29  N         19.2000  120.3390  235.8110 N.3    43  VAL43      -0.1231
     30  CA        19.3650  121.6600  236.4150 C.3    43  VAL43       0.1692
     31  C         20.7740  122.2120  236.1900 C.2    43  VAL43       0.2591
     32  O         20.9580  123.4040  235.9590 O.2    43  VAL43      -0.2718
     33  CB        19.0810  121.6020  237.9480 C.3    43  VAL43       0.0266
     34  CG1       19.4380  122.9280  238.6400 C.3    43  VAL43       0.0020
     35  CG2       17.6260  121.1900  238.2010 C.3    43  VAL43       0.0020
     36  N         21.7600  121.3260  236.2510 N.am   44  VAL44      -0.1980
     37  CA        23.1610  121.7210  236.2650 C.3    44  VAL44       0.1595
     38  C         23.8400  121.4520  234.9200 C.2    44  VAL44       0.2287
     39  O         23.8820  120.3180  234.4380 O.2    44  VAL44      -0.2864
     40  CB        23.9380  120.9960  237.3910 C.3    44  VAL44       0.0276
     41  CG1       25.4080  121.4170  237.3700 C.3    44  VAL44       0.0022
     42  CG2       23.2760  121.2620  238.7780 C.3    44  VAL44       0.0022
     43  N         33.5240  123.1990  244.8290 N.3    61  ARG61      -0.1245
     44  CA        33.0130  123.0400  243.4640 C.3    61  ARG61       0.1563
     45  C         32.3070  124.3250  243.0330 C.2    61  ARG61       0.2260
     46  O         31.7290  125.0390  243.8600 O.2    61  ARG61      -0.2867
     47  CB        32.0540  121.8520  243.3630 C.3    61  ARG61       0.0307
     48  CG        30.7070  122.0430  244.0850 C.3    61  ARG61       0.0489
     49  CD        29.7590  120.8510  243.8980 C.3    61  ARG61       0.2205
     50  NE        28.5630  120.9670  244.7400 N.pl3  61  ARG61      -0.0865
     51  CZ        27.6400  120.0170  244.8710 C.cat  61  ARG61       0.5346
     52  NH1       27.7590  118.8710  244.2150 N.pl3  61  ARG61       0.1354
     53  NH2       26.5980  120.2080  245.6700 N.pl3  61  ARG61       0.1354
     54  N         29.4970  125.1230  240.1830 N.3    63  PHE63      -0.1241
     55  CA        28.6780  124.5930  239.0980 C.3    63  PHE63       0.1605
     56  C         27.7110  125.6220  238.5620 C.2    63  PHE63       0.2264
     57  O         27.3020  126.5580  239.2530 O.2    63  PHE63      -0.2867
     58  CB        27.9600  123.2830  239.4940 C.3    63  PHE63       0.0534
     59  CG        26.9120  123.3940  240.5830 C.ar   63  PHE63      -0.0203
     60  CD1       25.5950  123.7420  240.2830 C.ar   63  PHE63      -0.0042
     61  CD2       27.2150  123.0260  241.8860 C.ar   63  PHE63      -0.0042
     62  CE1       24.6240  123.7720  241.2770 C.ar   63  PHE63      -0.0003
     63  CE2       26.2570  123.0580  242.8930 C.ar   63  PHE63      -0.0003
     64  CZ        24.9520  123.4250  242.5910 C.ar   63  PHE63      -0.0000
     65  N         26.8000  128.3370  241.5440 N.3    77  ASP77      -0.1239
     66  CA        26.8450  127.8590  242.9150 C.3    77  ASP77       0.1674
     67  C         28.3010  127.5320  243.2300 C.2    77  ASP77       0.2266
     68  O         28.9330  126.7800  242.4920 O.2    77  ASP77      -0.2867
     69  CB        25.9240  126.6400  243.0620 C.3    77  ASP77       0.1410
     70  CG        26.0240  125.9380  244.4250 C.2    77  ASP77       0.3668
     71  OD1       27.1410  125.7380  244.9630 O.co2  77  ASP77      -0.2456
     72  OD2       24.9420  125.5420  244.9430 O.co2  77  ASP77      -0.2456
     73  N         30.1630  125.7000  246.3450 N.3    79  SER79      -0.1217
     74  CA        29.9040  124.9810  247.5800 C.3    79  SER79       0.1889
     75  C         31.1110  124.1430  248.0160 C.2    79  SER79       0.2288
     76  O         31.7560  123.4660  247.2140 O.2    79  SER79      -0.2866
     77  CB        28.6530  124.1160  247.4310 C.3    79  SER79       0.2089
     78  OG        28.4950  123.6620  246.1040 O.3    79  SER79      -0.2183
     79  N         28.0440  119.3250  252.8740 N.3    93  TYR93      -0.1241
     80  CA        28.5200  120.4900  252.1460 C.3    93  TYR93       0.1605
     81  C         27.7200  121.7540  252.4680 C.2    93  TYR93       0.2264
     82  O         26.6230  121.7130  253.0570 O.2    93  TYR93      -0.2867
     83  CB        28.5130  120.2190  250.6240 C.3    93  TYR93       0.0534
     84  CG        27.1540  119.8240  250.0340 C.ar   93  TYR93      -0.0201
     85  CD1       26.6800  118.5260  250.1440 C.ar   93  TYR93      -0.0009
     86  CD2       26.3650  120.7550  249.3560 C.ar   93  TYR93      -0.0009
     87  CE1       25.4420  118.1550  249.6080 C.ar   93  TYR93       0.0417
     88  CE2       25.1280  120.3920  248.8100 C.ar   93  TYR93       0.0417
     89  CZ        24.6790  119.0960  248.9370 C.ar   93  TYR93       0.1957
     90  OH        23.4650  118.7330  248.4070 O.3    93  TYR93      -0.2866
     91  N         26.9640  125.9270  250.7990 N.3    95  ILE95      -0.1245
     92  CA        27.1270  126.9220  249.7570 C.3    95  ILE95       0.1561
     93  C         27.9500  128.0790  250.3080 C.2    95  ILE95       0.2260
     94  O         27.6110  128.6590  251.3400 O.2    95  ILE95      -0.2867
     95  CB        25.7720  127.4030  249.2350 C.3    95  ILE95       0.0252
     96  CG1       25.0950  126.2490  248.4850 C.3    95  ILE95       0.0019
     97  CG2       25.9530  128.6300  248.3550 C.3    95  ILE95       0.0019
     98  CD1       23.7220  126.5860  247.9520 C.3    95  ILE95       0.0001
     99  N         23.2720  131.2270  242.4650 N.3   100  ILE100     -0.1245
    100  CA        22.3310  130.1490  242.1520 C.3   100  ILE100      0.1561
    101  C         20.9260  130.5090  242.6470 C.2   100  ILE100      0.2260
    102  O         20.7410  130.9180  243.7930 O.2   100  ILE100     -0.2867
    103  CB        22.7920  128.7880  242.7560 C.3   100  ILE100      0.0252
    104  CG1       21.7210  127.7080  242.5530 C.3   100  ILE100      0.0019
    105  CG2       23.1950  128.9200  244.2470 C.3   100  ILE100      0.0019
    106  CD1       22.1890  126.3140  242.9040 C.3   100  ILE100      0.0001
    107  N         18.7420  129.0590  246.1560 N.3   103  PHE103     -0.1241
    108  CA        19.7000  128.4920  247.1080 C.3   103  PHE103      0.1605
    109  C         20.6730  129.5440  247.6480 C.2   103  PHE103      0.2264
    110  O         21.0790  129.4920  248.8200 O.2   103  PHE103     -0.2867
    111  CB        20.4660  127.3370  246.4540 C.3   103  PHE103      0.0534
    112  CG        19.6920  126.0400  246.4080 C.ar  103  PHE103     -0.0203
    113  CD1       18.7630  125.7960  245.3960 C.ar  103  PHE103     -0.0042
    114  CD2       19.8810  125.0760  247.3860 C.ar  103  PHE103     -0.0042
    115  CE1       18.0480  124.6090  245.3520 C.ar  103  PHE103     -0.0003
    116  CE2       19.1720  123.8770  247.3520 C.ar  103  PHE103     -0.0003
    117  CZ        18.2430  123.6460  246.3350 C.ar  103  PHE103     -0.0000
    118  N         23.5350  127.8090  254.0660 N.3   109  TYR109     -0.1241
    119  CA        22.8850  126.5870  253.6320 C.3   109  TYR109      0.1605
    120  C         23.8760  125.4520  253.7600 C.2   109  TYR109      0.2264
    121  O         24.9520  125.4930  253.1660 O.2   109  TYR109     -0.2867
    122  CB        22.3890  126.7120  252.1830 C.3   109  TYR109      0.0534
    123  CG        21.9510  125.4070  251.5270 C.ar  109  TYR109     -0.0201
    124  CD1       20.6500  124.9270  251.6740 C.ar  109  TYR109     -0.0009
    125  CD2       22.8350  124.6730  250.7380 C.ar  109  TYR109     -0.0009
    126  CE1       20.2470  123.7270  251.0570 C.ar  109  TYR109      0.0417
    127  CE2       22.4450  123.4860  250.1280 C.ar  109  TYR109      0.0417
    128  CZ        21.1490  123.0230  250.2830 C.ar  109  TYR109      0.1957
    129  OH        20.7870  121.8350  249.6600 O.3   109  TYR109     -0.2866
    130  N         18.7940  112.8020  252.7930 N.3   130  TRP130     -0.1241
    131  CA        19.2030  114.1210  252.3290 C.3   130  TRP130      0.1605
    132  C         18.5170  115.1700  253.1760 C.2   130  TRP130      0.2264
    133  O         17.2930  115.2200  253.2050 O.2   130  TRP130     -0.2867
    134  CB        18.8300  114.3140  250.8620 C.3   130  TRP130      0.0550
    135  CG        19.6290  115.3170  250.1020 C.ar  130  TRP130      0.0003
    136  CD1       20.5300  116.2290  250.5860 C.ar  130  TRP130      0.0946
    137  CD2       19.5950  115.5000  248.6800 C.ar  130  TRP130      0.0152
    138  NE1       21.0560  116.9710  249.5440 N.ar  130  TRP130     -0.2442
    139  CE2       20.5020  116.5330  248.3650 C.ar  130  TRP130      0.0810
    140  CE3       18.8890  114.8790  247.6440 C.ar  130  TRP130      0.0012
    141  CZ2       20.7100  116.9710  247.0540 C.ar  130  TRP130      0.0191
    142  CZ3       19.1030  115.3120  246.3330 C.ar  130  TRP130      0.0001
    143  CH2       20.0010  116.3490  246.0570 C.ar  130  TRP130      0.0015
    144  N         13.9930  120.6900  244.3340 N.3   152  LEU152     -0.1231
    145  CA        15.2930  120.3600  243.7670 C.3   152  LEU152      0.1693
    146  C         15.6770  118.9310  244.1450 C.2   152  LEU152      0.2592
    147  O         16.0180  118.1450  243.2720 O.2   152  LEU152     -0.2718
    148  CB        16.3500  121.3730  244.2310 C.3   152  LEU152      0.0284
    149  CG        17.7460  121.3320  243.5930 C.3   152  LEU152      0.0019
    150  CD1       18.6560  120.3640  244.3490 C.3   152  LEU152      0.0001
    151  CD2       17.6450  120.9750  242.1050 C.3   152  LEU152      0.0001
    152  N         15.6110  118.5870  245.4340 N.am  153  TYR153     -0.1976
    153  CA        15.8740  117.2040  245.8480 C.3   153  TYR153      0.1639
    154  C         15.0290  116.2260  245.0150 C.2   153  TYR153      0.2290
    155  O         15.5360  115.2290  244.5190 O.2   153  TYR153     -0.2864
    156  CB        15.5970  116.9930  247.3470 C.3   153  TYR153      0.0560
    157  CG        16.5880  117.6880  248.2660 C.ar  153  TYR153     -0.0198
    158  CD1       17.6450  118.4200  247.7460 C.ar  153  TYR153     -0.0009
    159  CD2       16.4520  117.6200  249.6500 C.ar  153  TYR153     -0.0009
    160  CE1       18.5470  119.0750  248.5780 C.ar  153  TYR153      0.0417
    161  CE2       17.3500  118.2510  250.4890 C.ar  153  TYR153      0.0417
    162  CZ        18.3980  118.9770  249.9430 C.ar  153  TYR153      0.1957
    163  OH        19.2830  119.6200  250.7620 O.3   153  TYR153     -0.2866
@<TRIPOS>BOND
     1    39    38    2
     2    38    37    1
     3    29    30    1
     4    32    31    2
     5    31    36   am
     6    31    30    1
     7    36    37    1
     8    37    40    1
     9    30    33    1
    10    25    24    2
    11    24    23    1
    12    41    40    1
    13    40    42    1
    14    11    10    2
    15     8     9    1
    16    33    35    1
    17    33    34    1
    18    10     9    1
    19    10    22   am
    20     9    12    1
    21    23    22    1
    22    23    26    1
    23    56    55    1
    24    56    57    2
    25     4     3    2
    26     3     2    1
    27    55    58    1
    28    55    54    1
    29    58    59    1
    30    26    27    1
    31    26    28    1
    32     1     2    1
    33    12    13    1
    34     2     5    1
    35    60    59   ar
    36    60    62   ar
    37    59    61   ar
    38    14    13   ar
    39    14    16   ar
    40     6     5    1
    41    13    15   ar
    42     5     7    1
    43    62    64   ar
    44    65    66    1
    45    16    17   ar
    46    61    63   ar
    47   151   149    1
    48   100    99    1
    49   100   101    1
    50   100   103    1
    51    15    17   ar
    52    15    18   ar
    53    68    67    2
    54   104   103    1
    55   104   106    1
    56    64    63   ar
    57   101   102    2
    58   103   105    1
    59    17    19   ar
    60    66    69    1
    61    66    67    1
    62    45    44    1
    63    45    46    2
    64    69    70    1
    65    18    20   ar
    66   147   146    2
    67    47    44    1
    68    47    48    1
    69    44    43    1
    70   149   148    1
    71   149   150    1
    72   145   146    1
    73   145   148    1
    74   145   144    1
    75    49    48    1
    76    49    50    1
    77   146   152   am
    78    19    21   ar
    79    52    51    1
    80    70    72   ar
    81    70    71   ar
    82   155   154    2
    83    20    21   ar
    84    50    51    2
    85    51    53    1
    86   154   153    1
    87   115   113   ar
    88   115   117   ar
    89   113   112   ar
    90   152   153    1
    91   153   156    1
    92   143   142   ar
    93   143   141   ar
    94    78    77    1
    95   107   108    1
    96   142   140   ar
    97   117   116   ar
    98    73    74    1
    99   112   111    1
   100   112   114   ar
   101   111   108    1
   102   141   139   ar
   103   108   109    1
   104    76    75    2
   105   156   157    1
   106   116   114   ar
   107    77    74    1
   108    74    75    1
   109   140   137   ar
   110   109   110    2
   111   158   157   ar
   112   158   160   ar
   113    98    96    1
   114   157   159   ar
   115    97    95    1
   116   139   137   ar
   117   139   138   ar
   118    90    89    1
   119    96    95    1
   120   160   162   ar
   121   137   135   ar
   122    88    89   ar
   123    88    86   ar
   124    89    87   ar
   125    95    92    1
   126    86    84   ar
   127   138   136   ar
   128    87    85   ar
   129   159   161   ar
   130   129   128    1
   131    92    93    1
   132    92    91    1
   133   162   161   ar
   134   162   163    1
   135    84    85   ar
   136    84    83    1
   137   135   136   ar
   138   135   134    1
   139   127   128   ar
   140   127   125   ar
   141   128   126   ar
   142    93    94    2
   143    83    80    1
   144   125   123   ar
   145   134   131    1
   146   126   124   ar
   147   123   124   ar
   148   123   122    1
   149    80    81    1
   150    80    79    1
   151   122   119    1
   152   131   130    1
   153   131   132    1
   154    81    82    2
   155   121   120    2
   156   132   133    2
   157   119   120    1
   158   119   118    1
