@<TRIPOS>MOLECULE
tmp/5e4dB02.pdb
 93 87 0 0 0
SMALL
GASTEIGER

@<TRIPOS>ATOM
      1  N         22.3800  105.3800  281.1610 N.3    43  VAL43      -0.1245
      2  CA        23.3880  106.4240  281.2300 C.3    43  VAL43       0.1561
      3  C         22.8910  107.6600  281.9830 C.2    43  VAL43       0.2260
      4  O         23.6240  108.2810  282.7560 O.2    43  VAL43      -0.2867
      5  CB        23.8320  106.8530  279.8060 C.3    43  VAL43       0.0252
      6  CG1       24.7570  108.0440  279.8710 C.3    43  VAL43       0.0019
      7  CG2       24.4850  105.6860  279.0590 C.3    43  VAL43       0.0019
      8  N         24.2840  112.4210  284.2990 N.3    65  CYS65      -0.1221
      9  CA        24.7160  111.0730  283.9500 C.3    65  CYS65       0.1808
     10  C         25.2910  110.3650  285.1570 C.2    65  CYS65       0.2601
     11  O         25.9870  110.9840  285.9690 O.2    65  CYS65      -0.2717
     12  CB        25.7730  111.0960  282.8340 C.3    65  CYS65       0.0970
     13  SG        25.2000  111.8060  281.2760 S.3    65  CYS65      -0.0800
     14  N         25.0200  109.0690  285.2610 N.am   66  TYR66      -0.1976
     15  CA        25.6760  108.2330  286.2600 C.3    66  TYR66       0.1639
     16  C         27.1770  108.2500  286.0500 C.2    66  TYR66       0.2290
     17  O         27.6380  108.5010  284.9340 O.2    66  TYR66      -0.2864
     18  CB        25.1840  106.7930  286.1830 C.3    66  TYR66       0.0560
     19  CG        23.7170  106.6140  286.4290 C.ar   66  TYR66      -0.0198
     20  CD1       23.1940  106.7090  287.7150 C.ar   66  TYR66      -0.0009
     21  CD2       22.8520  106.3050  285.3840 C.ar   66  TYR66      -0.0009
     22  CE1       21.8380  106.5280  287.9450 C.ar   66  TYR66       0.0417
     23  CE2       21.5060  106.1200  285.6040 C.ar   66  TYR66       0.0417
     24  CZ        21.0010  106.2270  286.8930 C.ar   66  TYR66       0.1957
     25  OH        19.6460  106.0400  287.1110 O.3    66  TYR66      -0.2866
     26  N         30.6640  107.3500  284.9300 N.3    68  ALA68      -0.1245
     27  CA        30.9940  106.6360  283.7030 C.3    68  ALA68       0.1562
     28  C         31.6880  105.3220  284.0070 C.2    68  ALA68       0.2260
     29  O         31.5090  104.3200  283.3210 O.2    68  ALA68      -0.2867
     30  CB        31.8640  107.5070  282.8080 C.3    68  ALA68       0.0290
     31  N         28.2150  113.3310  285.9830 N.3    75  THR75      -0.1218
     32  CA        28.4990  114.4980  285.1630 C.3    75  THR75       0.1862
     33  C         27.2090  115.0770  284.5860 C.2    75  THR75       0.2287
     34  O         26.1400  114.4720  284.6770 O.2    75  THR75      -0.2866
     35  CB        29.4760  114.1770  284.0180 C.3    75  THR75       0.1770
     36  OG1       28.9230  113.1380  283.2060 O.3    75  THR75      -0.2211
     37  CG2       30.8110  113.7180  284.5760 C.3    75  THR75       0.0375
     38  N         29.7940  116.5470  280.9660 N.3   100  ILE100     -0.1231
     39  CA        29.4280  115.1810  280.5870 C.3   100  ILE100      0.1692
     40  C         30.5970  114.4470  279.9500 C.2   100  ILE100      0.2592
     41  O         31.2860  114.9740  279.0600 O.2   100  ILE100     -0.2718
     42  CB        28.2140  115.1250  279.6270 C.3   100  ILE100      0.0266
     43  CG1       28.0010  113.6730  279.1650 C.3   100  ILE100      0.0019
     44  CG2       28.4150  116.0720  278.4470 C.3   100  ILE100      0.0020
     45  CD1       26.7610  113.4230  278.2950 C.3   100  ILE100      0.0001
     46  N         30.8330  113.2360  280.4470 N.am  101  THR101     -0.1953
     47  CA        32.0470  112.4920  280.1360 C.3   101  THR101      0.1897
     48  C         32.2040  112.2620  278.6390 C.2   101  THR101      0.2313
     49  O         31.2960  111.7500  277.9870 O.2   101  THR101     -0.2863
     50  CB        32.0520  111.1400  280.8420 C.3   101  THR101      0.1794
     51  OG1       31.8460  111.3490  282.2420 O.3   101  THR101     -0.2208
     52  CG2       33.3790  110.4360  280.6290 C.3   101  THR101      0.0378
     53  N         31.6070  113.5690  275.8940 N.3   103  PHE103     -0.1241
     54  CA        30.8600  114.4740  275.0230 C.3   103  PHE103      0.1605
     55  C         31.2400  115.9330  275.2240 C.2   103  PHE103      0.2264
     56  O         31.2210  116.7020  274.2710 O.2   103  PHE103     -0.2867
     57  CB        29.3500  114.2980  275.2250 C.3   103  PHE103      0.0534
     58  CG        28.8090  113.0630  274.5810 C.ar  103  PHE103     -0.0203
     59  CD1       28.9430  111.8230  275.1980 C.ar  103  PHE103     -0.0042
     60  CD2       28.1770  113.1300  273.3450 C.ar  103  PHE103     -0.0042
     61  CE1       28.4520  110.6750  274.5990 C.ar  103  PHE103     -0.0003
     62  CE2       27.6850  111.9850  272.7320 C.ar  103  PHE103     -0.0003
     63  CZ        27.8170  110.7550  273.3600 C.ar  103  PHE103     -0.0000
     64  N         33.7890  108.0320  271.4100 N.3   148  ILE148     -0.1245
     65  CA        32.9050  108.6240  272.4100 C.3   148  ILE148      0.1561
     66  C         31.4450  108.3940  272.0320 C.2   148  ILE148      0.2260
     67  O         30.6300  107.9320  272.8360 O.2   148  ILE148     -0.2867
     68  CB        33.1710  110.1400  272.5480 C.3   148  ILE148      0.0252
     69  CG1       34.5810  110.3750  273.0890 C.3   148  ILE148      0.0019
     70  CG2       32.1080  110.8380  273.4440 C.3   148  ILE148      0.0019
     71  CD1       35.0600  111.8020  272.9660 C.3   148  ILE148      0.0001
     72  N         29.4610  104.2140  270.9040 N.3   151  PRO151     -0.2102
     73  CA        28.9650  103.3520  271.9830 C.3   151  PRO151      0.1504
     74  C         27.7660  103.9450  272.7120 C.2   151  PRO151      0.2575
     75  O         26.9100  103.1950  273.1510 O.2   151  PRO151     -0.2718
     76  CB        30.1650  103.2540  272.9300 C.3   151  PRO151      0.0282
     77  CG        31.3420  103.4530  272.0290 C.3   151  PRO151      0.0208
     78  CD        30.8840  104.5390  271.0980 C.3   151  PRO151      0.0893
     79  N         27.7090  105.2650  272.8350 N.am  152  LEU152     -0.1980
     80  CA        26.5520  105.8820  273.4730 C.3   152  LEU152      0.1596
     81  C         25.3050  105.6280  272.6150 C.2   152  LEU152      0.2287
     82  O         24.2650  105.1890  273.1350 O.2   152  LEU152     -0.2864
     83  CB        26.7820  107.3790  273.7010 C.3   152  LEU152      0.0297
     84  CG        25.7050  108.2150  274.4320 C.3   152  LEU152      0.0022
     85  CD1       24.5650  108.6460  273.5000 C.3   152  LEU152      0.0001
     86  CD2       25.1580  107.4800  275.6640 C.3   152  LEU152      0.0001
     87  N         24.2330  102.0370  272.9730 N.3   155  THR155     -0.1218
     88  CA        23.5520  101.8170  274.2450 C.3   155  THR155      0.1862
     89  C         22.1510  102.4050  274.2110 C.2   155  THR155      0.2287
     90  O         21.1900  101.8120  274.7180 O.2   155  THR155     -0.2866
     91  CB        24.3500  102.4350  275.4160 C.3   155  THR155      0.1770
     92  OG1       25.5290  101.6560  275.6520 O.3   155  THR155     -0.2211
     93  CG2       23.5220  102.4750  276.6870 C.3   155  THR155      0.0375
@<TRIPOS>BOND
     1    72    78    1
     2    72    73    1
     3    78    77    1
     4    64    65    1
     5    73    74    1
     6    73    76    1
     7    77    76    1
     8    66    65    1
     9    66    67    2
    10    65    68    1
    11    68    69    1
    12    68    70    1
    13    81    82    2
    14    81    80    1
    15    74    79   am
    16    74    75    2
    17    62    60   ar
    18    62    63   ar
    19    79    80    1
    20    71    69    1
    21    87    88    1
    22    60    58   ar
    23    63    61   ar
    24    80    83    1
    25    85    84    1
    26    83    84    1
    27    89    88    1
    28    89    90    2
    29    88    91    1
    30    56    55    2
    31    84    86    1
    32    58    59   ar
    33    58    57    1
    34    61    59   ar
    35    54    55    1
    36    54    57    1
    37    54    53    1
    38    91    92    1
    39    91    93    1
    40    49    48    2
    41    45    43    1
    42    44    42    1
    43    48    47    1
    44     7     5    1
    45    41    40    2
    46    43    42    1
    47    42    39    1
    48     5     6    1
    49     5     2    1
    50    40    46   am
    51    40    39    1
    52    47    46    1
    53    47    50    1
    54    39    38    1
    55    52    50    1
    56    50    51    1
    57     1     2    1
    58     2     3    1
    59    13    12    1
    60     3     4    2
    61    30    27    1
    62    12     9    1
    63    36    35    1
    64    29    28    2
    65    27    28    1
    66    27    26    1
    67     9     8    1
    68     9    10    1
    69    35    37    1
    70    35    32    1
    71    33    34    2
    72    33    32    1
    73    17    16    2
    74    10    14   am
    75    10    11    2
    76    32    31    1
    77    14    15    1
    78    21    23   ar
    79    21    19   ar
    80    23    24   ar
    81    16    15    1
    82    18    15    1
    83    18    19    1
    84    19    20   ar
    85    24    25    1
    86    24    22   ar
    87    20    22   ar
