@<TRIPOS>MOLECULE
tmp/5e4kA00.pdb
 132 132 0 0 0
SMALL
GASTEIGER

@<TRIPOS>ATOM
      1  N          7.5950   47.7200   -8.2670 N.3   113  GLN113     -0.1245
      2  CA         7.7860   49.1580   -8.0690 C.3   113  GLN113      0.1566
      3  C          7.4860   49.4810   -6.5970 C.2   113  GLN113      0.2260
      4  O          7.8070   48.6820   -5.6990 O.2   113  GLN113     -0.2867
      5  CB         6.9420   49.9100   -9.0910 C.3   113  GLN113      0.0367
      6  CG         7.1880   49.4790  -10.5540 C.3   113  GLN113      0.0905
      7  CD         6.4020   50.3000  -11.5960 C.2   113  GLN113      0.2608
      8  OE1        5.4710   51.0370  -11.2670 O.2   113  GLN113     -0.2717
      9  NE2        6.7600   50.1330  -12.8670 N.am  113  GLN113     -0.0878
     10  N         -4.7430   48.6420    6.5490 N.3   127  TYR127     -0.1241
     11  CA        -4.7780   49.9190    5.8560 C.3   127  TYR127      0.1605
     12  C         -6.1120   50.5650    6.1540 C.2   127  TYR127      0.2264
     13  O         -7.1620   49.9200    6.0170 O.2   127  TYR127     -0.2867
     14  CB        -4.5880   49.8040    4.3480 C.3   127  TYR127      0.0534
     15  CG        -4.8140   51.1090    3.5920 C.ar  127  TYR127     -0.0201
     16  CD1       -3.8900   52.1470    3.6530 C.ar  127  TYR127     -0.0009
     17  CD2       -5.9350   51.2900    2.7900 C.ar  127  TYR127     -0.0009
     18  CE1       -4.0890   53.3450    2.9560 C.ar  127  TYR127      0.0417
     19  CE2       -6.1380   52.4770    2.0850 C.ar  127  TYR127      0.0417
     20  CZ        -5.2160   53.4980    2.1770 C.ar  127  TYR127      0.1957
     21  OH        -5.4260   54.6700    1.4890 O.3   127  TYR127     -0.2866
     22  N         -7.8340   52.6080   -1.7680 N.3   139  GLY139     -0.1210
     23  CA        -6.8870   53.6780   -1.5380 C.3   139  GLY139      0.1956
     24  C         -6.1480   54.1550   -2.7670 C.2   139  GLY139      0.2612
     25  O         -5.2330   54.9800   -2.6420 O.2   139  GLY139     -0.2717
     26  N         -6.5020   53.6550   -3.9490 N.am  140  ARG140     -0.1965
     27  CA        -5.8000   54.0410   -5.1580 C.3   140  ARG140      0.1729
     28  C         -6.7620   54.4470   -6.2500 C.2   140  ARG140      0.2616
     29  O         -7.3910   53.5770   -6.8540 O.2   140  ARG140     -0.2715
     30  CB        -4.9620   52.8820   -5.7110 C.3   140  ARG140      0.0348
     31  CG        -3.8010   52.4020   -4.8770 C.3   140  ARG140      0.0492
     32  CD        -2.5560   53.2230   -5.0460 C.3   140  ARG140      0.2205
     33  NE        -2.1520   53.2220   -6.4450 N.pl3 140  ARG140     -0.0865
     34  CZ        -1.0960   53.8720   -6.9140 C.cat 140  ARG140      0.5346
     35  NH1       -0.3000   54.5340   -6.0900 N.pl3 140  ARG140      0.1354
     36  NH2       -0.8170   53.8440   -8.2030 N.pl3 140  ARG140      0.1354
     37  N         -6.9120   55.7470   -6.4860 N.am  141  GLU141     -0.1963
     38  CA        -6.6610   56.2950   -7.8050 C.3   141  GLU141      0.1733
     39  C         -7.0160   55.3360   -8.9420 C.2   141  GLU141      0.2616
     40  O         -8.1640   54.9520   -9.1780 O.2   141  GLU141     -0.2715
     41  CB        -5.1910   56.7190   -7.9120 C.3   141  GLU141      0.0429
     42  CG        -4.6450   57.8010   -7.0060 C.3   141  GLU141      0.1163
     43  CD        -4.4490   57.5450   -5.5430 C.2   141  GLU141      0.3649
     44  OE1       -5.5500   57.4800   -4.9550 O.co2 141  GLU141     -0.2457
     45  OE2       -3.3930   57.4250   -4.9250 O.co2 141  GLU141     -0.2457
     46  N         -5.9250   54.9690   -9.6120 N.am  142  ASP142     -0.1971
     47  CA        -5.8770   54.2220  -10.8640 C.3   142  ASP142      0.1709
     48  C         -6.6190   52.8920  -10.8560 C.2   142  ASP142      0.2293
     49  O         -6.8870   52.3470  -11.9350 O.2   142  ASP142     -0.2864
     50  CB        -4.3950   54.0130  -11.1930 C.3   142  ASP142      0.1436
     51  CG        -3.6470   53.2520  -10.0900 C.2   142  ASP142      0.3671
     52  OD1       -4.2270   52.3840   -9.4040 O.co2 142  ASP142     -0.2456
     53  OD2       -2.4910   53.6170   -9.8190 O.co2 142  ASP142     -0.2456
     54  N         -5.2860   50.0410   -9.7530 N.3   144  HIS144     -0.1241
     55  CA        -4.3420   48.9270   -9.7430 C.3   144  HIS144      0.1621
     56  C         -4.2670   48.2480   -8.3760 C.2   144  HIS144      0.2264
     57  O         -4.6790   48.7900   -7.3440 O.2   144  HIS144     -0.2867
     58  CB        -2.9420   49.3830  -10.1330 C.3   144  HIS144      0.0745
     59  CG        -2.8100   49.7690  -11.5700 C.ar  144  HIS144      0.0817
     60  ND1       -3.1170   51.0280  -12.0370 N.ar  144  HIS144     -0.2268
     61  CD2       -2.4130   49.0550  -12.6500 C.ar  144  HIS144      0.1154
     62  CE1       -2.9050   51.0780  -13.3390 C.ar  144  HIS144      0.1986
     63  NE2       -2.4800   49.8920  -13.7360 N.ar  144  HIS144     -0.2212
     64  N         -2.3150   46.7300   -5.1990 N.3   146  TRP146     -0.1241
     65  CA        -1.1210   46.9590   -4.3950 C.3   146  TRP146      0.1605
     66  C         -1.3100   46.2550   -3.0580 C.2   146  TRP146      0.2264
     67  O         -2.4290   45.8870   -2.6890 O.2   146  TRP146     -0.2867
     68  CB        -0.8640   48.4630   -4.1650 C.3   146  TRP146      0.0550
     69  CG        -1.9390   49.1060   -3.3340 C.ar  146  TRP146      0.0003
     70  CD1       -3.1520   49.5410   -3.7710 C.ar  146  TRP146      0.0946
     71  CD2       -1.9060   49.3700   -1.9220 C.ar  146  TRP146      0.0152
     72  NE1       -3.8800   50.0650   -2.7260 N.ar  146  TRP146     -0.2442
     73  CE2       -3.1360   49.9740   -1.5790 C.ar  146  TRP146      0.0810
     74  CE3       -0.9610   49.1530   -0.9170 C.ar  146  TRP146      0.0012
     75  CZ2       -3.4450   50.3640   -0.2700 C.ar  146  TRP146      0.0191
     76  CZ3       -1.2650   49.5440    0.3830 C.ar  146  TRP146      0.0001
     77  CH2       -2.4990   50.1420    0.6930 C.ar  146  TRP146      0.0015
     78  N          0.2940   49.9150    7.3080 N.3   153  TYR153     -0.1241
     79  CA         0.6700   50.9410    6.3410 C.3   153  TYR153      0.1605
     80  C          0.6100   52.3250    6.9650 C.2   153  TYR153      0.2264
     81  O          1.4180   53.1930    6.6170 O.2   153  TYR153     -0.2867
     82  CB        -0.2460   50.8590    5.1110 C.3   153  TYR153      0.0534
     83  CG         0.0150   51.8640    3.9850 C.ar  153  TYR153     -0.0201
     84  CD1        1.0310   51.6600    3.0560 C.ar  153  TYR153     -0.0009
     85  CD2       -0.7840   52.9990    3.8370 C.ar  153  TYR153     -0.0009
     86  CE1        1.2480   52.5710    2.0180 C.ar  153  TYR153      0.0417
     87  CE2       -0.5800   53.9080    2.8120 C.ar  153  TYR153      0.0417
     88  CZ         0.4370   53.6960    1.9090 C.ar  153  TYR153      0.1957
     89  OH         0.6370   54.6090    0.8950 O.3   153  TYR153     -0.2866
     90  N          4.9080   50.1180    0.6650 N.3   159  TRP159     -0.1241
     91  CA         3.9470   49.4020   -0.1760 C.3   159  TRP159      0.1605
     92  C          4.5280   49.1340   -1.5650 C.2   159  TRP159      0.2264
     93  O          5.5850   49.6540   -1.9410 O.2   159  TRP159     -0.2867
     94  CB         2.6860   50.2380   -0.3600 C.3   159  TRP159      0.0550
     95  CG         3.0160   51.4460   -1.2010 C.ar  159  TRP159      0.0003
     96  CD1        3.6970   52.5470   -0.8010 C.ar  159  TRP159      0.0946
     97  CD2        2.6700   51.6660   -2.5800 C.ar  159  TRP159      0.0152
     98  NE1        3.8090   53.4390   -1.8370 N.ar  159  TRP159     -0.2442
     99  CE2        3.1800   52.9260   -2.9390 C.ar  159  TRP159      0.0810
    100  CE3        1.9750   50.9220   -3.5400 C.ar  159  TRP159      0.0012
    101  CZ2        3.0230   53.4640   -4.2180 C.ar  159  TRP159      0.0191
    102  CZ3        1.8240   51.4530   -4.8110 C.ar  159  TRP159      0.0001
    103  CH2        2.3470   52.7110   -5.1380 C.ar  159  TRP159      0.0015
    104  N          3.1430   47.5520   -5.8620 N.3   161  PHE161     -0.1241
    105  CA         2.1440   46.8890   -6.6980 C.3   161  PHE161      0.1605
    106  C          2.2480   45.3680   -6.6010 C.2   161  PHE161      0.2264
    107  O          3.2900   44.8060   -6.2500 O.2   161  PHE161     -0.2867
    108  CB         2.2990   47.3050   -8.1520 C.3   161  PHE161      0.0534
    109  CG         2.0750   48.7580   -8.3710 C.ar  161  PHE161     -0.0203
    110  CD1        0.7990   49.2510   -8.5650 C.ar  161  PHE161     -0.0042
    111  CD2        3.1380   49.6420   -8.3460 C.ar  161  PHE161     -0.0042
    112  CE1        0.5950   50.6020   -8.7610 C.ar  161  PHE161     -0.0003
    113  CE2        2.9380   50.9920   -8.5440 C.ar  161  PHE161     -0.0003
    114  CZ         1.6640   51.4730   -8.7480 C.ar  161  PHE161     -0.0000
    115  N          1.0820   48.6830  -18.7030 N.3   171  THR171     -0.1203
    116  CA         1.5910   49.6570  -17.7330 C.3   171  THR171      0.1994
    117  C          2.8940   49.2400  -17.0490 C.2   171  THR171      0.2617
    118  O          3.6700   50.1050  -16.6250 O.2   171  THR171     -0.2717
    119  CB         0.5370   49.9740  -16.6530 C.3   171  THR171      0.1784
    120  OG1        0.2440   48.8100  -15.8720 O.3   171  THR171     -0.2211
    121  CG2       -0.7570   50.4810  -17.2840 C.3   171  THR171      0.0376
    122  N          3.1660   47.9380  -16.9560 N.am  172  PHE172     -0.1975
    123  CA         4.3630   47.4380  -16.2840 C.3   172  PHE172      0.1639
    124  C          5.4290   46.8650  -17.2040 C.2   172  PHE172      0.2290
    125  O          6.3220   46.1790  -16.7090 O.2   172  PHE172     -0.2864
    126  CB         3.9910   46.4220  -15.2140 C.3   172  PHE172      0.0560
    127  CG         3.2100   47.0210  -14.1400 C.ar  172  PHE172     -0.0200
    128  CD1        3.8090   47.9130  -13.2750 C.ar  172  PHE172     -0.0042
    129  CD2        1.8830   46.7320  -13.9930 C.ar  172  PHE172     -0.0042
    130  CE1        3.0890   48.5150  -12.2770 C.ar  172  PHE172     -0.0003
    131  CE2        1.1450   47.3220  -12.9840 C.ar  172  PHE172     -0.0003
    132  CZ         1.7540   48.2100  -12.1250 C.ar  172  PHE172     -0.0000
@<TRIPOS>BOND
     1   115   116    1
     2   116   117    1
     3   116   119    1
     4   121   119    1
     5   124   125    2
     6   124   123    1
     7   117   122   am
     8   117   118    2
     9   122   123    1
    10   119   120    1
    11   123   126    1
    12   126   127    1
    13   127   129   ar
    14   127   128   ar
    15   129   131   ar
    16    63    62   ar
    17    63    61   ar
    18    62    60   ar
    19   128   130   ar
    20   131   132   ar
    21     9     7   am
    22    61    59   ar
    23   130   132   ar
    24    60    59   ar
    25    49    48    2
    26     7     8    2
    27     7     6    1
    28    59    58    1
    29    50    47    1
    30    50    51    1
    31    47    48    1
    32    47    46    1
    33     6     5    1
    34    58    55    1
    35    51    53   ar
    36    51    52   ar
    37    54    55    1
    38    55    56    1
    39    46    39   am
    40    40    39    2
    41     5     2    1
    42    39    38    1
    43   112   114   ar
    44   112   110   ar
    45   114   113   ar
    46   110   109   ar
    47   113   111   ar
    48    56    57    2
    49   109   111   ar
    50   109   108    1
    51     1     2    1
    52    36    34    1
    53   108   105    1
    54     2     3    1
    55    41    38    1
    56    41    42    1
    57    38    37    1
    58    42    43    1
    59    34    33    2
    60    34    35    1
    61    29    28    2
    62   105   106    1
    63   105   104    1
    64   106   107    2
    65     3     4    2
    66    37    28   am
    67    33    32    1
    68    28    27    1
    69    30    27    1
    70    30    31    1
    71    43    44   ar
    72    43    45   ar
    73    64    65    1
    74    27    26    1
    75   103   102   ar
    76   103   101   ar
    77    32    31    1
    78   102   100   ar
    79    65    68    1
    80    65    66    1
    81   101    99   ar
    82    68    69    1
    83    26    24   am
    84    70    69   ar
    85    70    72   ar
    86   100    97   ar
    87    69    71   ar
    88    66    67    2
    89    99    97   ar
    90    99    98   ar
    91    24    25    2
    92    24    23    1
    93    72    73   ar
    94    97    95   ar
    95    93    92    2
    96    71    73   ar
    97    71    74   ar
    98    98    96   ar
    99    22    23    1
   100    73    75   ar
   101    92    91    1
   102    95    96   ar
   103    95    94    1
   104    74    76   ar
   105    94    91    1
   106    75    77   ar
   107    91    90    1
   108    76    77   ar
   109    89    88    1
   110    21    20    1
   111    88    86   ar
   112    88    87   ar
   113    86    84   ar
   114    19    20   ar
   115    19    17   ar
   116    20    18   ar
   117    17    15   ar
   118    87    85   ar
   119    18    16   ar
   120    84    83   ar
   121    15    16   ar
   122    15    14    1
   123    85    83   ar
   124    83    82    1
   125    14    11    1
   126    82    79    1
   127    11    12    1
   128    11    10    1
   129    13    12    2
   130    79    80    1
   131    79    78    1
   132    81    80    2
