@<TRIPOS>MOLECULE
tmp/5e4mA00.pdb
 163 158 0 0 0
SMALL
GASTEIGER

@<TRIPOS>ATOM
      1  N         28.1800  116.5290  125.8040 N.3    37  VAL37      -0.1245
      2  CA        26.7330  116.4960  126.0240 C.3    37  VAL37       0.1561
      3  C         25.9930  116.7750  124.7030 C.2    37  VAL37       0.2260
      4  O         24.8050  116.4870  124.5760 O.2    37  VAL37      -0.2867
      5  CB        26.3150  117.4930  127.1340 C.3    37  VAL37       0.0252
      6  CG1       26.6870  118.9440  126.7690 C.3    37  VAL37       0.0019
      7  CG2       24.8370  117.3590  127.4630 C.3    37  VAL37       0.0019
      8  N         24.5390  113.7500  123.5380 N.3    40  TRP40      -0.1227
      9  CA        23.4460  113.2320  124.3540 C.3    40  TRP40       0.1737
     10  C         22.1780  114.0460  124.0440 C.2    40  TRP40       0.2595
     11  O         21.2730  113.5600  123.3460 O.2    40  TRP40      -0.2718
     12  CB        23.8070  113.2790  125.8530 C.3    40  TRP40       0.0564
     13  CG        22.6470  113.0320  126.8030 C.ar   40  TRP40       0.0003
     14  CD1       21.4000  112.5430  126.4920 C.ar   40  TRP40       0.0946
     15  CD2       22.6350  113.2720  128.2160 C.ar   40  TRP40       0.0152
     16  NE1       20.6180  112.4810  127.6230 N.ar   40  TRP40      -0.2442
     17  CE2       21.3570  112.9180  128.6940 C.ar   40  TRP40       0.0810
     18  CE3       23.5880  113.7640  129.1260 C.ar   40  TRP40       0.0012
     19  CZ2       21.0050  113.0380  130.0420 C.ar   40  TRP40       0.0191
     20  CZ3       23.2330  113.8790  130.4630 C.ar   40  TRP40       0.0001
     21  CH2       21.9540  113.5170  130.9060 C.ar   40  TRP40       0.0015
     22  N         22.1220  115.2790  124.5450 N.am   41  VAL41      -0.1980
     23  CA        20.9340  116.1120  124.3910 C.3    41  VAL41       0.1595
     24  C         21.0240  116.8580  123.0590 C.2    41  VAL41       0.2287
     25  O         21.0140  118.0880  123.0030 O.2    41  VAL41      -0.2864
     26  CB        20.7720  117.0740  125.5780 C.3    41  VAL41       0.0276
     27  CG1       19.3510  117.6490  125.6110 C.3    41  VAL41       0.0022
     28  CG2       21.0530  116.3280  126.8860 C.3    41  VAL41       0.0022
     29  N         18.8710  119.8510  121.5800 N.3    44  VAL44      -0.1231
     30  CA        19.0340  121.1840  122.1560 C.3    44  VAL44       0.1692
     31  C         20.4580  121.6980  121.9730 C.2    44  VAL44       0.2591
     32  O         20.6840  122.8820  121.7010 O.2    44  VAL44      -0.2718
     33  CB        18.6860  121.1860  123.6720 C.3    44  VAL44       0.0266
     34  CG1       18.9940  122.5400  124.3020 C.3    44  VAL44       0.0020
     35  CG2       17.2250  120.8240  123.8840 C.3    44  VAL44       0.0020
     36  N         21.4190  120.7920  122.1220 N.am   45  VAL45      -0.1980
     37  CA        22.8280  121.1840  122.1560 C.3    45  VAL45       0.1595
     38  C         23.5350  120.9120  120.8320 C.2    45  VAL45       0.2287
     39  O         23.6150  119.7650  120.3960 O.2    45  VAL45      -0.2864
     40  CB        23.5870  120.4500  123.2670 C.3    45  VAL45       0.0276
     41  CG1       25.0770  120.8020  123.2020 C.3    45  VAL45       0.0022
     42  CG2       22.9950  120.7830  124.6260 C.3    45  VAL45       0.0022
     43  N         33.2430  122.5970  130.6980 N.3    62  ARG62      -0.1245
     44  CA        32.7870  122.4360  129.3290 C.3    62  ARG62       0.1563
     45  C         32.1080  123.7200  128.8760 C.2    62  ARG62       0.2260
     46  O         31.4990  124.4420  129.6690 O.2    62  ARG62      -0.2867
     47  CB        31.8300  121.2390  129.1850 C.3    62  ARG62       0.0307
     48  CG        30.5080  121.4340  129.8700 C.3    62  ARG62       0.0489
     49  CD        29.5120  120.3000  129.6140 C.3    62  ARG62       0.2205
     50  NE        28.3380  120.5140  130.4420 N.pl3  62  ARG62      -0.0865
     51  CZ        27.4100  119.6020  130.6990 C.cat  62  ARG62       0.5346
     52  NH1       27.5140  118.3860  130.1900 N.pl3  62  ARG62       0.1354
     53  NH2       26.3810  119.9090  131.4850 N.pl3  62  ARG62       0.1354
     54  N         29.2890  124.5010  125.9980 N.3    64  PHE64      -0.1241
     55  CA        28.4720  123.9660  124.9220 C.3    64  PHE64       0.1605
     56  C         27.5640  125.0410  124.3380 C.2    64  PHE64       0.2264
     57  O         27.2280  126.0310  124.9890 O.2    64  PHE64      -0.2867
     58  CB        27.6980  122.7090  125.3670 C.3    64  PHE64       0.0534
     59  CG        26.6250  122.9230  126.4200 C.ar   64  PHE64      -0.0203
     60  CD1       25.3950  123.4790  126.0930 C.ar   64  PHE64      -0.0042
     61  CD2       26.8090  122.4510  127.7090 C.ar   64  PHE64      -0.0042
     62  CE1       24.3960  123.6300  127.0520 C.ar   64  PHE64      -0.0003
     63  CE2       25.8150  122.6010  128.6760 C.ar   64  PHE64      -0.0003
     64  CZ        24.6080  123.1880  128.3430 C.ar   64  PHE64      -0.0000
     65  N         24.0280  125.9800  122.2710 N.3    66  CYS66      -0.1235
     66  CA        22.6670  125.5570  121.9570 C.3    66  CYS66       0.1677
     67  C         22.1510  126.1980  120.6900 C.2    66  CYS66       0.2270
     68  O         22.4590  127.3590  120.4130 O.2    66  CYS66      -0.2867
     69  CB        21.7210  125.8930  123.0940 C.3    66  CYS66       0.0956
     70  SG        22.0900  125.0040  124.5980 S.3    66  CYS66      -0.0801
     71  N         26.6490  127.7500  127.1970 N.3    78  ASP78      -0.1239
     72  CA        26.7800  127.3960  128.6030 C.3    78  ASP78       0.1674
     73  C         28.2360  127.1380  128.9590 C.2    78  ASP78       0.2266
     74  O         28.9760  126.5580  128.1660 O.2    78  ASP78      -0.2867
     75  CB        25.9650  126.1570  128.9210 C.3    78  ASP78       0.1410
     76  CG        25.8980  125.8650  130.4110 C.2    78  ASP78       0.3668
     77  OD1       25.1420  126.5660  131.1120 O.co2  78  ASP78      -0.2456
     78  OD2       26.5830  124.9300  130.8750 O.co2  78  ASP78      -0.2456
     79  N         27.7690  118.7170  138.6880 N.3    94  TYR94      -0.1241
     80  CA        28.2950  119.8440  137.9440 C.3    94  TYR94       0.1605
     81  C         27.5380  121.1080  138.2760 C.2    94  TYR94       0.2264
     82  O         26.4610  121.0670  138.8690 O.2    94  TYR94      -0.2867
     83  CB        28.2640  119.5580  136.4410 C.3    94  TYR94       0.0534
     84  CG        26.8830  119.2320  135.8940 C.ar   94  TYR94      -0.0201
     85  CD1       26.3500  117.9480  136.0030 C.ar   94  TYR94      -0.0009
     86  CD2       26.1240  120.2090  135.2550 C.ar   94  TYR94      -0.0009
     87  CE1       25.0910  117.6380  135.4810 C.ar   94  TYR94       0.0417
     88  CE2       24.8630  119.9100  134.7320 C.ar   94  TYR94       0.0417
     89  CZ        24.3530  118.6270  134.8540 C.ar   94  TYR94       0.1957
     90  OH        23.1050  118.3140  134.3410 O.3    94  TYR94      -0.2866
     91  N         26.6980  125.3400  136.8370 N.3    96  ILE96      -0.1245
     92  CA        26.8330  126.3500  135.8030 C.3    96  ILE96       0.1561
     93  C         27.7000  127.4900  136.3280 C.2    96  ILE96       0.2260
     94  O         27.4140  128.0910  137.3780 O.2    96  ILE96      -0.2867
     95  CB        25.4630  126.8510  135.3310 C.3    96  ILE96       0.0252
     96  CG1       24.7950  125.7400  134.5090 C.3    96  ILE96       0.0019
     97  CG2       25.6070  128.1450  134.5200 C.3    96  ILE96       0.0019
     98  CD1       23.3630  126.0650  134.0990 C.3    96  ILE96       0.0001
     99  N         22.5730  130.5020  128.6960 N.3   101  ILE101     -0.1245
    100  CA        21.4910  129.5640  128.3990 C.3   101  ILE101      0.1561
    101  C         20.1750  130.0870  128.9380 C.2   101  ILE101      0.2260
    102  O         20.0980  130.5590  130.0680 O.2   101  ILE101     -0.2867
    103  CB        21.7520  128.1640  129.0020 C.3   101  ILE101      0.0252
    104  CG1       22.9940  127.5620  128.3870 C.3   101  ILE101      0.0019
    105  CG2       20.5680  127.2350  128.7480 C.3   101  ILE101      0.0019
    106  CD1       22.9540  127.5100  126.8810 C.3   101  ILE101      0.0001
    107  N         18.3270  128.6410  132.5030 N.3   104  PHE104     -0.1241
    108  CA        19.3670  128.0950  133.3620 C.3   104  PHE104      0.1605
    109  C         20.3710  129.1620  133.8070 C.2   104  PHE104      0.2264
    110  O         20.8320  129.1480  134.9480 O.2   104  PHE104     -0.2867
    111  CB        20.0870  126.9500  132.6480 C.3   104  PHE104      0.0534
    112  CG        19.2960  125.6630  132.6150 C.ar  104  PHE104     -0.0203
    113  CD1       19.4170  124.7350  133.6400 C.ar  104  PHE104     -0.0042
    114  CD2       18.4300  125.3850  131.5580 C.ar  104  PHE104     -0.0042
    115  CE1       18.6830  123.5480  133.6210 C.ar  104  PHE104     -0.0003
    116  CE2       17.6920  124.2030  131.5320 C.ar  104  PHE104     -0.0003
    117  CZ        17.8190  123.2810  132.5660 C.ar  104  PHE104     -0.0000
    118  N         23.3310  127.2380  140.0250 N.3   110  TYR110     -0.1241
    119  CA        22.6750  126.0000  139.6300 C.3   110  TYR110      0.1605
    120  C         23.6740  124.8580  139.7410 C.2   110  TYR110      0.2264
    121  O         24.7320  124.8920  139.1220 O.2   110  TYR110     -0.2867
    122  CB        22.1350  126.1060  138.2090 C.3   110  TYR110      0.0534
    123  CG        21.6690  124.7980  137.5950 C.ar  110  TYR110     -0.0201
    124  CD1       22.5300  124.0080  136.8410 C.ar  110  TYR110     -0.0009
    125  CD2       20.3570  124.3790  137.7360 C.ar  110  TYR110     -0.0009
    126  CE1       22.0980  122.8230  136.2630 C.ar  110  TYR110      0.0417
    127  CE2       19.9080  123.2070  137.1520 C.ar  110  TYR110      0.0417
    128  CZ        20.7800  122.4290  136.4230 C.ar  110  TYR110      0.1957
    129  OH        20.3300  121.2590  135.8420 O.3   110  TYR110     -0.2866
    130  N         18.4270  112.3080  138.7530 N.3   131  TRP131     -0.1241
    131  CA        18.8870  113.6210  138.3080 C.3   131  TRP131      0.1605
    132  C         18.2560  114.6710  139.2070 C.2   131  TRP131      0.2264
    133  O         17.0260  114.7490  139.2990 O.2   131  TRP131     -0.2867
    134  CB        18.4850  113.8670  136.8540 C.3   131  TRP131      0.0550
    135  CG        19.2940  114.8760  136.0940 C.ar  131  TRP131      0.0003
    136  CD1       20.2240  115.7550  136.5840 C.ar  131  TRP131      0.0946
    137  CD2       19.2430  115.0900  134.6820 C.ar  131  TRP131      0.0152
    138  NE1       20.7580  116.4980  135.5520 N.ar  131  TRP131     -0.2442
    139  CE2       20.1680  116.1080  134.3760 C.ar  131  TRP131      0.0810
    140  CE3       18.4960  114.5210  133.6460 C.ar  131  TRP131      0.0012
    141  CZ2       20.3700  116.5660  133.0710 C.ar  131  TRP131      0.0191
    142  CZ3       18.6990  114.9770  132.3530 C.ar  131  TRP131      0.0001
    143  CH2       19.6330  115.9890  132.0790 C.ar  131  TRP131      0.0015
    144  N         13.5920  120.2730  130.3700 N.3   153  LEU153     -0.1231
    145  CA        14.8890  119.9690  129.7750 C.3   153  LEU153      0.1693
    146  C         15.3020  118.5520  130.1400 C.2   153  LEU153      0.2592
    147  O         15.7510  117.7980  129.2770 O.2   153  LEU153     -0.2718
    148  CB        15.9470  120.9800  130.2280 C.3   153  LEU153      0.0284
    149  CG        17.3630  120.9530  129.6410 C.3   153  LEU153      0.0019
    150  CD1       18.2340  119.9250  130.3710 C.3   153  LEU153      0.0001
    151  CD2       17.3550  120.7020  128.1230 C.3   153  LEU153      0.0001
    152  N         15.1680  118.1920  131.4170 N.am  154  TYR154     -0.1976
    153  CA        15.4690  116.8190  131.8500 C.3   154  TYR154      0.1639
    154  C         14.6320  115.8260  131.0400 C.2   154  TYR154      0.2290
    155  O         15.1130  114.7820  130.6280 O.2   154  TYR154     -0.2864
    156  CB        15.1900  116.6250  133.3470 C.3   154  TYR154      0.0560
    157  CG        16.1950  117.2720  134.2790 C.ar  154  TYR154     -0.0198
    158  CD1       17.2240  118.0630  133.7920 C.ar  154  TYR154     -0.0009
    159  CD2       16.1080  117.0840  135.6530 C.ar  154  TYR154     -0.0009
    160  CE1       18.1410  118.6520  134.6480 C.ar  154  TYR154      0.0417
    161  CE2       17.0260  117.6580  136.5130 C.ar  154  TYR154      0.0417
    162  CZ        18.0320  118.4390  136.0050 C.ar  154  TYR154      0.1957
    163  OH        18.9270  119.0270  136.8690 O.3   154  TYR154     -0.2866
@<TRIPOS>BOND
     1    39    38    2
     2    68    67    2
     3    67    66    1
     4    38    37    1
     5    29    30    1
     6    32    31    2
     7    66    65    1
     8    66    69    1
     9    31    36   am
    10    31    30    1
    11    36    37    1
    12    30    33    1
    13    37    40    1
    14    25    24    2
    15    24    23    1
    16    69    70    1
    17    41    40    1
    18    40    42    1
    19    11    10    2
    20     8     9    1
    21    33    35    1
    22    33    34    1
    23    10     9    1
    24    10    22   am
    25    56    55    1
    26    56    57    2
    27     9    12    1
    28    23    22    1
    29    23    26    1
    30     4     3    2
    31     3     2    1
    32    55    58    1
    33    55    54    1
    34    58    59    1
    35    26    27    1
    36    26    28    1
    37     1     2    1
    38    12    13    1
    39     2     5    1
    40    60    59   ar
    41    60    62   ar
    42    59    61   ar
    43    14    13   ar
    44    14    16   ar
    45     6     5    1
    46    13    15   ar
    47   106   104    1
    48    62    64   ar
    49     5     7    1
    50    71    72    1
    51    16    17   ar
    52    61    63   ar
    53   151   149    1
    54    74    73    2
    55    15    17   ar
    56    15    18   ar
    57    64    63   ar
    58   104   103    1
    59   100    99    1
    60   100   101    1
    61   100   103    1
    62    72    75    1
    63    72    73    1
    64    17    19   ar
    65   105   103    1
    66    45    44    1
    67    45    46    2
    68    75    76    1
    69   101   102    2
    70    18    20   ar
    71    47    44    1
    72    47    48    1
    73   147   146    2
    74    44    43    1
    75    49    48    1
    76    49    50    1
    77   149   148    1
    78   149   150    1
    79   145   146    1
    80   145   148    1
    81   145   144    1
    82    19    21   ar
    83   146   152   am
    84    52    51    1
    85    76    78   ar
    86    76    77   ar
    87    50    51    2
    88    20    21   ar
    89   155   154    2
    90    51    53    1
    91   154   153    1
    92   152   153    1
    93   116   114   ar
    94   116   117   ar
    95   114   112   ar
    96   153   156    1
    97   143   142   ar
    98   143   141   ar
    99   142   140   ar
   100   107   108    1
   101   117   115   ar
   102   112   111    1
   103   112   113   ar
   104   111   108    1
   105   141   139   ar
   106   156   157    1
   107   108   109    1
   108   115   113   ar
   109   140   137   ar
   110   158   157   ar
   111   158   160   ar
   112   109   110    2
   113    98    96    1
   114   157   159   ar
   115    90    89    1
   116   139   137   ar
   117   139   138   ar
   118    96    95    1
   119    97    95    1
   120   160   162   ar
   121   137   135   ar
   122    88    89   ar
   123    88    86   ar
   124    89    87   ar
   125    86    84   ar
   126    95    92    1
   127    87    85   ar
   128   138   136   ar
   129   159   161   ar
   130    92    93    1
   131    92    91    1
   132   129   128    1
   133    84    85   ar
   134    84    83    1
   135   162   161   ar
   136   162   163    1
   137   135   136   ar
   138   135   134    1
   139   126   128   ar
   140   126   124   ar
   141    93    94    2
   142   128   127   ar
   143    83    80    1
   144   124   123   ar
   145   134   131    1
   146   127   125   ar
   147   123   125   ar
   148   123   122    1
   149    80    81    1
   150    80    79    1
   151   122   119    1
   152    81    82    2
   153   131   130    1
   154   131   132    1
   155   121   120    2
   156   132   133    2
   157   119   120    1
   158   119   118    1
