@<TRIPOS>MOLECULE
tmp/5e4oB00.pdb
 69 63 0 0 0
SMALL
GASTEIGER

@<TRIPOS>ATOM
      1  N          2.2180   -7.4860  -29.1760 N.3     6  LYS6       -0.1245
      2  CA         2.9970   -6.3200  -29.2270 C.3     6  LYS6        0.1561
      3  C          3.6870   -6.0450  -27.8980 C.2     6  LYS6        0.2260
      4  O          2.9970   -6.1500  -26.8770 O.2     6  LYS6       -0.2867
      5  CB         2.1200   -5.1070  -29.6260 C.3     6  LYS6        0.0271
      6  CG         2.9760   -3.8740  -29.8290 C.3     6  LYS6        0.0035
      7  CD         2.4620   -2.7430  -30.7300 C.3     6  LYS6        0.0206
      8  CE         3.6120   -1.7160  -30.7970 C.3     6  LYS6        0.1093
      9  NZ         3.4350   -0.6730  -31.8260 N.3     6  LYS6       -0.1314
     10  N          6.4240   -3.6810  -25.5680 N.3     8  LEU8       -0.1245
     11  CA         7.0260   -2.3400  -25.4370 C.3     8  LEU8        0.1561
     12  C          7.9050   -2.3290  -24.2160 C.2     8  LEU8        0.2260
     13  O          7.6350   -2.9900  -23.2560 O.2     8  LEU8       -0.2867
     14  CB         5.9570   -1.2250  -25.3330 C.3     8  LEU8        0.0270
     15  CG         5.0460   -1.0810  -26.5370 C.3     8  LEU8        0.0019
     16  CD1        4.0500   -0.0980  -26.1840 C.3     8  LEU8        0.0001
     17  CD2        5.8500   -0.6680  -27.7590 C.3     8  LEU8        0.0001
     18  N         -5.3110   -8.4690  -30.1620 N.3    97  THR97      -0.1218
     19  CA        -3.9930   -7.9760  -29.9810 C.3    97  THR97       0.1862
     20  C         -3.6780   -8.0250  -28.5060 C.2    97  THR97       0.2287
     21  O         -4.4310   -7.4660  -27.7200 O.2    97  THR97      -0.2866
     22  CB        -3.8170   -6.5400  -30.4290 C.3    97  THR97       0.1770
     23  OG1       -4.0490   -6.5560  -31.8590 O.3    97  THR97      -0.2211
     24  CG2       -2.4140   -6.1050  -30.1990 C.3    97  THR97       0.0375
     25  N         -1.0900   -6.8630  -25.8750 N.3    99  ALA99      -0.1231
     26  CA         0.0100   -5.9500  -25.6940 C.3    99  ALA99       0.1694
     27  C          0.6140   -6.0280  -24.3040 C.2    99  ALA99       0.2592
     28  O         -0.1020   -6.3030  -23.3550 O.2    99  ALA99      -0.2718
     29  CB        -0.4650   -4.5770  -25.9500 C.3    99  ALA99       0.0304
     30  N          1.9210   -5.8520  -24.2230 N.am  100  ALA100     -0.1966
     31  CA         2.6170   -5.8900  -22.9570 C.3   100  ALA100      0.1728
     32  C          3.5880   -4.7300  -22.8730 C.2   100  ALA100      0.2616
     33  O          4.3210   -4.4800  -23.8160 O.2   100  ALA100     -0.2715
     34  CB         3.3510   -7.2070  -22.8010 C.3   100  ALA100      0.0334
     35  N          3.5900   -4.0380  -21.7400 N.am  101  LEU101     -0.1977
     36  CA         4.4960   -2.9240  -21.4950 C.3   101  LEU101      0.1596
     37  C          5.3970   -3.4480  -20.3940 C.2   101  LEU101      0.2287
     38  O          4.9220   -3.7920  -19.3300 O.2   101  LEU101     -0.2864
     39  CB         3.7190   -1.7020  -21.0220 C.3   101  LEU101      0.0297
     40  CG         4.5330   -0.4590  -20.6690 C.3   101  LEU101      0.0022
     41  CD1        5.4020   -0.0190  -21.8370 C.3   101  LEU101      0.0001
     42  CD2        3.6110    0.6650  -20.2290 C.3   101  LEU101      0.0001
     43  N          2.5140   -4.6210  -17.5510 N.3   108  SER108     -0.1202
     44  CA         1.1470   -4.3910  -17.7640 C.3   108  SER108      0.2020
     45  C          0.7670   -5.1750  -19.0180 C.2   108  SER108      0.2619
     46  O          1.5670   -5.2170  -19.9760 O.2   108  SER108     -0.2717
     47  CB         0.8740   -2.9410  -18.0680 C.3   108  SER108      0.2103
     48  OG         1.1950   -2.1470  -16.8600 O.3   108  SER108     -0.2182
     49  N         -0.4290   -5.6900  -19.0910 N.am  109  THR109     -0.1938
     50  CA        -0.8560   -6.2920  -20.2960 C.3   109  THR109      0.2028
     51  C         -2.2470   -5.8840  -20.5670 C.2   109  THR109      0.2642
     52  O         -3.0440   -5.6970  -19.6200 O.2   109  THR109     -0.2714
     53  CB        -0.6500   -7.7500  -20.2580 C.3   109  THR109      0.1808
     54  OG1       -0.9260   -8.2740  -21.5670 O.3   109  THR109     -0.2208
     55  CG2       -1.5190   -8.5360  -19.2480 C.3   109  THR109      0.0379
     56  N         -2.5880   -5.7320  -21.8300 N.am  110  THR110     -0.1950
     57  CA        -3.9740   -5.4220  -22.2110 C.3   110  THR110      0.1897
     58  C         -4.3070   -6.1790  -23.4590 C.2   110  THR110      0.2313
     59  O         -3.4090   -6.6530  -24.1510 O.2   110  THR110     -0.2863
     60  CB        -4.2720   -3.8920  -22.4060 C.3   110  THR110      0.1794
     61  OG1       -5.7310   -3.6590  -22.4110 O.3   110  THR110     -0.2208
     62  CG2       -3.7200   -3.3590  -23.5830 C.3   110  THR110      0.0378
     63  N         -6.7540   -5.9460  -26.9310 N.3   112  VAL112     -0.1245
     64  CA        -7.5320   -5.0650  -27.7610 C.3   112  VAL112      0.1561
     65  C         -8.2250   -6.0360  -28.6990 C.2   112  VAL112      0.2260
     66  O         -7.5730   -6.6970  -29.4910 O.2   112  VAL112     -0.2867
     67  CB        -6.6460   -4.0750  -28.5280 C.3   112  VAL112      0.0252
     68  CG1       -7.4950   -3.1550  -29.3890 C.3   112  VAL112      0.0019
     69  CG2       -5.8100   -3.2670  -27.5520 C.3   112  VAL112      0.0019
@<TRIPOS>BOND
     1    23    22    1
     2     9     8    1
     3     8     7    1
     4     7     6    1
     5    22    24    1
     6    22    19    1
     7    18    19    1
     8    19    20    1
     9     6     5    1
    10     5     2    1
    11    66    65    2
    12    68    67    1
    13     2     1    1
    14     2     3    1
    15    65    64    1
    16    67    64    1
    17    67    69    1
    18    20    21    2
    19     3     4    2
    20    64    63    1
    21    17    15    1
    22    15    16    1
    23    15    14    1
    24    29    26    1
    25    25    26    1
    26    26    27    1
    27    10    11    1
    28    11    14    1
    29    11    12    1
    30    27    30   am
    31    27    28    2
    32    30    31    1
    33    12    13    2
    34    59    58    2
    35    33    32    2
    36    62    60    1
    37    58    57    1
    38    31    32    1
    39    31    34    1
    40    32    35   am
    41    61    60    1
    42    60    57    1
    43    57    56    1
    44    41    40    1
    45    56    51   am
    46    35    36    1
    47    54    53    1
    48    36    39    1
    49    36    37    1
    50    39    40    1
    51    40    42    1
    52    51    50    1
    53    51    52    2
    54    37    38    2
    55    50    53    1
    56    50    49    1
    57    53    55    1
    58    46    45    2
    59    49    45   am
    60    45    44    1
    61    47    44    1
    62    47    48    1
    63    44    43    1
