@<TRIPOS>MOLECULE
tmp/5e4rA01.pdb
 115 106 0 0 0
SMALL
GASTEIGER

@<TRIPOS>ATOM
      1  N         11.8690   44.3550    5.5250 N.3    27  GLN27      -0.1245
      2  CA        12.1970   43.0130    5.9180 C.3    27  GLN27       0.1566
      3  C         11.0260   42.3570    6.6180 C.2    27  GLN27       0.2260
      4  O         10.8090   41.1520    6.4700 O.2    27  GLN27      -0.2867
      5  CB        13.4680   42.9680    6.8040 C.3    27  GLN27       0.0367
      6  CG        14.7560   43.3540    6.0270 C.3    27  GLN27       0.0905
      7  CD        15.2760   42.2390    5.1270 C.2    27  GLN27       0.2608
      8  OE1       15.0940   41.0690    5.4050 O.2    27  GLN27      -0.2717
      9  NE2       15.9450   42.6210    4.0380 N.am   27  GLN27      -0.0878
     10  N         20.2430   42.8530   11.4740 N.3   107  HIS107     -0.1241
     11  CA        21.4670   43.6690   11.2580 C.3   107  HIS107      0.1621
     12  C         22.0840   43.8090   12.6460 C.2   107  HIS107      0.2264
     13  O         21.3410   43.9470   13.6510 O.2   107  HIS107     -0.2867
     14  CB        21.0490   45.0540   10.7130 C.3   107  HIS107      0.0745
     15  CG        22.1820   46.0140   10.5090 C.ar  107  HIS107      0.0817
     16  ND1       23.4160   45.6300   10.0240 N.ar  107  HIS107     -0.2268
     17  CD2       22.2100   47.3700   10.5710 C.ar  107  HIS107      0.1154
     18  CE1       24.1830   46.7040    9.8830 C.ar  107  HIS107      0.1986
     19  NE2       23.4660   47.7700   10.1940 N.ar  107  HIS107     -0.2212
     20  N         20.1320   41.1440    0.8000 N.3   131  SER131     -0.1203
     21  CA        19.1020   41.4770   -0.2070 C.3   131  SER131      0.2005
     22  C         18.2150   42.5590    0.3860 C.2   131  SER131      0.2465
     23  O         17.8980   42.5020    1.5880 O.2   131  SER131     -0.2732
     24  CB        18.2370   40.2320   -0.5070 C.3   131  SER131      0.2103
     25  OG        17.1770   40.5450   -1.3670 O.3   131  SER131     -0.2182
     26  N         17.7130   43.4510   -0.4470 N.am  132  PRO132     -0.2653
     27  CA        16.5690   44.2700   -0.0830 C.3   132  PRO132      0.1628
     28  C         15.3980   43.4530    0.3000 C.2   132  PRO132      0.2315
     29  O         15.1550   42.3800   -0.2910 O.2   132  PRO132     -0.2861
     30  CB        16.2440   45.0620   -1.3620 C.2   132  PRO132     -0.0016
     31  CG        17.2470   44.7390   -2.3350 C.2   132  PRO132     -0.0072
     32  CD        18.1300   43.6450   -1.8370 C.3   132  PRO132      0.1203
     33  N         28.2320   45.1810    6.2120 N.3   190  ASP190     -0.1239
     34  CA        26.9160   45.6180    5.7490 C.3   190  ASP190      0.1674
     35  C         26.8500   47.1480    5.5400 C.2   190  ASP190      0.2266
     36  O         26.4360   47.6380    4.4770 O.2   190  ASP190     -0.2867
     37  CB        25.8190   45.1860    6.7190 C.3   190  ASP190      0.1410
     38  CG        24.4120   45.4580    6.1610 C.2   190  ASP190      0.3668
     39  OD1       23.9640   44.6710    5.3300 O.co2 190  ASP190     -0.2456
     40  OD2       23.8680   46.5110    6.4020 O.co2 190  ASP190     -0.2456
     41  N         26.5460   48.9160    1.6610 N.3   194  GLU194     -0.1245
     42  CA        25.4880   49.8250    1.2940 C.3   194  GLU194      0.1567
     43  C         25.9770   51.2440    1.0180 C.2   194  GLU194      0.2260
     44  O         25.5250   51.8850    0.0590 O.2   194  GLU194     -0.2867
     45  CB        24.3330   49.7940    2.2900 C.3   194  GLU194      0.0388
     46  CG        24.6640   50.3580    3.6320 C.3   194  GLU194      0.1160
     47  CD        23.7810   49.8270    4.7550 C.2   194  GLU194      0.3649
     48  OE1       23.2420   48.6940    4.6430 O.co2 194  GLU194     -0.2457
     49  OE2       23.6930   50.5260    5.7850 O.co2 194  GLU194     -0.2457
     50  N         26.2980   49.4130   -2.9180 N.3   198  LEU198     -0.1231
     51  CA        24.9050   48.9470   -3.1200 C.3   198  LEU198      0.1693
     52  C         23.8810   50.0740   -3.1570 C.2   198  LEU198      0.2591
     53  O         22.8740   49.9770   -3.8640 O.2   198  LEU198     -0.2718
     54  CB        24.4870   47.9100   -2.0720 C.3   198  LEU198      0.0284
     55  CG        25.3290   46.6710   -1.9720 C.3   198  LEU198      0.0019
     56  CD1       24.8180   45.8030   -0.8400 C.3   198  LEU198      0.0001
     57  CD2       25.4240   45.8870   -3.3350 C.3   198  LEU198      0.0001
     58  N         24.0720   51.1110   -2.3490 N.am  199  VAL199     -0.1980
     59  CA        23.1960   52.2600   -2.4000 C.3   199  VAL199      0.1595
     60  C         23.9360   53.5040   -2.8800 C.2   199  VAL199      0.2287
     61  O         23.5920   54.0700   -3.9200 O.2   199  VAL199     -0.2864
     62  CB        22.4790   52.5300   -1.0300 C.3   199  VAL199      0.0276
     63  CG1       21.4570   53.6990   -1.1640 C.3   199  VAL199      0.0022
     64  CG2       21.7660   51.2750   -0.5510 C.3   199  VAL199      0.0022
     65  N         28.0060   40.5070   -0.2970 N.3   364  GLU364     -0.1245
     66  CA        27.7290   41.9150   -0.0420 C.3   364  GLU364      0.1567
     67  C         28.0030   42.8070   -1.2940 C.2   364  GLU364      0.2260
     68  O         27.1690   43.6140   -1.6770 O.2   364  GLU364     -0.2867
     69  CB        28.5940   42.3810    1.1260 C.3   364  GLU364      0.0388
     70  CG        28.4290   43.8510    1.4860 C.3   364  GLU364      0.1160
     71  CD        27.0760   44.1600    2.1540 C.2   364  GLU364      0.3649
     72  OE1       26.5950   43.2850    2.9400 O.co2 364  GLU364     -0.2457
     73  OE2       26.5240   45.3250    1.9470 O.co2 364  GLU364     -0.2457
     74  N         24.7770   40.9260   -4.2420 N.3   368  GLU368     -0.1245
     75  CA        23.6460   41.7160   -3.8790 C.3   368  GLU368      0.1567
     76  C         23.4100   42.8760   -4.8640 C.2   368  GLU368      0.2260
     77  O         22.2990   43.3560   -4.9860 O.2   368  GLU368     -0.2867
     78  CB        23.7660   42.2480   -2.4730 C.3   368  GLU368      0.0388
     79  CG        22.5120   42.9900   -2.0390 C.3   368  GLU368      0.1160
     80  CD        22.4180   43.2460   -0.5170 C.2   368  GLU368      0.3649
     81  OE1       23.2880   42.7270    0.2830 O.co2 368  GLU368     -0.2457
     82  OE2       21.3690   43.8850   -0.0960 O.co2 368  GLU368     -0.2457
     83  N         19.8760   44.6390   -6.2620 N.3   372  ILE372     -0.1245
     84  CA        19.6630   46.0850   -6.2330 C.3   372  ILE372      0.1561
     85  C         19.3810   46.6370   -7.6420 C.2   372  ILE372      0.2260
     86  O         18.4510   47.4460   -7.8430 O.2   372  ILE372     -0.2867
     87  CB        20.9180   46.7940   -5.6470 C.3   372  ILE372      0.0252
     88  CG1       20.9930   46.5650   -4.1590 C.3   372  ILE372      0.0019
     89  CG2       20.8990   48.2530   -5.9310 C.3   372  ILE372      0.0019
     90  CD1       19.8820   47.2570   -3.3950 C.3   372  ILE372      0.0001
     91  N         15.3140   50.0110    0.8130 N.3   388  VAL388     -0.1231
     92  CA        16.4640   49.8100    1.7030 C.3   388  VAL388      0.1692
     93  C         16.2130   50.4870    3.0700 C.2   388  VAL388      0.2592
     94  O         15.3160   51.3430    3.2010 O.2   388  VAL388     -0.2718
     95  CB        17.7900   50.3190    1.0740 C.3   388  VAL388      0.0266
     96  CG1       17.9720   49.7650   -0.3070 C.3   388  VAL388      0.0020
     97  CG2       17.8460   51.8330    1.0400 C.3   388  VAL388      0.0020
     98  N         17.0000   50.1160    4.0650 N.am  389  SER389     -0.1952
     99  CA        16.7830   50.5940    5.4130 C.3   389  SER389      0.1924
    100  C         17.0480   52.1020    5.4830 C.2   389  SER389      0.2314
    101  O         17.8030   52.6380    4.7000 O.2   389  SER389     -0.2863
    102  CB        17.6770   49.8600    6.4050 C.3   389  SER389      0.2116
    103  OG        19.0460   50.2300    6.2400 O.3   389  SER389     -0.2180
    104  N         19.0220   53.3400    7.6630 N.3   391  THR391     -0.1203
    105  CA        20.4420   53.3600    7.8640 C.3   391  THR391      0.1994
    106  C         21.1790   53.3950    6.5300 C.2   391  THR391      0.2617
    107  O         22.0920   54.2170    6.3340 O.2   391  THR391     -0.2717
    108  CB        20.8900   52.1660    8.6980 C.3   391  THR391      0.1784
    109  OG1       20.1790   52.1860    9.9660 O.3   391  THR391     -0.2211
    110  CG2       22.3500   52.2150    8.9630 C.3   391  THR391      0.0376
    111  N         20.7110   52.5960    5.5790 N.am  392  ALA392     -0.1979
    112  CA        21.3410   52.5220    4.2650 C.3   392  ALA392      0.1597
    113  C         21.0420   53.7780    3.4350 C.2   392  ALA392      0.2287
    114  O         21.8830   54.2190    2.6680 O.2   392  ALA392     -0.2864
    115  CB        20.8700   51.2920    3.5270 C.3   392  ALA392      0.0319
@<TRIPOS>BOND
     1    86    85    2
     2    85    84    1
     3    83    84    1
     4    84    87    1
     5    89    87    1
     6    87    88    1
     7    77    76    2
     8    76    75    1
     9    74    75    1
    10    88    90    1
    11    61    60    2
    12    75    78    1
    13    53    52    2
    14    57    55    1
    15    52    51    1
    16    52    58   am
    17    51    50    1
    18    51    54    1
    19    60    59    1
    20    78    79    1
    21    59    58    1
    22    59    62    1
    23    31    32    1
    24    31    30    2
    25    54    55    1
    26    79    80    1
    27    55    56    1
    28    32    26    1
    29    68    67    2
    30    25    24    1
    31    30    27    1
    32    67    66    1
    33    63    62    1
    34    62    64    1
    35    80    82   ar
    36    80    81   ar
    37    24    21    1
    38    26    27    1
    39    26    22   am
    40    96    95    1
    41    65    66    1
    42    29    28    2
    43    21    22    1
    44    21    20    1
    45    27    28    1
    46    66    69    1
    47    44    43    2
    48    22    23    2
    49    91    92    1
    50    43    42    1
    51    97    95    1
    52    95    92    1
    53    69    70    1
    54    42    41    1
    55    42    45    1
    56    70    71    1
    57    92    93    1
    58    73    71   ar
    59    71    72   ar
    60    45    46    1
    61   114   113    2
    62    93    94    2
    63    93    98   am
    64   113   112    1
    65   115   112    1
    66    46    47    1
    67     9     7   am
    68    98    99    1
    69   112   111    1
    70    36    35    2
    71    48    47   ar
    72   101   100    2
    73    47    49   ar
    74     7     8    2
    75     7     6    1
    76    39    38   ar
    77    99   100    1
    78    99   102    1
    79     1     2    1
    80    35    34    1
    81   111   106   am
    82    34    33    1
    83    34    37    1
    84     2     3    1
    85     2     5    1
    86     6     5    1
    87    38    40   ar
    88    38    37    1
    89   103   102    1
    90   107   106    2
    91     4     3    2
    92   106   105    1
    93   104   105    1
    94   105   108    1
    95   108   110    1
    96   108   109    1
    97    18    16   ar
    98    18    19   ar
    99    16    15   ar
   100    19    17   ar
   101    15    17   ar
   102    15    14    1
   103    14    11    1
   104    11    10    1
   105    11    12    1
   106    12    13    2
