@<TRIPOS>MOLECULE
tmp/5e4tA06.pdb
 135 134 0 0 0
SMALL
GASTEIGER

@<TRIPOS>ATOM
      1  N         -7.5060   63.5880   66.4260 N.3    67  TYR67      -0.1241
      2  CA        -7.0740   63.8540   67.7870 C.3    67  TYR67       0.1605
      3  C         -6.4980   65.2640   67.8460 C.2    67  TYR67       0.2264
      4  O         -5.7520   65.6770   66.9590 O.2    67  TYR67      -0.2867
      5  CB        -6.0200   62.8410   68.2350 C.3    67  TYR67       0.0534
      6  CG        -5.4460   63.1560   69.5950 C.ar   67  TYR67      -0.0201
      7  CD1       -6.1100   62.7740   70.7550 C.ar   67  TYR67      -0.0009
      8  CD2       -4.2440   63.8510   69.7220 C.ar   67  TYR67      -0.0009
      9  CE1       -5.5910   63.0730   72.0040 C.ar   67  TYR67       0.0417
     10  CE2       -3.7220   64.1600   70.9630 C.ar   67  TYR67       0.0417
     11  CZ        -4.3920   63.7660   72.1040 C.ar   67  TYR67       0.1957
     12  OH        -3.8690   64.0740   73.3480 O.3    67  TYR67      -0.2866
     13  N         -4.2740   67.8420   70.0830 N.3    69  ASP69      -0.1239
     14  CA        -3.2780   67.9220   71.1430 C.3    69  ASP69       0.1674
     15  C         -3.6920   68.9910   72.1490 C.2    69  ASP69       0.2266
     16  O         -3.8420   70.1530   71.7900 O.2    69  ASP69      -0.2867
     17  CB        -1.9060   68.2480   70.5420 C.3    69  ASP69       0.1410
     18  CG        -0.8240   68.4320   71.5900 C.2    69  ASP69       0.3668
     19  OD1       -1.0200   68.0490   72.7610 O.co2  69  ASP69      -0.2456
     20  OD2        0.2410   68.9630   71.2300 O.co2  69  ASP69      -0.2456
     21  N         -1.9760   68.8700   75.2850 N.3    71  GLN71      -0.1245
     22  CA        -0.9200   68.6730   76.2680 C.3    71  GLN71       0.1566
     23  C         -0.4440   70.0130   76.8600 C.2    71  GLN71       0.2260
     24  O         -0.1120   70.0750   78.0370 O.2    71  GLN71      -0.2867
     25  CB         0.2410   67.8840   75.6410 C.3    71  GLN71       0.0367
     26  CG         1.4350   67.6080   76.5510 C.3    71  GLN71       0.0905
     27  CD         1.0790   66.8370   77.8100 C.2    71  GLN71       0.2608
     28  OE1        0.1170   66.0750   77.8400 O.2    71  GLN71      -0.2717
     29  NE2        1.8640   67.0360   78.8620 N.am   71  GLN71      -0.0878
     30  N         -2.2680   60.5240   61.8880 N.3   118  TYR118     -0.1241
     31  CA        -3.3690   60.6350   62.8430 C.3   118  TYR118      0.1605
     32  C         -3.9160   62.0660   62.9480 C.2   118  TYR118      0.2264
     33  O         -4.9360   62.2990   63.6000 O.2   118  TYR118     -0.2867
     34  CB        -2.9390   60.1290   64.2280 C.3   118  TYR118      0.0534
     35  CG        -2.0100   61.0470   64.9870 C.ar  118  TYR118     -0.0201
     36  CD1       -2.5140   62.0630   65.8000 C.ar  118  TYR118     -0.0009
     37  CD2       -0.6300   60.8980   64.9030 C.ar  118  TYR118     -0.0009
     38  CE1       -1.6670   62.9040   66.5060 C.ar  118  TYR118      0.0417
     39  CE2        0.2230   61.7340   65.6010 C.ar  118  TYR118      0.0417
     40  CZ        -0.3010   62.7330   66.4020 C.ar  118  TYR118      0.1957
     41  OH         0.5440   63.5630   67.0930 O.3   118  TYR118     -0.2866
     42  N        -11.3890   58.9960   70.7420 N.3   273  ASP273     -0.1239
     43  CA       -11.1910   58.8080   72.1870 C.3   273  ASP273      0.1674
     44  C        -10.4610   57.5230   72.6000 C.2   273  ASP273      0.2266
     45  O         -9.8460   57.4900   73.6650 O.2   273  ASP273     -0.2867
     46  CB       -12.5380   58.8790   72.9260 C.3   273  ASP273      0.1410
     47  CG       -13.0580   60.3070   73.0780 C.2   273  ASP273      0.3668
     48  OD1      -12.3030   61.2740   72.8060 O.co2 273  ASP273     -0.2456
     49  OD2      -14.2310   60.4600   73.4710 O.co2 273  ASP273     -0.2456
     50  N         -5.6530   55.5980   70.5900 N.3   276  TRP276     -0.1227
     51  CA        -4.3050   55.3220   71.0850 C.3   276  TRP276      0.1737
     52  C         -4.2160   54.0400   71.9140 C.2   276  TRP276      0.2595
     53  O         -3.1190   53.6200   72.2820 O.2   276  TRP276     -0.2718
     54  CB        -3.7950   56.4980   71.9220 C.3   276  TRP276      0.0564
     55  CG        -3.5920   57.7480   71.1380 C.ar  276  TRP276      0.0003
     56  CD1       -4.4730   58.7790   71.0020 C.ar  276  TRP276      0.0946
     57  CD2       -2.4290   58.1110   70.3810 C.ar  276  TRP276      0.0152
     58  NE1       -3.9350   59.7590   70.2020 N.ar  276  TRP276     -0.2442
     59  CE2       -2.6810   59.3750   69.8100 C.ar  276  TRP276      0.0810
     60  CE3       -1.2030   57.4880   70.1270 C.ar  276  TRP276      0.0012
     61  CZ2       -1.7500   60.0330   69.0020 C.ar  276  TRP276      0.0191
     62  CZ3       -0.2720   58.1450   69.3210 C.ar  276  TRP276      0.0001
     63  CH2       -0.5540   59.4020   68.7700 C.ar  276  TRP276      0.0015
     64  N         -5.3550   53.4200   72.2150 N.am  277  ASN277     -0.1974
     65  CA        -5.3700   52.1880   73.0030 C.3   277  ASN277      0.1688
     66  C         -4.9740   50.9330   72.2190 C.2   277  ASN277      0.2292
     67  O         -4.7300   49.8910   72.8190 O.2   277  ASN277     -0.2864
     68  CB        -6.7530   51.9750   73.6270 C.3   277  ASN277      0.1181
     69  CG        -7.1550   53.0940   74.5770 C.2   277  ASN277      0.2629
     70  OD1       -6.3090   53.8470   75.0650 O.2   277  ASN277     -0.2716
     71  ND2       -8.4540   53.1980   74.8550 N.am  277  ASN277     -0.0877
     72  N          7.1260   55.4150   71.7990 N.3   284  ILE284     -0.1231
     73  CA         7.0260   56.7770   71.2870 C.3   284  ILE284      0.1692
     74  C          7.2770   56.7240   69.7900 C.2   284  ILE284      0.2592
     75  O          7.8730   55.7730   69.2890 O.2   284  ILE284     -0.2718
     76  CB         8.0100   57.7510   71.9720 C.3   284  ILE284      0.0266
     77  CG1        9.4630   57.2800   71.8380 C.3   284  ILE284      0.0019
     78  CG2        7.6640   57.8950   73.4400 C.3   284  ILE284      0.0020
     79  CD1       10.4700   58.2460   72.4320 C.3   284  ILE284      0.0001
     80  N          6.8020   57.7420   69.0840 N.am  285  PHE285     -0.1976
     81  CA         6.9000   57.8040   67.6280 C.3   285  PHE285      0.1639
     82  C          6.2290   56.5880   66.9800 C.2   285  PHE285      0.2290
     83  O          6.7570   56.0060   66.0330 O.2   285  PHE285     -0.2864
     84  CB         8.3680   57.9250   67.1890 C.3   285  PHE285      0.0560
     85  CG         8.5860   58.8820   66.0450 C.ar  285  PHE285     -0.0200
     86  CD1        7.7390   58.8880   64.9380 C.ar  285  PHE285     -0.0042
     87  CD2        9.6450   59.7790   66.0720 C.ar  285  PHE285     -0.0042
     88  CE1        7.9420   59.7790   63.8970 C.ar  285  PHE285     -0.0003
     89  CE2        9.8520   60.6600   65.0310 C.ar  285  PHE285     -0.0003
     90  CZ         9.0020   60.6570   63.9390 C.ar  285  PHE285     -0.0000
     91  N          2.1090   55.3580   65.8170 N.3   287  PHE287     -0.1241
     92  CA         0.7640   55.8650   65.5960 C.3   287  PHE287      0.1605
     93  C         -0.1250   54.7020   65.1760 C.2   287  PHE287      0.2264
     94  O          0.3310   53.7530   64.5370 O.2   287  PHE287     -0.2867
     95  CB         0.7950   56.9660   64.5300 C.3   287  PHE287      0.0534
     96  CG         1.9450   57.9250   64.6910 C.ar  287  PHE287     -0.0203
     97  CD1        2.0280   58.7490   65.8090 C.ar  287  PHE287     -0.0042
     98  CD2        2.9600   57.9880   63.7440 C.ar  287  PHE287     -0.0042
     99  CE1        3.0910   59.6240   65.9710 C.ar  287  PHE287     -0.0003
    100  CE2        4.0280   58.8650   63.9000 C.ar  287  PHE287     -0.0003
    101  CZ         4.0920   59.6850   65.0140 C.ar  287  PHE287     -0.0000
    102  N         10.6260   66.2860   70.0330 N.3   327  PHE327     -0.1227
    103  CA         9.1730   66.4230   70.2020 C.3   327  PHE327      0.1736
    104  C          8.5580   65.1810   70.8500 C.2   327  PHE327      0.2595
    105  O          7.6980   65.2680   71.7350 O.2   327  PHE327     -0.2718
    106  CB         8.4960   66.6420   68.8410 C.3   327  PHE327      0.0547
    107  CG         7.5420   67.8030   68.8090 C.ar  327  PHE327     -0.0202
    108  CD1        6.5640   67.9510   69.7800 C.ar  327  PHE327     -0.0042
    109  CD2        7.6120   68.7440   67.7850 C.ar  327  PHE327     -0.0042
    110  CE1        5.6820   69.0180   69.7400 C.ar  327  PHE327     -0.0003
    111  CE2        6.7340   69.8150   67.7400 C.ar  327  PHE327     -0.0003
    112  CZ         5.7670   69.9520   68.7200 C.ar  327  PHE327     -0.0000
    113  N          9.0250   64.0220   70.4030 N.am  328  PHE328     -0.1976
    114  CA         8.4270   62.7430   70.7580 C.3   328  PHE328      0.1639
    115  C          8.9120   62.2420   72.1070 C.2   328  PHE328      0.2290
    116  O          8.2500   61.4230   72.7320 O.2   328  PHE328     -0.2864
    117  CB         8.7120   61.7300   69.6500 C.3   328  PHE328      0.0560
    118  CG         8.1900   62.1680   68.3190 C.ar  328  PHE328     -0.0200
    119  CD1        8.9700   62.9470   67.4740 C.ar  328  PHE328     -0.0042
    120  CD2        6.8920   61.8670   67.9420 C.ar  328  PHE328     -0.0042
    121  CE1        8.4750   63.3880   66.2640 C.ar  328  PHE328     -0.0003
    122  CE2        6.3930   62.3030   66.7330 C.ar  328  PHE328     -0.0003
    123  CZ         7.1860   63.0620   65.8920 C.ar  328  PHE328     -0.0000
    124  N          6.6900   64.3270   74.6490 N.3   331  TYR331     -0.1241
    125  CA         5.3570   63.7250   74.7620 C.3   331  TYR331      0.1605
    126  C          5.4060   62.2400   75.1510 C.2   331  TYR331      0.2264
    127  O          4.9540   61.3840   74.3920 O.2   331  TYR331     -0.2867
    128  CB         4.6030   63.8720   73.4270 C.3   331  TYR331      0.0534
    129  CG         4.0280   65.2420   73.1750 C.ar  331  TYR331     -0.0201
    130  CD1        4.8550   66.3470   73.0010 C.ar  331  TYR331     -0.0009
    131  CD2        2.6510   65.4370   73.0990 C.ar  331  TYR331     -0.0009
    132  CE1        4.3310   67.6060   72.7730 C.ar  331  TYR331      0.0417
    133  CE2        2.1160   66.6920   72.8670 C.ar  331  TYR331      0.0417
    134  CZ         2.9580   67.7760   72.7040 C.ar  331  TYR331      0.1957
    135  OH         2.4410   69.0330   72.4760 O.3   331  TYR331     -0.2866
@<TRIPOS>BOND
     1    30    31    1
     2    31    32    1
     3    31    34    1
     4    32    33    2
     5    98   100   ar
     6    98    96   ar
     7    88    90   ar
     8    88    86   ar
     9   100   101   ar
    10    90    89   ar
    11    34    35    1
    12    95    96    1
    13    95    92    1
    14    94    93    2
    15    96    97   ar
    16    37    35   ar
    17    37    39   ar
    18    86    85   ar
    19    35    36   ar
    20   101    99   ar
    21    89    87   ar
    22    93    92    1
    23    92    91    1
    24    39    40   ar
    25    36    38   ar
    26    97    99   ar
    27   123   121   ar
    28   123   122   ar
    29    83    82    2
    30    85    87   ar
    31    85    84    1
    32   121   119   ar
    33    40    38   ar
    34    40    41    1
    35     1     2    1
    36   122   120   ar
    37     4     3    2
    38    82    81    1
    39    84    81    1
    40   119   118   ar
    41    81    80    1
    42   111   109   ar
    43   111   112   ar
    44   109   107   ar
    45     2     3    1
    46     2     5    1
    47   120   118   ar
    48     5     6    1
    49   118   117    1
    50   112   110   ar
    51    63    61   ar
    52    63    62   ar
    53   107   106    1
    54   107   108   ar
    55   106   103    1
    56    61    59   ar
    57    80    74   am
    58    75    74    2
    59    62    60   ar
    60     6     8   ar
    61     6     7   ar
    62   117   114    1
    63     8    10   ar
    64   110   108   ar
    65    74    73    1
    66    59    58   ar
    67    59    57   ar
    68   102   103    1
    69    13    14    1
    70    60    57   ar
    71   103   104    1
    72    58    56   ar
    73    57    55   ar
    74   113   114    1
    75   113   104   am
    76    17    14    1
    77    17    18    1
    78    50    51    1
    79    42    43    1
    80     7     9   ar
    81   114   115    1
    82   104   105    2
    83    10    11   ar
    84    56    55   ar
    85    51    52    1
    86    51    54    1
    87    55    54    1
    88    14    15    1
    89    20    18   ar
    90    73    72    1
    91    73    76    1
    92    18    19   ar
    93    16    15    2
    94    77    76    1
    95    77    79    1
    96    52    64   am
    97    52    53    2
    98    76    78    1
    99     9    11   ar
   100    11    12    1
   101   115   116    2
   102    43    44    1
   103    43    46    1
   104    64    65    1
   105    66    67    2
   106    66    65    1
   107   135   134    1
   108    44    45    2
   109   134   132   ar
   110   134   133   ar
   111   132   130   ar
   112    48    47   ar
   113   133   131   ar
   114    46    47    1
   115   130   129   ar
   116    65    68    1
   117    47    49   ar
   118   131   129   ar
   119   129   128    1
   120   128   125    1
   121    68    69    1
   122   127   126    2
   123    69    71   am
   124    69    70    2
   125   124   125    1
   126   125   126    1
   127    21    22    1
   128    25    22    1
   129    25    26    1
   130    22    23    1
   131    26    27    1
   132    23    24    2
   133    27    28    2
   134    27    29   am
