@<TRIPOS>MOLECULE
tmp/5e4tA05.pdb
 105 103 0 0 0
SMALL
GASTEIGER

@<TRIPOS>ATOM
      1  N         -5.6530   55.5980   70.5900 N.3   276  TRP276     -0.1227
      2  CA        -4.3050   55.3220   71.0850 C.3   276  TRP276      0.1737
      3  C         -4.2160   54.0400   71.9140 C.2   276  TRP276      0.2595
      4  O         -3.1190   53.6200   72.2820 O.2   276  TRP276     -0.2718
      5  CB        -3.7950   56.4980   71.9220 C.3   276  TRP276      0.0564
      6  CG        -3.5920   57.7480   71.1380 C.ar  276  TRP276      0.0003
      7  CD1       -4.4730   58.7790   71.0020 C.ar  276  TRP276      0.0946
      8  CD2       -2.4290   58.1110   70.3810 C.ar  276  TRP276      0.0152
      9  NE1       -3.9350   59.7590   70.2020 N.ar  276  TRP276     -0.2442
     10  CE2       -2.6810   59.3750   69.8100 C.ar  276  TRP276      0.0810
     11  CE3       -1.2030   57.4880   70.1270 C.ar  276  TRP276      0.0012
     12  CZ2       -1.7500   60.0330   69.0020 C.ar  276  TRP276      0.0191
     13  CZ3       -0.2720   58.1450   69.3210 C.ar  276  TRP276      0.0001
     14  CH2       -0.5540   59.4020   68.7700 C.ar  276  TRP276      0.0015
     15  N         -5.3550   53.4200   72.2150 N.am  277  ASN277     -0.1974
     16  CA        -5.3700   52.1880   73.0030 C.3   277  ASN277      0.1688
     17  C         -4.9740   50.9330   72.2190 C.2   277  ASN277      0.2292
     18  O         -4.7300   49.8910   72.8190 O.2   277  ASN277     -0.2864
     19  CB        -6.7530   51.9750   73.6270 C.3   277  ASN277      0.1181
     20  CG        -7.1550   53.0940   74.5770 C.2   277  ASN277      0.2629
     21  OD1       -6.3090   53.8470   75.0650 O.2   277  ASN277     -0.2716
     22  ND2       -8.4540   53.1980   74.8550 N.am  277  ASN277     -0.0877
     23  N         -2.3040   50.4710   70.0680 N.3   279  LEU279     -0.1245
     24  CA        -0.8840   50.2290   69.8170 C.3   279  LEU279      0.1561
     25  C         -0.4740   48.9430   70.5220 C.2   279  LEU279      0.2260
     26  O         -0.9790   48.6490   71.6050 O.2   279  LEU279     -0.2867
     27  CB        -0.0200   51.3930   70.3010 C.3   279  LEU279      0.0270
     28  CG        -0.1280   52.6840   69.4930 C.3   279  LEU279      0.0019
     29  CD1        0.7500   53.7580   70.1130 C.3   279  LEU279      0.0001
     30  CD2        0.2650   52.4590   68.0430 C.3   279  LEU279      0.0001
     31  N          2.6200   48.0980   71.6210 N.3   281  PHE281     -0.1227
     32  CA         3.6850   48.3000   72.5990 C.3   281  PHE281      0.1736
     33  C          3.6220   49.6800   73.2440 C.2   281  PHE281      0.2595
     34  O          3.1050   50.6420   72.6660 O.2   281  PHE281     -0.2718
     35  CB         5.0700   48.1690   71.9470 C.3   281  PHE281      0.0547
     36  CG         5.2490   46.9310   71.1170 C.ar  281  PHE281     -0.0202
     37  CD1        5.2640   45.6740   71.7140 C.ar  281  PHE281     -0.0042
     38  CD2        5.4310   47.0240   69.7380 C.ar  281  PHE281     -0.0042
     39  CE1        5.4370   44.5280   70.9520 C.ar  281  PHE281     -0.0003
     40  CE2        5.6070   45.8820   68.9700 C.ar  281  PHE281     -0.0003
     41  CZ         5.6090   44.6320   69.5780 C.ar  281  PHE281     -0.0000
     42  N          4.1800   49.7560   74.4480 N.am  282  ASP282     -0.1960
     43  CA         4.4820   51.0210   75.0820 C.3   282  ASP282      0.1840
     44  C          5.6160   51.6400   74.2680 C.2   282  ASP282      0.2623
     45  O          6.7180   51.0930   74.2130 O.2   282  ASP282     -0.2715
     46  CB         4.9030   50.7720   76.5280 C.3   282  ASP282      0.1450
     47  CG         4.9910   52.0370   77.3490 C.2   282  ASP282      0.3671
     48  OD1        4.5380   53.1020   76.8820 O.co2 282  ASP282     -0.2456
     49  OD2        5.5170   51.9520   78.4800 O.co2 282  ASP282     -0.2456
     50  N          5.3420   52.7650   73.6180 N.am  283  SER283     -0.1936
     51  CA         6.2620   53.3030   72.6260 C.3   283  SER283      0.2055
     52  C          6.1010   54.8060   72.3830 C.2   283  SER283      0.2642
     53  O          5.0810   55.3940   72.7080 O.2   283  SER283     -0.2714
     54  CB         6.0330   52.5740   71.3060 C.3   283  SER283      0.2130
     55  OG         4.6950   52.7690   70.8750 O.3   283  SER283     -0.2179
     56  N          7.1260   55.4150   71.7990 N.am  284  ILE284     -0.1977
     57  CA         7.0260   56.7770   71.2870 C.3   284  ILE284      0.1596
     58  C          7.2770   56.7240   69.7900 C.2   284  ILE284      0.2287
     59  O          7.8730   55.7730   69.2890 O.2   284  ILE284     -0.2864
     60  CB         8.0100   57.7510   71.9720 C.3   284  ILE284      0.0276
     61  CG1        9.4630   57.2800   71.8380 C.3   284  ILE284      0.0022
     62  CG2        7.6640   57.8950   73.4400 C.3   284  ILE284      0.0022
     63  CD1       10.4700   58.2460   72.4320 C.3   284  ILE284      0.0001
     64  N          5.0690   56.2060   67.5120 N.3   286  ARG286     -0.1245
     65  CA         4.2420   55.1540   66.9210 C.3   286  ARG286      0.1563
     66  C          2.7920   55.6010   66.9310 C.2   286  ARG286      0.2260
     67  O          2.3110   56.1570   67.9220 O.2   286  ARG286     -0.2867
     68  CB         4.3800   53.8370   67.6870 C.3   286  ARG286      0.0307
     69  CG         5.7540   53.2040   67.5910 C.3   286  ARG286      0.0489
     70  CD         6.0690   52.7750   66.1670 C.3   286  ARG286      0.2205
     71  NE         7.3380   52.0590   66.0950 N.pl3 286  ARG286     -0.0865
     72  CZ         8.5300   52.6150   65.8830 C.cat 286  ARG286      0.5346
     73  NH1        8.6740   53.9270   65.7040 N.pl3 286  ARG286      0.1354
     74  NH2        9.5970   51.8380   65.8440 N.pl3 286  ARG286      0.1354
     75  N          6.6900   64.3270   74.6490 N.3   331  TYR331     -0.1227
     76  CA         5.3570   63.7250   74.7620 C.3   331  TYR331      0.1736
     77  C          5.4060   62.2400   75.1510 C.2   331  TYR331      0.2596
     78  O          4.9540   61.3840   74.3920 O.2   331  TYR331     -0.2718
     79  CB         4.6030   63.8720   73.4270 C.3   331  TYR331      0.0548
     80  CG         4.0280   65.2420   73.1750 C.ar  331  TYR331     -0.0200
     81  CD1        4.8550   66.3470   73.0010 C.ar  331  TYR331     -0.0009
     82  CD2        2.6510   65.4370   73.0990 C.ar  331  TYR331     -0.0009
     83  CE1        4.3310   67.6060   72.7730 C.ar  331  TYR331      0.0417
     84  CE2        2.1160   66.6920   72.8670 C.ar  331  TYR331      0.0417
     85  CZ         2.9580   67.7760   72.7040 C.ar  331  TYR331      0.1957
     86  OH         2.4410   69.0330   72.4760 O.3   331  TYR331     -0.2866
     87  N          5.9480   61.9130   76.3160 N.am  332  GLY332     -0.1957
     88  CA         5.8240   60.5410   76.8190 C.3   332  GLY332      0.1869
     89  C          7.0040   59.9220   77.5410 C.2   332  GLY332      0.2309
     90  O          6.8080   59.1150   78.4460 O.2   332  GLY332     -0.2863
     91  N          9.9300   59.4020   80.1080 N.3   334  PRO334     -0.2116
     92  CA        10.1260   59.9130   81.4560 C.3   334  PRO334      0.1372
     93  C         11.4060   60.7370   81.5730 C.2   334  PRO334      0.2244
     94  O         12.4270   60.3860   80.9730 O.2   334  PRO334     -0.2868
     95  CB        10.2130   58.6420   82.3060 C.3   334  PRO334      0.0268
     96  CG        10.7240   57.5990   81.3740 C.3   334  PRO334      0.0207
     97  CD        10.1780   57.9500   80.0200 C.3   334  PRO334      0.0892
     98  N         11.2140   52.5890   75.0580 N.3   355  LEU355     -0.1245
     99  CA        10.1070   53.2400   74.3590 C.3   355  LEU355      0.1561
    100  C         10.4450   53.5630   72.8990 C.2   355  LEU355      0.2260
    101  O          9.5710   53.5110   72.0280 O.2   355  LEU355     -0.2867
    102  CB         9.6960   54.5240   75.0850 C.3   355  LEU355      0.0270
    103  CG         9.1560   54.3790   76.5090 C.3   355  LEU355      0.0019
    104  CD1        8.9920   55.7490   77.1580 C.3   355  LEU355      0.0001
    105  CD2        7.8420   53.6120   76.5230 C.3   355  LEU355      0.0001
@<TRIPOS>BOND
     1    73    72    1
     2    74    72    1
     3    72    71    2
     4    71    70    1
     5    70    69    1
     6    65    66    1
     7    65    64    1
     8    65    68    1
     9    66    67    2
    10    69    68    1
    11    30    28    1
    12    14    12   ar
    13    14    13   ar
    14    40    41   ar
    15    40    38   ar
    16    12    10   ar
    17    59    58    2
    18    13    11   ar
    19    28    29    1
    20    28    27    1
    21    41    39   ar
    22    38    36   ar
    23    58    57    1
    24    10     9   ar
    25    10     8   ar
    26    24    23    1
    27    24    27    1
    28    24    25    1
    29    11     8   ar
    30     9     7   ar
    31     8     6   ar
    32    25    26    2
    33     1     2    1
    34    55    54    1
    35    39    37   ar
    36     7     6   ar
    37     2     3    1
    38     2     5    1
    39    36    37   ar
    40    36    35    1
    41     6     5    1
    42    57    56    1
    43    57    60    1
    44    54    51    1
    45    31    32    1
    46    56    52   am
    47    61    60    1
    48    61    63    1
    49     3    15   am
    50     3     4    2
    51    35    32    1
    52    60    62    1
    53   101   100    2
    54    15    16    1
    55    17    18    2
    56    17    16    1
    57    52    51    1
    58    52    53    2
    59    86    85    1
    60    32    33    1
    61    51    50    1
    62    34    33    2
    63    85    83   ar
    64    85    84   ar
    65    83    81   ar
    66    84    82   ar
    67   100    99    1
    68    81    80   ar
    69    16    19    1
    70    82    80   ar
    71    80    79    1
    72    33    42   am
    73    79    76    1
    74    50    44   am
    75    19    20    1
    76    45    44    2
    77    44    43    1
    78    99    98    1
    79    99   102    1
    80    78    77    2
    81    42    43    1
    82    20    22   am
    83    20    21    2
    84    75    76    1
    85    76    77    1
    86    43    46    1
    87   102   103    1
    88    77    87   am
    89    87    88    1
    90   103   105    1
    91   103   104    1
    92    46    47    1
    93    88    89    1
    94    48    47   ar
    95    47    49   ar
    96    89    90    2
    97    97    91    1
    98    97    96    1
    99    91    92    1
   100    94    93    2
   101    96    95    1
   102    92    93    1
   103    92    95    1
