@<TRIPOS>MOLECULE
tmp/5e4wD00.pdb
 209 207 0 0 0
SMALL
GASTEIGER

@<TRIPOS>ATOM
      1  N        -22.8650   46.1300  -20.3540 N.3     9  ASP9       -0.1225
      2  CA       -22.4450   46.8790  -21.5300 C.3     9  ASP9        0.1805
      3  C        -23.2440   48.1710  -21.6740 C.2     9  ASP9        0.2597
      4  O        -22.6720   49.2610  -21.6740 O.2     9  ASP9       -0.2718
      5  CB       -22.5960   46.0190  -22.7890 C.3     9  ASP9        0.1424
      6  CG       -21.9580   46.6510  -24.0110 C.2     9  ASP9        0.3668
      7  OD1      -20.9180   47.3260  -23.8580 O.co2   9  ASP9       -0.2456
      8  OD2      -22.4930   46.4690  -25.1240 O.co2   9  ASP9       -0.2456
      9  N        -24.5630   48.0500  -21.7900 N.am   10  GLU10      -0.1979
     10  CA       -25.4160   49.2200  -21.9680 C.3    10  GLU10       0.1602
     11  C        -26.8420   48.9110  -21.5010 C.2    10  GLU10       0.2287
     12  O        -27.2480   47.7500  -21.4550 O.2    10  GLU10      -0.2864
     13  CB       -25.3870   49.6810  -23.4330 C.3    10  GLU10       0.0415
     14  CG       -26.2340   50.9100  -23.7410 C.3    10  GLU10       0.1163
     15  CD       -26.1550   51.3350  -25.1940 C.2    10  GLU10       0.3649
     16  OE1      -26.7130   52.4010  -25.5310 O.co2  10  GLU10      -0.2457
     17  OE2      -25.5300   50.6110  -25.9970 O.co2  10  GLU10      -0.2457
     18  N        -25.7740   57.7020  -17.7600 N.3    48  ASP48      -0.1225
     19  CA       -25.8350   58.0040  -19.1810 C.3    48  ASP48       0.1805
     20  C        -27.1950   57.6840  -19.7920 C.2    48  ASP48       0.2597
     21  O        -27.6750   58.3980  -20.6710 O.2    48  ASP48      -0.2718
     22  CB       -24.7430   57.2310  -19.9210 C.3    48  ASP48       0.1424
     23  CG       -23.3540   57.7350  -19.5960 C.2    48  ASP48       0.3668
     24  OD1      -23.2270   58.9080  -19.1890 O.co2  48  ASP48      -0.2456
     25  OD2      -22.3900   56.9530  -19.7370 O.co2  48  ASP48      -0.2456
     26  N        -27.8170   56.6130  -19.3190 N.am   49  TYR49      -0.1976
     27  CA       -29.1140   56.2120  -19.8410 C.3    49  TYR49       0.1639
     28  C        -30.1980   57.1930  -19.4010 C.2    49  TYR49       0.2290
     29  O        -31.0670   57.5670  -20.1890 O.2    49  TYR49      -0.2864
     30  CB       -29.4680   54.7930  -19.3960 C.3    49  TYR49       0.0560
     31  CG       -30.8060   54.3330  -19.9160 C.ar   49  TYR49      -0.0198
     32  CD1      -30.9370   53.8560  -21.2130 C.ar   49  TYR49      -0.0009
     33  CD2      -31.9390   54.3880  -19.1190 C.ar   49  TYR49      -0.0009
     34  CE1      -32.1590   53.4410  -21.6990 C.ar   49  TYR49       0.0417
     35  CE2      -33.1650   53.9750  -19.5960 C.ar   49  TYR49       0.0417
     36  CZ       -33.2690   53.5020  -20.8850 C.ar   49  TYR49       0.1957
     37  OH       -34.4900   53.0890  -21.3630 O.3    49  TYR49      -0.2866
     38  N        -29.8010   60.2320  -18.7000 N.3    51  ASP51      -0.1225
     39  CA       -29.5560   61.5220  -19.3380 C.3    51  ASP51       0.1805
     40  C        -30.0340   61.4990  -20.7870 C.2    51  ASP51       0.2598
     41  O        -29.8680   62.4710  -21.5240 O.2    51  ASP51      -0.2718
     42  CB       -28.0710   61.8860  -19.2770 C.3    51  ASP51       0.1424
     43  CG       -27.5970   62.1700  -17.8650 C.2    51  ASP51       0.3668
     44  OD1      -28.3480   61.8720  -16.9130 O.co2  51  ASP51      -0.2456
     45  OD2      -26.4700   62.6880  -17.7070 O.co2  51  ASP51      -0.2456
     46  N        -30.6260   60.3780  -21.1860 N.am   52  GLY52      -0.1942
     47  CA       -31.1570   60.2140  -22.5270 C.3    52  GLY52       0.2014
     48  C        -30.0800   59.9670  -23.5630 C.2    52  GLY52       0.2639
     49  O        -30.2700   60.2420  -24.7480 O.2    52  GLY52      -0.2714
     50  N        -28.9440   59.4450  -23.1150 N.am   53  LEU53      -0.1963
     51  CA       -27.8410   59.1420  -24.0170 C.3    53  LEU53       0.1728
     52  C        -27.7950   57.6580  -24.3630 C.2    53  LEU53       0.2616
     53  O        -28.4770   56.8410  -23.7450 O.2    53  LEU53      -0.2715
     54  CB       -26.5100   59.5760  -23.4000 C.3    53  LEU53       0.0311
     55  CG       -26.3450   61.0680  -23.1050 C.3    53  LEU53       0.0022
     56  CD1      -24.9250   61.3690  -22.6540 C.3    53  LEU53       0.0001
     57  CD2      -26.7140   61.9040  -24.3210 C.3    53  LEU53       0.0001
     58  N        -26.9830   57.3190  -25.3590 N.am   54  GLU54      -0.1963
     59  CA       -26.7820   55.9330  -25.7630 C.3    54  GLU54       0.1733
     60  C        -25.3750   55.7780  -26.3270 C.2    54  GLU54       0.2616
     61  O        -24.7730   56.7540  -26.7700 O.2    54  GLU54      -0.2715
     62  CB       -27.8380   55.5060  -26.7850 C.3    54  GLU54       0.0429
     63  CG       -27.5880   56.0020  -28.2000 C.3    54  GLU54       0.1163
     64  CD       -28.7380   55.6840  -29.1370 C.2    54  GLU54       0.3649
     65  OE1      -29.6260   54.8980  -28.7450 O.co2  54  GLU54      -0.2457
     66  OE2      -28.7550   56.2200  -30.2650 O.co2  54  GLU54      -0.2457
     67  N        -24.8500   54.5570  -26.3150 N.am   55  TYR55      -0.1960
     68  CA       -23.4820   54.3260  -26.7670 C.3    55  TYR55       0.1771
     69  C        -23.4160   53.8680  -28.2210 C.2    55  TYR55       0.2619
     70  O        -24.1660   52.9850  -28.6400 O.2    55  TYR55      -0.2715
     71  CB       -22.7930   53.2960  -25.8710 C.3    55  TYR55       0.0574
     72  CG       -22.7220   53.6930  -24.4140 C.ar   55  TYR55      -0.0198
     73  CD1      -21.9260   54.7530  -24.0000 C.ar   55  TYR55      -0.0009
     74  CD2      -23.4440   53.0010  -23.4510 C.ar   55  TYR55      -0.0009
     75  CE1      -21.8570   55.1160  -22.6670 C.ar   55  TYR55       0.0417
     76  CE2      -23.3820   53.3570  -22.1170 C.ar   55  TYR55       0.0417
     77  CZ       -22.5870   54.4140  -21.7300 C.ar   55  TYR55       0.1957
     78  OH       -22.5230   54.7680  -20.4020 O.3    55  TYR55      -0.2866
     79  N        -22.5120   54.4760  -28.9840 N.am   56  ALA56      -0.1963
     80  CA       -22.3330   54.1290  -30.3900 C.3    56  ALA56       0.1728
     81  C        -20.8980   54.3630  -30.8560 C.2    56  ALA56       0.2616
     82  O        -20.0850   54.9420  -30.1360 O.2    56  ALA56      -0.2715
     83  CB       -23.2990   54.9220  -31.2520 C.3    56  ALA56       0.0334
     84  N        -20.6000   53.9060  -32.0680 N.am   57  VAL57      -0.1963
     85  CA       -19.2830   54.0880  -32.6670 C.3    57  VAL57       0.1727
     86  C        -19.3730   55.1380  -33.7690 C.2    57  VAL57       0.2616
     87  O        -20.2630   55.0800  -34.6160 O.2    57  VAL57      -0.2715
     88  CB       -18.7290   52.7720  -33.2430 C.3    57  VAL57       0.0290
     89  CG1      -17.2720   52.9420  -33.6480 C.3    57  VAL57       0.0023
     90  CG2      -18.8760   51.6480  -32.2300 C.3    57  VAL57       0.0023
     91  N        -18.4520   56.0970  -33.7580 N.am   58  ALA58      -0.1977
     92  CA       -18.5130   57.2180  -34.6910 C.3    58  ALA58       0.1597
     93  C        -17.5840   57.0410  -35.8890 C.2    58  ALA58       0.2287
     94  O        -16.4220   56.6630  -35.7340 O.2    58  ALA58      -0.2864
     95  CB       -18.1880   58.5140  -33.9670 C.3    58  ALA58       0.0319
     96  N        -20.5380   72.5970  -30.5330 N.3    74  GLU74      -0.1245
     97  CA       -21.1190   71.3260  -30.9530 C.3    74  GLU74       0.1567
     98  C        -20.5000   70.8270  -32.2550 C.2    74  GLU74       0.2260
     99  O        -20.0970   71.6200  -33.1070 O.2    74  GLU74      -0.2867
    100  CB       -22.6350   71.4580  -31.1160 C.3    74  GLU74       0.0388
    101  CG       -23.3820   71.7190  -29.8190 C.3    74  GLU74       0.1160
    102  CD       -24.8870   71.6960  -30.0000 C.2    74  GLU74       0.3649
    103  OE1      -25.3640   72.1070  -31.0800 O.co2  74  GLU74      -0.2457
    104  OE2      -25.5950   71.2690  -29.0640 O.co2  74  GLU74      -0.2457
    105  N        -22.1460   58.6050  -37.9760 N.3    79  TRP79      -0.1241
    106  CA       -22.1870   57.4060  -37.1480 C.3    79  TRP79       0.1605
    107  C        -22.1030   56.1260  -37.9810 C.2    79  TRP79       0.2264
    108  O        -22.7160   56.0330  -39.0540 O.2    79  TRP79      -0.2867
    109  CB       -23.4720   57.4050  -36.3190 C.3    79  TRP79       0.0550
    110  CG       -23.5570   58.5150  -35.2980 C.ar   79  TRP79       0.0003
    111  CD1      -24.3190   59.6460  -35.3740 C.ar   79  TRP79       0.0946
    112  CD2      -22.8610   58.5860  -34.0490 C.ar   79  TRP79       0.0152
    113  NE1      -24.1390   60.4140  -34.2500 N.ar   79  TRP79      -0.2442
    114  CE2      -23.2470   59.7850  -33.4200 C.ar   79  TRP79       0.0810
    115  CE3      -21.9480   57.7510  -33.4030 C.ar   79  TRP79       0.0012
    116  CZ2      -22.7490   60.1670  -32.1730 C.ar   79  TRP79       0.0191
    117  CZ3      -21.4570   58.1300  -32.1730 C.ar   79  TRP79       0.0001
    118  CH2      -21.8550   59.3260  -31.5700 C.ar   79  TRP79       0.0015
    119  N        -23.1730   53.3000  -36.8870 N.3    81  ASP81      -0.1225
    120  CA       -24.4150   52.6330  -36.5390 C.3    81  ASP81       0.1805
    121  C        -25.5950   53.0180  -37.4430 C.2    81  ASP81       0.2597
    122  O        -26.4460   52.1740  -37.7310 O.2    81  ASP81      -0.2718
    123  CB       -24.7110   52.9140  -35.0560 C.3    81  ASP81       0.1424
    124  CG       -26.1360   53.3680  -34.7930 C.2    81  ASP81       0.3668
    125  OD1      -27.1020   52.6460  -35.1320 O.co2  81  ASP81      -0.2456
    126  OD2      -26.2770   54.4670  -34.2300 O.co2  81  ASP81      -0.2456
    127  N        -25.6680   54.2750  -37.8750 N.am   82  MET82      -0.1979
    128  CA       -26.7820   54.6940  -38.7290 C.3    82  MET82       0.1605
    129  C        -26.3660   55.7270  -39.7770 C.2    82  MET82       0.2287
    130  O        -25.3220   56.3620  -39.6630 O.2    82  MET82      -0.2864
    131  CB       -27.9420   55.2260  -37.8830 C.3    82  MET82       0.0413
    132  CG       -27.9800   56.7250  -37.7360 C.3    82  MET82       0.0598
    133  SD       -28.3100   57.1760  -36.0210 S.3    82  MET82      -0.1393
    134  CE       -27.6110   58.8180  -35.9700 C.3    82  MET82       0.0692
    135  N        -25.6800   63.5940  -36.4910 N.3    86  THR86      -0.1203
    136  CA       -26.3300   64.3240  -35.4040 C.3    86  THR86       0.1994
    137  C        -25.3680   65.3050  -34.7380 C.2    86  THR86       0.2618
    138  O        -24.1500   65.1440  -34.8160 O.2    86  THR86      -0.2717
    139  CB       -26.8970   63.3680  -34.3310 C.3    86  THR86       0.1784
    140  OG1      -25.8790   62.4480  -33.9180 O.3    86  THR86      -0.2211
    141  CG2      -28.0860   62.5910  -34.8780 C.3    86  THR86       0.0376
    142  N        -25.9220   66.3250  -34.0890 N.am   87  TRP87      -0.1961
    143  CA       -25.1180   67.3040  -33.3650 C.3    87  TRP87       0.1771
    144  C        -24.9580   66.9160  -31.8970 C.2    87  TRP87       0.2619
    145  O        -25.9410   66.8100  -31.1620 O.2    87  TRP87      -0.2715
    146  CB       -25.7430   68.6980  -33.4690 C.3    87  TRP87       0.0590
    147  CG       -25.7540   69.2660  -34.8590 C.ar   87  TRP87       0.0006
    148  CD1      -26.7940   69.2480  -35.7430 C.ar   87  TRP87       0.0946
    149  CD2      -24.6760   69.9410  -35.5210 C.ar   87  TRP87       0.0152
    150  NE1      -26.4300   69.8680  -36.9140 N.ar   87  TRP87      -0.2442
    151  CE2      -25.1360   70.3020  -36.8040 C.ar   87  TRP87       0.0810
    152  CE3      -23.3690   70.2750  -35.1550 C.ar   87  TRP87       0.0012
    153  CZ2      -24.3340   70.9790  -37.7210 C.ar   87  TRP87       0.0191
    154  CZ3      -22.5740   70.9470  -36.0680 C.ar   87  TRP87       0.0001
    155  CH2      -23.0600   71.2920  -37.3350 C.ar   87  TRP87       0.0015
    156  N        -23.7150   66.7050  -31.4770 N.am   88  GLU88      -0.1964
    157  CA       -23.4190   66.3150  -30.1020 C.3    88  GLU88       0.1718
    158  C        -22.4150   67.2750  -29.4680 C.2    88  GLU88       0.2458
    159  O        -21.5580   67.8230  -30.1620 O.2    88  GLU88      -0.2730
    160  CB       -22.8790   64.8810  -30.0530 C.3    88  GLU88       0.0428
    161  CG       -23.7750   63.8440  -30.7170 C.3    88  GLU88       0.1163
    162  CD       -25.0820   63.6280  -29.9750 C.2    88  GLU88       0.3649
    163  OE1      -25.1410   63.9290  -28.7630 O.co2  88  GLU88      -0.2457
    164  OE2      -26.0510   63.1560  -30.6050 O.co2  88  GLU88      -0.2457
    165  N        -22.5240   67.4890  -28.1450 N.am   89  PRO89      -0.2727
    166  CA       -21.5690   68.3270  -27.4110 C.3    89  PRO89       0.1402
    167  C        -20.1310   67.8380  -27.5700 C.2    89  PRO89       0.2269
    168  O        -19.9140   66.6550  -27.8270 O.2    89  PRO89      -0.2865
    169  CB       -22.0330   68.1940  -25.9580 C.3    89  PRO89       0.0296
    170  CG       -23.4900   67.9020  -26.0650 C.3    89  PRO89       0.0237
    171  CD       -23.6280   67.0320  -27.2820 C.3    89  PRO89       0.0939
    172  N        -17.8140   67.2670  -25.4780 N.3    91  ASP91      -0.1225
    173  CA       -17.4260   66.2550  -24.5030 C.3    91  ASP91       0.1805
    174  C        -17.9630   64.8750  -24.8760 C.2    91  ASP91       0.2598
    175  O        -17.4130   63.8530  -24.4670 O.2    91  ASP91      -0.2718
    176  CB       -17.9160   66.6460  -23.1070 C.3    91  ASP91       0.1424
    177  CG       -17.4100   68.0070  -22.6720 C.2    91  ASP91       0.3668
    178  OD1      -16.2910   68.0800  -22.1220 O.co2  91  ASP91      -0.2456
    179  OD2      -18.1320   69.0050  -22.8800 O.co2  91  ASP91      -0.2456
    180  N        -19.0410   64.8560  -25.6530 N.am   92  ASN92      -0.1960
    181  CA       -19.6980   63.6090  -26.0340 C.3    92  ASN92       0.1819
    182  C        -19.0340   62.9050  -27.2150 C.2    92  ASN92       0.2621
    183  O        -19.3670   61.7620  -27.5300 O.2    92  ASN92      -0.2715
    184  CB       -21.1700   63.8700  -26.3590 C.3    92  ASN92       0.1195
    185  CG       -22.0250   64.0070  -25.1160 C.2    92  ASN92       0.2630
    186  OD1      -21.5190   64.2730  -24.0260 O.2    92  ASN92      -0.2716
    187  ND2      -23.3310   63.8250  -25.2740 N.am   92  ASN92      -0.0877
    188  N        -18.0960   63.5850  -27.8650 N.am   93  VAL93      -0.1963
    189  CA       -17.4810   63.0630  -29.0820 C.3    93  VAL93       0.1727
    190  C        -16.0510   62.5960  -28.8190 C.2    93  VAL93       0.2616
    191  O        -15.3670   63.1260  -27.9430 O.2    93  VAL93      -0.2715
    192  CB       -17.4840   64.1220  -30.2070 C.3    93  VAL93       0.0290
    193  CG1      -17.2100   63.4780  -31.5590 C.3    93  VAL93       0.0023
    194  CG2      -18.8160   64.8500  -30.2400 C.3    93  VAL93       0.0023
    195  N        -15.6130   61.5980  -29.5830 N.am   94  ASP94      -0.1971
    196  CA       -14.2770   61.0260  -29.4490 C.3    94  ASP94       0.1709
    197  C        -13.1940   62.0840  -29.6570 C.2    94  ASP94       0.2293
    198  O        -13.2220   62.8360  -30.6310 O.2    94  ASP94      -0.2864
    199  CB       -14.1060   59.8760  -30.4450 C.3    94  ASP94       0.1436
    200  CG       -12.8420   59.0780  -30.2100 C.2    94  ASP94       0.3671
    201  OD1      -12.2560   59.1890  -29.1140 O.co2  94  ASP94      -0.2456
    202  OD2      -12.4480   58.3210  -31.1220 O.co2  94  ASP94      -0.2456
    203  N         -9.9010   61.9030  -30.3500 N.3    96  THR96      -0.1218
    204  CA        -8.9840   61.7650  -31.4760 C.3    96  THR96       0.1862
    205  C         -9.6600   62.1400  -32.7940 C.2    96  THR96       0.2287
    206  O         -9.0060   62.6200  -33.7190 O.2    96  THR96      -0.2866
    207  CB        -8.4100   60.3340  -31.5770 C.3    96  THR96       0.1770
    208  OG1       -7.6000   60.2230  -32.7540 O.3    96  THR96      -0.2211
    209  CG2       -9.5210   59.3040  -31.6350 C.3    96  THR96       0.0375
@<TRIPOS>BOND
     1   129   130    2
     2   129   128    1
     3   108   107    2
     4   128   131    1
     5   128   127    1
     6   107   106    1
     7   105   106    1
     8   131   132    1
     9   127   121   am
    10   132   133    1
    11   122   121    2
    12   153   155   ar
    13   153   151   ar
    14   121   120    1
    15   155   154   ar
    16   106   109    1
    17   150   151   ar
    18   150   148   ar
    19   119   120    1
    20   151   149   ar
    21   120   123    1
    22   135   136    1
    23   109   110    1
    24   154   152   ar
    25   133   134    1
    26    93    94    2
    27    93    92    1
    28   148   147   ar
    29   149   152   ar
    30   149   147   ar
    31   136   137    1
    32   136   139    1
    33   111   110   ar
    34   111   113   ar
    35   110   112   ar
    36   125   124   ar
    37   123   124    1
    38   141   139    1
    39   147   146    1
    40   138   137    2
    41   124   126   ar
    42   137   142   am
    43    92    95    1
    44    92    91    1
    45    87    86    2
    46   139   140    1
    47   113   114   ar
    48   142   143    1
    49   112   114   ar
    50   112   115   ar
    51    86    91   am
    52    86    85    1
    53   206   205    2
    54    89    88    1
    55   146   143    1
    56   114   116   ar
    57   115   117   ar
    58   143   144    1
    59    88    85    1
    60    88    90    1
    61    99    98    2
    62   205   204    1
    63   208   207    1
    64    85    84    1
    65    98    97    1
    66   117   118   ar
    67   116   118   ar
    68    84    81   am
    69   144   156   am
    70   144   145    2
    71   209   207    1
    72   207   204    1
    73   193   192    1
    74   156   157    1
    75   204   203    1
    76    83    80    1
    77   202   200   ar
    78   100    97    1
    79   100   101    1
    80   103   102   ar
    81    97    96    1
    82    81    80    1
    83    81    82    2
    84   161   160    1
    85   161   162    1
    86   198   197    2
    87   164   162   ar
    88   199   200    1
    89   199   196    1
    90    80    79    1
    91    66    64   ar
    92   194   192    1
    93   200   201   ar
    94   192   189    1
    95   159   158    2
    96   157   160    1
    97   157   158    1
    98   102   101    1
    99   102   104   ar
   100   162   163   ar
   101   197   196    1
   102   195   196    1
   103   195   190   am
   104   158   165   am
   105    64    65   ar
   106    64    63    1
   107   189   190    1
   108   189   188    1
   109    79    69   am
   110   190   191    2
   111    70    69    2
   112    69    68    1
   113    63    62    1
   114   165   166    1
   115   165   171    1
   116   188   182   am
   117   168   167    2
   118   167   166    1
   119   183   182    2
   120   166   169    1
   121   171   170    1
   122   182   181    1
   123    62    59    1
   124    61    60    2
   125    68    67    1
   126    68    71    1
   127   184   181    1
   128   184   185    1
   129    60    67   am
   130    60    59    1
   131   170   169    1
   132   181   180    1
   133    17    15   ar
   134    71    72    1
   135    59    58    1
   136   180   174   am
   137    16    15   ar
   138   172   173    1
   139    58    52   am
   140   187   185   am
   141    15    14    1
   142     8     6   ar
   143   185   186    2
   144   174   173    1
   145   174   175    2
   146    49    48    2
   147   173   176    1
   148    72    73   ar
   149    72    74   ar
   150    52    51    1
   151    52    53    2
   152    57    55    1
   153    51    54    1
   154    51    50    1
   155     6     7   ar
   156     6     5    1
   157    73    75   ar
   158    14    13    1
   159    48    50   am
   160    48    47    1
   161    74    76   ar
   162    13    10    1
   163    54    55    1
   164   176   177    1
   165    55    56    1
   166   179   177   ar
   167     5     2    1
   168   177   178   ar
   169    75    77   ar
   170    47    46    1
   171    76    77   ar
   172    10     9    1
   173    10    11    1
   174     9     3   am
   175    77    78    1
   176    34    32   ar
   177    34    36   ar
   178     4     3    2
   179     3     2    1
   180     2     1    1
   181    41    40    2
   182    11    12    2
   183    37    36    1
   184    32    31   ar
   185    46    40   am
   186    36    35   ar
   187    40    39    1
   188    21    20    2
   189    29    28    2
   190    22    23    1
   191    22    19    1
   192    31    30    1
   193    31    33   ar
   194    27    28    1
   195    27    30    1
   196    27    26    1
   197    20    26   am
   198    20    19    1
   199    25    23   ar
   200    23    24   ar
   201    35    33   ar
   202    39    42    1
   203    39    38    1
   204    42    43    1
   205    19    18    1
   206    43    45   ar
   207    43    44   ar
