@<TRIPOS>MOLECULE
tmp/5e50B00.pdb
 114 111 0 0 0
SMALL
GASTEIGER

@<TRIPOS>ATOM
      1  N         14.3560   21.1350   17.8910 N.3    32  ARG32      -0.1231
      2  CA        14.2910   19.7480   18.3390 C.3    32  ARG32       0.1694
      3  C         13.7370   19.6800   19.7590 C.2    32  ARG32       0.2593
      4  O         14.1670   20.4410   20.6280 O.2    32  ARG32      -0.2718
      5  CB        15.7060   19.1810   18.2950 C.3    32  ARG32       0.0321
      6  CG        15.8940   17.7750   18.8690 C.3    32  ARG32       0.0489
      7  CD        17.0180   17.0280   18.1350 C.3    32  ARG32       0.2205
      8  NE        18.2260   17.8310   18.1000 N.pl3  32  ARG32      -0.0865
      9  CZ        19.1850   17.7860   19.0280 C.cat  32  ARG32       0.5346
     10  NH1       19.1010   16.9220   20.0450 N.pl3  32  ARG32       0.1354
     11  NH2       20.2490   18.5700   18.9200 N.pl3  32  ARG32       0.1354
     12  N         12.7790   18.7790   19.9840 N.am   33  GLY33      -0.1943
     13  CA        12.1400   18.6410   21.2850 C.3    33  GLY33       0.1998
     14  C         10.7050   18.1790   21.1490 C.2    33  GLY33       0.2480
     15  O         10.2310   17.9530   20.0470 O.2    33  GLY33      -0.2729
     16  N         10.0040   18.0250   22.2820 N.am   34  PRO34      -0.2726
     17  CA         8.6400   17.4730   22.2910 C.3    34  PRO34       0.1402
     18  C          7.5570   18.4370   21.7960 C.2    34  PRO34       0.2269
     19  O          6.4780   17.9660   21.4430 O.2    34  PRO34      -0.2865
     20  CB         8.4130   17.1320   23.7680 C.3    34  PRO34       0.0296
     21  CG         9.3350   18.0520   24.4970 C.3    34  PRO34       0.0237
     22  CD        10.5550   18.1600   23.6400 C.3    34  PRO34       0.0939
     23  N          7.8100   17.4850   18.2630 N.3    37  GLY37      -0.1210
     24  CA         8.1210   16.0760   18.0510 C.3    37  GLY37       0.1956
     25  C          9.2460   15.8500   17.0530 C.2    37  GLY37       0.2612
     26  O          9.2400   14.8540   16.3080 O.2    37  GLY37      -0.2717
     27  N         10.1990   16.7800   17.0270 N.am   38  ILE38      -0.1965
     28  CA        11.3860   16.6710   16.1790 C.3    38  ILE38       0.1727
     29  C         12.5390   16.1050   16.9910 C.2    38  ILE38       0.2616
     30  O         12.9180   16.6630   18.0300 O.2    38  ILE38      -0.2715
     31  CB        11.7990   18.0370   15.5910 C.3    38  ILE38       0.0290
     32  CG1       10.6680   18.6040   14.7220 C.3    38  ILE38       0.0022
     33  CG2       13.1350   17.9160   14.8290 C.3    38  ILE38       0.0023
     34  CD1       10.9280   20.0020   14.2500 C.3    38  ILE38       0.0001
     35  N         13.0880   14.9870   16.5280 N.am   39  THR39      -0.1951
     36  CA        14.2240   14.3680   17.2010 C.3    39  THR39       0.1897
     37  C         15.5020   14.3620   16.3420 C.2    39  THR39       0.2313
     38  O         16.5390   13.8530   16.7600 O.2    39  THR39      -0.2863
     39  CB        13.8860   12.9230   17.6780 C.3    39  THR39       0.1794
     40  OG1       13.4330   12.1580   16.5660 O.3    39  THR39      -0.2208
     41  CG2       12.7820   12.9490   18.7330 C.3    39  THR39       0.0378
     42  N         18.8800   15.1990   14.8740 N.3    41  LYS41      -0.1231
     43  CA        20.0710   15.8580   15.4200 C.3    41  LYS41       0.1693
     44  C         20.5490   17.0600   14.5960 C.2    41  LYS41       0.2591
     45  O         21.2940   17.9080   15.0780 O.2    41  LYS41      -0.2718
     46  CB        21.1970   14.8090   15.5570 C.3    41  LYS41       0.0285
     47  CG        22.4380   15.1970   16.3370 C.3    41  LYS41       0.0035
     48  CD        23.4290   14.0040   16.3870 C.3    41  LYS41       0.0206
     49  CE        24.3340   14.0210   17.6430 C.3    41  LYS41       0.1093
     50  NZ        25.5650   14.8810   17.5460 N.3    41  LYS41      -0.1314
     51  N         20.1250   17.1220   13.3380 N.am   42  ARG42      -0.1980
     52  CA        20.5000   18.2330   12.4560 C.3    42  ARG42       0.1597
     53  C         19.7390   19.5320   12.7880 C.2    42  ARG42       0.2287
     54  O         20.0690   20.6090   12.2900 O.2    42  ARG42      -0.2864
     55  CB        20.2740   17.8360   10.9920 C.3    42  ARG42       0.0334
     56  CG        21.0660   16.5940   10.6070 C.3    42  ARG42       0.0492
     57  CD        20.7090   16.1090    9.2010 C.3    42  ARG42       0.2205
     58  NE        19.3630   15.5530    9.1450 N.pl3  42  ARG42      -0.0865
     59  CZ        18.7720   15.1440    8.0260 C.cat  42  ARG42       0.5346
     60  NH1       17.5400   14.6660    8.0720 N.pl3  42  ARG42       0.1354
     61  NH2       19.4160   15.2120    6.8690 N.pl3  42  ARG42       0.1354
     62  N         18.6600   22.1730   15.7560 N.3    44  SER44      -0.1202
     63  CA        19.0630   22.5660   17.1040 C.3    44  SER44       0.2020
     64  C         17.9010   22.5160   18.0750 C.2    44  SER44       0.2619
     65  O         16.7440   22.7360   17.6930 O.2    44  SER44      -0.2717
     66  CB        19.6350   23.9930   17.0860 C.3    44  SER44       0.2103
     67  OG        20.0030   24.4270   18.3880 O.3    44  SER44      -0.2182
     68  N         18.2040   22.2820   19.3480 N.am   45  ARG45      -0.1965
     69  CA        17.2040   22.4690   20.4000 C.3    45  ARG45       0.1729
     70  C         16.8220   23.9450   20.5930 C.2    45  ARG45       0.2616
     71  O         15.7820   24.2570   21.2020 O.2    45  ARG45      -0.2715
     72  CB        17.6930   21.8280   21.7030 C.3    45  ARG45       0.0348
     73  CG        17.8400   20.3270   21.5610 C.3    45  ARG45       0.0492
     74  CD        18.7240   19.7330   22.6250 C.3    45  ARG45       0.2205
     75  NE        20.1220   20.0900   22.4140 N.pl3  45  ARG45      -0.0865
     76  CZ        21.1290   19.6130   23.1490 C.cat  45  ARG45       0.5346
     77  NH1       22.3730   19.9940   22.8820 N.pl3  45  ARG45       0.1354
     78  NH2       20.8880   18.7900   24.1760 N.pl3  45  ARG45       0.1354
     79  N         17.6550   24.8470   20.0810 N.am   46  ARG46      -0.1977
     80  CA        17.3370   26.2780   20.0500 C.3    46  ARG46       0.1597
     81  C         17.5550   26.7650   18.6230 C.2    46  ARG46       0.2287
     82  O         18.5370   27.4520   18.3210 O.2    46  ARG46      -0.2864
     83  CB        18.2170   27.0590   21.0450 C.3    46  ARG46       0.0334
     84  CG        17.8820   26.8080   22.5070 C.3    46  ARG46       0.0492
     85  CD        18.5980   27.8180   23.4110 C.3    46  ARG46       0.2205
     86  NE        18.3210   29.2090   23.0350 N.pl3  46  ARG46      -0.0865
     87  CZ        17.3180   29.9460   23.5120 C.cat  46  ARG46       0.5346
     88  NH1       16.4670   29.4560   24.4000 N.pl3  46  ARG46       0.1354
     89  NH2       17.1730   31.1910   23.1020 N.pl3  46  ARG46       0.1354
     90  N         20.4580   30.0080   15.1390 N.3    63  HIS63      -0.1226
     91  CA        21.5170   28.9980   15.1180 C.3    63  HIS63       0.1752
     92  C         22.2800   29.0780   13.7960 C.2    63  HIS63       0.2597
     93  O         21.7640   29.5860   12.7870 O.2    63  HIS63      -0.2718
     94  CB        20.9010   27.6010   15.3120 C.3    63  HIS63       0.0759
     95  CG        21.8930   26.5400   15.6690 C.ar   63  HIS63       0.0818
     96  ND1       22.5690   25.7990   14.7230 N.ar   63  HIS63      -0.2268
     97  CD2       22.3350   26.1070   16.8750 C.ar   63  HIS63       0.1154
     98  CE1       23.3780   24.9460   15.3340 C.ar   63  HIS63       0.1986
     99  NE2       23.2600   25.1170   16.6400 N.ar   63  HIS63      -0.2212
    100  N         23.5140   28.5790   13.7740 N.am   64  THR64      -0.1939
    101  CA        24.2610   28.5420   12.5200 C.3    64  THR64       0.2028
    102  C         23.6190   27.5940   11.4920 C.2    64  THR64       0.2642
    103  O         23.7870   27.7930   10.2940 O.2    64  THR64      -0.2714
    104  CB        25.7370   28.2100   12.7430 C.3    64  THR64       0.1808
    105  OG1       25.8250   27.0470   13.5570 O.3    64  THR64      -0.2208
    106  CG2       26.4370   29.3620   13.4750 C.3    64  THR64       0.0379
    107  N         22.8940   26.5680   11.9320 N.am   65  ASN65      -0.1971
    108  CA        22.0790   25.7750   10.9950 C.3    65  ASN65       0.1688
    109  C         20.8690   26.6360   10.6400 C.2    65  ASN65       0.2292
    110  O         20.1590   27.0870   11.5370 O.2    65  ASN65      -0.2864
    111  CB        21.6000   24.4640   11.6470 C.3    65  ASN65       0.1181
    112  CG        22.7210   23.4580   11.8830 C.2    65  ASN65       0.2629
    113  OD1       23.8620   23.6550   11.4720 O.2    65  ASN65      -0.2716
    114  ND2       22.3770   22.3490   12.5300 N.am   65  ASN65      -0.0877
@<TRIPOS>BOND
     1    61    59    1
     2    59    60    1
     3    59    58    2
     4    58    57    1
     5    57    56    1
     6   103   102    2
     7    56    55    1
     8   109   108    1
     9   109   110    2
    10    55    52    1
    11   108   111    1
    12   108   107    1
    13   113   112    2
    14   102   107   am
    15   102   101    1
    16   111   112    1
    17   112   114   am
    18    54    53    2
    19    52    53    1
    20    52    51    1
    21   101   104    1
    22   101   100    1
    23   104   106    1
    24   104   105    1
    25    93    92    2
    26    51    44   am
    27   100    92   am
    28    92    91    1
    29    34    32    1
    30    44    45    2
    31    44    43    1
    32    32    31    1
    33    96    98   ar
    34    96    95   ar
    35    33    31    1
    36    42    43    1
    37    91    90    1
    38    91    94    1
    39    94    95    1
    40    98    99   ar
    41    43    46    1
    42    46    47    1
    43    31    28    1
    44    95    97   ar
    45    62    63    1
    46    28    29    1
    47    28    27    1
    48    26    25    2
    49    47    48    1
    50    37    38    2
    51    37    36    1
    52    48    49    1
    53    35    29   am
    54    35    36    1
    55    40    39    1
    56    99    97   ar
    57    29    30    2
    58    27    25   am
    59    25    24    1
    60    66    63    1
    61    66    67    1
    62    63    64    1
    63    36    39    1
    64    50    49    1
    65    39    41    1
    66    65    64    2
    67     1     2    1
    68    24    23    1
    69    64    68   am
    70     8     7    1
    71     8     9    2
    72     7     6    1
    73     5     2    1
    74     5     6    1
    75    82    81    2
    76     2     3    1
    77    81    80    1
    78    11     9    1
    79     9    10    1
    80    68    69    1
    81     3    12   am
    82     3     4    2
    83    12    13    1
    84    15    14    2
    85    80    79    1
    86    80    83    1
    87    79    70   am
    88    69    70    1
    89    69    72    1
    90    70    71    2
    91    83    84    1
    92    14    13    1
    93    14    16   am
    94    19    18    2
    95    73    72    1
    96    73    74    1
    97    18    17    1
    98    16    17    1
    99    16    22    1
   100    17    20    1
   101    75    74    1
   102    75    76    2
   103    84    85    1
   104    77    76    1
   105    86    85    1
   106    86    87    2
   107    89    87    1
   108    76    78    1
   109    87    88    1
   110    22    21    1
   111    20    21    1
