@<TRIPOS>MOLECULE
tmp/5e50A00.pdb
 107 103 0 0 0
SMALL
GASTEIGER

@<TRIPOS>ATOM
      1  N          4.3290   64.7860   15.7990 N.3    32  ARG32      -0.1231
      2  CA         4.3820   66.2100   16.0470 C.3    32  ARG32       0.1694
      3  C          4.9960   66.4340   17.4340 C.2    32  ARG32       0.2593
      4  O          4.5230   65.8700   18.4170 O.2    32  ARG32      -0.2718
      5  CB         2.9620   66.7810   15.9150 C.3    32  ARG32       0.0321
      6  CG         2.8210   68.2480   16.2380 C.3    32  ARG32       0.0489
      7  CD         1.6170   68.8380   15.5130 C.3    32  ARG32       0.2205
      8  NE         0.4100   68.0900   15.8040 N.pl3  32  ARG32      -0.0865
      9  CZ        -0.4400   68.3840   16.7800 C.cat  32  ARG32       0.5346
     10  NH1       -1.4950   67.5930   16.9920 N.pl3  32  ARG32       0.1354
     11  NH2       -0.2330   69.4520   17.5400 N.pl3  32  ARG32       0.1354
     12  N          6.0540   67.2400   17.5140 N.am   33  GLY33      -0.1943
     13  CA         6.7700   67.3920   18.7750 C.3    33  GLY33       0.1998
     14  C          8.2080   67.7940   18.5280 C.2    33  GLY33       0.2480
     15  O          8.6100   67.9370   17.3760 O.2    33  GLY33      -0.2729
     16  N          8.9950   67.9750   19.5970 N.am   34  PRO34      -0.2726
     17  CA        10.3410   68.5390   19.4480 C.3    34  PRO34       0.1402
     18  C         11.3880   67.5910   18.8500 C.2    34  PRO34       0.2269
     19  O         12.4020   68.0810   18.3580 O.2    34  PRO34      -0.2865
     20  CB        10.7350   68.9200   20.8860 C.3    34  PRO34       0.0296
     21  CG         9.8960   68.0490   21.7560 C.3    34  PRO34       0.0237
     22  CD         8.5930   67.8380   21.0080 C.3    34  PRO34       0.0939
     23  N         10.8620   68.1070   15.1530 N.3    37  GLY37      -0.1210
     24  CA        10.4970   69.4840   14.8530 C.3    37  GLY37       0.1956
     25  C          9.2850   69.6240   13.9470 C.2    37  GLY37       0.2612
     26  O          9.0970   70.6490   13.2920 O.2    37  GLY37      -0.2717
     27  N          8.4680   68.5780   13.8920 N.am   38  ILE38      -0.1965
     28  CA         7.2500   68.6010   13.0910 C.3    38  ILE38       0.1727
     29  C          6.1810   69.4140   13.8270 C.2    38  ILE38       0.2616
     30  O          5.8840   69.1390   14.9890 O.2    38  ILE38      -0.2715
     31  CB         6.7070   67.1600   12.8900 C.3    38  ILE38       0.0290
     32  CG1        7.6280   66.3100   12.0000 C.3    38  ILE38       0.0022
     33  CG2        5.3150   67.2050   12.2870 C.3    38  ILE38       0.0023
     34  CD1        7.3290   64.8340   12.0870 C.3    38  ILE38       0.0001
     35  N          5.5680   70.3780   13.1480 N.am   39  THR39      -0.1951
     36  CA         4.5370   71.1990   13.7670 C.3    39  THR39       0.1897
     37  C          3.1800   71.1550   13.0530 C.2    39  THR39       0.2313
     38  O          2.1870   71.6320   13.5980 O.2    39  THR39      -0.2863
     39  CB         4.9720   72.6590   13.8110 C.3    39  THR39       0.1794
     40  OG1        5.3930   73.0400   12.5010 O.3    39  THR39      -0.2208
     41  CG2        6.1350   72.8210   14.7700 C.3    39  THR39       0.0378
     42  N         -0.3160   70.4010   12.0480 N.3    41  LYS41      -0.1231
     43  CA        -1.3550   69.7950   12.8830 C.3    41  LYS41       0.1693
     44  C         -1.9820   68.5130   12.3280 C.2    41  LYS41       0.2591
     45  O         -2.7060   67.8110   13.0470 O.2    41  LYS41      -0.2718
     46  CB        -2.4390   70.8190   13.2310 C.3    41  LYS41       0.0285
     47  CG        -1.9160   71.9260   14.1160 C.3    41  LYS41       0.0035
     48  CD        -2.9400   73.0360   14.3070 C.3    41  LYS41       0.0206
     49  CE        -4.2280   72.5330   14.9240 C.3    41  LYS41       0.1093
     50  NZ        -5.0870   73.7140   15.2720 N.3    41  LYS41      -0.1314
     51  N         -1.7230   68.1940   11.0570 N.am   42  ARG42      -0.1980
     52  CA        -2.2070   66.9310   10.5180 C.3    42  ARG42       0.1597
     53  C         -1.3960   65.7130   10.9640 C.2    42  ARG42       0.2287
     54  O         -1.8090   64.5670   10.7440 O.2    42  ARG42      -0.2864
     55  CB        -2.2080   66.9720    8.9920 C.3    42  ARG42       0.0334
     56  CG        -3.3100   67.8280    8.4420 C.3    42  ARG42       0.0492
     57  CD        -3.1810   67.9680    6.9340 C.3    42  ARG42       0.2205
     58  NE        -1.9220   68.6130    6.5810 N.pl3  42  ARG42      -0.0865
     59  CZ        -1.3490   68.5220    5.3850 C.cat  42  ARG42       0.5346
     60  NH1       -1.9260   67.7940    4.4270 N.pl3  42  ARG42       0.1354
     61  NH2       -0.2020   69.1520    5.1510 N.pl3  42  ARG42       0.1354
     62  N         -0.0830   63.5080   14.0350 N.3    44  SER44      -0.1202
     63  CA        -0.4050   63.3060   15.4340 C.3    44  SER44       0.2020
     64  C          0.8400   63.4750   16.2860 C.2    44  SER44       0.2619
     65  O          1.9600   63.2250   15.8330 O.2    44  SER44      -0.2717
     66  CB        -0.9740   61.9030   15.6230 C.3    44  SER44       0.2103
     67  OG        -1.2540   61.6220   16.9820 O.3    44  SER44      -0.2182
     68  N          0.6450   63.8790   17.5330 N.am   45  ARG45      -0.1965
     69  CA         1.7180   63.8440   18.5200 C.3    45  ARG45       0.1729
     70  C          2.1190   62.3910   18.8860 C.2    45  ARG45       0.2616
     71  O          3.1850   62.1430   19.4470 O.2    45  ARG45      -0.2715
     72  CB         1.2880   64.6180   19.7590 C.3    45  ARG45       0.0348
     73  CG         1.1510   66.1030   19.4490 C.3    45  ARG45       0.0492
     74  CD         0.3060   66.8700   20.4540 C.3    45  ARG45       0.2205
     75  NE        -1.0960   66.4720   20.4050 N.pl3  45  ARG45      -0.0865
     76  CZ        -2.0460   66.9760   21.1940 C.cat  45  ARG45       0.5346
     77  NH1       -1.7520   67.9250   22.0850 N.pl3  45  ARG45       0.1354
     78  NH2       -3.2950   66.5380   21.0850 N.pl3  45  ARG45       0.1354
     79  N          1.2660   61.4320   18.5490 N.am   46  ARG46      -0.1977
     80  CA         1.6060   60.0040   18.6850 C.3    46  ARG46       0.1597
     81  C          1.2620   59.3470   17.3490 C.2    46  ARG46       0.2287
     82  O          0.2380   58.6890   17.1810 O.2    46  ARG46      -0.2864
     83  CB         0.8470   59.3710   19.8700 C.3    46  ARG46       0.0334
     84  CG         1.1840   59.9850   21.2450 C.3    46  ARG46       0.0492
     85  CD         2.6220   59.6800   21.7200 C.3    46  ARG46       0.2205
     86  NE         2.9210   60.1890   23.0760 N.pl3  46  ARG46      -0.0865
     87  CZ         3.4470   61.3920   23.3330 C.cat  46  ARG46       0.5346
     88  NH1        3.7010   62.2310   22.3210 N.pl3  46  ARG46       0.1354
     89  NH2        3.7050   61.7700   24.5970 N.pl3  46  ARG46       0.1354
     90  N         -1.7540   55.8180   14.1990 N.3    63  HIS63      -0.1241
     91  CA        -2.8320   56.7950   14.1350 C.3    63  HIS63       0.1621
     92  C         -3.6570   56.5660   12.8700 C.2    63  HIS63       0.2264
     93  O         -3.1880   55.9480   11.9090 O.2    63  HIS63      -0.2867
     94  CB        -2.2450   58.2280   14.1680 C.3    63  HIS63       0.0745
     95  CG        -3.2550   59.3030   14.4590 C.ar   63  HIS63       0.0817
     96  ND1       -3.9160   59.9900   13.4630 N.ar   63  HIS63      -0.2268
     97  CD2       -3.7090   59.8120   15.6290 C.ar   63  HIS63       0.1154
     98  CE1       -4.7340   60.8750   14.0050 C.ar   63  HIS63       0.1986
     99  NE2       -4.6280   60.7860   15.3180 N.ar   63  HIS63      -0.2212
    100  N         -4.4120   58.8700   10.7900 N.3    65  ASN65      -0.1240
    101  CA        -3.6450   59.5820    9.7680 C.3    65  ASN65       0.1653
    102  C         -2.4060   58.7290    9.4840 C.2    65  ASN65       0.2266
    103  O         -1.6610   58.4200   10.3920 O.2    65  ASN65      -0.2867
    104  CB        -3.2440   60.9850   10.2440 C.3    65  ASN65       0.1155
    105  CG        -4.4350   61.9450   10.3210 C.2    65  ASN65       0.2627
    106  OD1       -5.5340   61.6210    9.8590 O.2    65  ASN65      -0.2716
    107  ND2       -4.2150   63.1380   10.8820 N.am   65  ASN65      -0.0877
@<TRIPOS>BOND
     1    60    59    1
     2    61    59    1
     3    59    58    2
     4    58    57    1
     5    57    56    1
     6    56    55    1
     7    55    52    1
     8   102   101    1
     9   102   103    2
    10   101   104    1
    11   101   100    1
    12   106   105    2
    13   104   105    1
    14   105   107   am
    15    52    53    1
    16    52    51    1
    17    54    53    2
    18    51    44   am
    19    93    92    2
    20    32    34    1
    21    32    31    1
    22    42    43    1
    23    33    31    1
    24    44    43    1
    25    44    45    2
    26    40    39    1
    27    92    91    1
    28    43    46    1
    29    31    28    1
    30    37    38    2
    31    37    36    1
    32    28    29    1
    33    28    27    1
    34    35    36    1
    35    35    29   am
    36    46    47    1
    37    26    25    2
    38    96    98   ar
    39    96    95   ar
    40    36    39    1
    41    39    41    1
    42    29    30    2
    43    27    25   am
    44    25    24    1
    45    98    99   ar
    46    62    63    1
    47    47    48    1
    48    91    94    1
    49    91    90    1
    50    94    95    1
    51    48    49    1
    52    95    97   ar
    53    24    23    1
    54    49    50    1
    55    99    97   ar
    56    63    66    1
    57    63    64    1
    58     7     8    1
    59     7     6    1
    60    66    67    1
    61     1     2    1
    62     8     9    2
    63    65    64    2
    64     5     2    1
    65     5     6    1
    66     2     3    1
    67    64    68   am
    68     9    10    1
    69     9    11    1
    70    82    81    2
    71    81    80    1
    72    15    14    2
    73     3    12   am
    74     3     4    2
    75    12    13    1
    76    68    69    1
    77    19    18    2
    78    69    70    1
    79    69    72    1
    80    14    13    1
    81    14    16   am
    82    79    80    1
    83    79    70   am
    84    80    83    1
    85    18    17    1
    86    70    71    2
    87    17    16    1
    88    17    20    1
    89    73    72    1
    90    73    74    1
    91    16    22    1
    92    83    84    1
    93    75    74    1
    94    75    76    2
    95    20    21    1
    96    22    21    1
    97    78    76    1
    98    76    77    1
    99    84    85    1
   100    85    86    1
   101    88    87    1
   102    86    87    2
   103    87    89    1
