@<TRIPOS>MOLECULE
tmp/5e58C01.pdb
 121 112 0 0 0
SMALL
GASTEIGER

@<TRIPOS>ATOM
      1  N         85.0660   40.8620  -60.4800 N.3    74  ILE74      -0.1245
      2  CA        85.5790   42.1660  -60.8530 C.3    74  ILE74       0.1561
      3  C         86.8690   41.9010  -61.6330 C.2    74  ILE74       0.2260
      4  O         87.8110   41.2840  -61.0990 O.2    74  ILE74      -0.2867
      5  CB        85.8310   43.0620  -59.6410 C.3    74  ILE74       0.0252
      6  CG1       84.5380   43.2520  -58.8320 C.3    74  ILE74       0.0019
      7  CG2       86.3950   44.3860  -60.0890 C.3    74  ILE74       0.0019
      8  CD1       84.7170   43.9690  -57.4800 C.3    74  ILE74       0.0001
      9  N         90.7180   42.8680  -60.4150 N.3    77  ILE77      -0.1245
     10  CA        91.3480   42.2910  -59.2470 C.3    77  ILE77       0.1561
     11  C         91.3570   40.7760  -59.3410 C.2    77  ILE77       0.2260
     12  O         91.9050   40.1030  -58.5110 O.2    77  ILE77      -0.2867
     13  CB        90.6340   42.7020  -57.9550 C.3    77  ILE77       0.0252
     14  CG1       89.2250   42.1180  -57.9370 C.3    77  ILE77       0.0019
     15  CG2       90.6470   44.2170  -57.7710 C.3    77  ILE77       0.0019
     16  CD1       88.8390   41.5190  -56.6630 C.3    77  ILE77       0.0001
     17  N         93.6160   38.1010  -57.1070 N.3    81  ILE81      -0.1245
     18  CA        92.7470   37.6400  -56.0250 C.3    81  ILE81       0.1561
     19  C         91.9240   36.4000  -56.4110 C.2    81  ILE81       0.2260
     20  O         91.6910   35.4910  -55.5860 O.2    81  ILE81      -0.2867
     21  CB        91.8800   38.7980  -55.5310 C.3    81  ILE81       0.0252
     22  CG1       92.7980   39.7970  -54.8130 C.3    81  ILE81       0.0019
     23  CG2       90.7620   38.3180  -54.6390 C.3    81  ILE81       0.0019
     24  CD1       92.1010   40.9100  -54.0910 C.3    81  ILE81       0.0001
     25  N         85.7430   36.6570  -49.4230 N.3    87  ILE87      -0.1231
     26  CA        85.0000   37.6990  -50.0980 C.3    87  ILE87       0.1692
     27  C         84.6580   37.3040  -51.5190 C.2    87  ILE87       0.2592
     28  O         83.5430   37.5100  -51.9840 O.2    87  ILE87      -0.2718
     29  CB        85.7650   39.0370  -50.0920 C.3    87  ILE87       0.0266
     30  CG1       86.0090   39.4810  -48.6450 C.3    87  ILE87       0.0019
     31  CG2       84.9800   40.0960  -50.8260 C.3    87  ILE87       0.0020
     32  CD1       86.5740   40.8510  -48.5130 C.3    87  ILE87       0.0001
     33  N         85.6470   36.8160  -52.2450 N.am   88  PHE88      -0.1976
     34  CA        85.4280   36.5640  -53.6580 C.3    88  PHE88       0.1639
     35  C         85.1720   35.1070  -54.0170 C.2    88  PHE88       0.2290
     36  O         85.2610   34.7230  -55.1800 O.2    88  PHE88      -0.2864
     37  CB        86.5940   37.1610  -54.4480 C.3    88  PHE88       0.0560
     38  CG        86.5950   38.6560  -54.4010 C.ar   88  PHE88      -0.0200
     39  CD1       85.7810   39.3750  -55.2610 C.ar   88  PHE88      -0.0042
     40  CD2       87.3350   39.3410  -53.4510 C.ar   88  PHE88      -0.0042
     41  CE1       85.7310   40.7540  -55.1910 C.ar   88  PHE88      -0.0003
     42  CE2       87.2920   40.7070  -53.3770 C.ar   88  PHE88      -0.0003
     43  CZ        86.4780   41.4190  -54.2480 C.ar   88  PHE88      -0.0000
     44  N         92.4930   51.3550  -54.5040 N.3   179  PHE179     -0.1241
     45  CA        91.0440   51.5410  -54.4410 C.3   179  PHE179      0.1605
     46  C         90.6120   52.6100  -55.4510 C.2   179  PHE179      0.2264
     47  O         89.5950   52.4610  -56.1390 O.2   179  PHE179     -0.2867
     48  CB        90.6010   51.9020  -53.0220 C.3   179  PHE179      0.0534
     49  CG        89.1060   51.9400  -52.8300 C.ar  179  PHE179     -0.0203
     50  CD1       88.3200   50.8480  -53.1620 C.ar  179  PHE179     -0.0042
     51  CD2       88.5010   53.0340  -52.2380 C.ar  179  PHE179     -0.0042
     52  CE1       86.9300   50.8640  -52.9510 C.ar  179  PHE179     -0.0003
     53  CE2       87.1220   53.0620  -52.0240 C.ar  179  PHE179     -0.0003
     54  CZ        86.3360   51.9730  -52.3770 C.ar  179  PHE179     -0.0000
     55  N         90.8290   51.0010  -58.8280 N.3   182  MET182     -0.1245
     56  CA        89.7220   50.0730  -59.0230 C.3   182  MET182      0.1570
     57  C         88.4800   50.8700  -59.4060 C.2   182  MET182      0.2261
     58  O         87.6960   50.4530  -60.2540 O.2   182  MET182     -0.2867
     59  CB        89.4590   49.2470  -57.7460 C.3   182  MET182      0.0387
     60  CG        90.5780   48.2040  -57.4500 C.3   182  MET182      0.0595
     61  SD        90.4580   47.3680  -55.8560 S.3   182  MET182     -0.1393
     62  CE        88.8170   46.6520  -55.9580 C.3   182  MET182      0.0692
     63  N         98.6470   45.0030  -55.6000 N.3   211  LEU211     -0.1245
     64  CA        98.0530   43.9180  -54.8400 C.3   211  LEU211      0.1561
     65  C         99.1280   42.8630  -54.6140 C.2   211  LEU211      0.2260
     66  O         99.1860   42.2300  -53.5550 O.2   211  LEU211     -0.2867
     67  CB        96.8430   43.3310  -55.5670 C.3   211  LEU211      0.0270
     68  CG        95.5810   44.2150  -55.7270 C.3   211  LEU211      0.0019
     69  CD1       94.4760   43.4390  -56.4100 C.3   211  LEU211      0.0001
     70  CD2       95.0490   44.7810  -54.4220 C.3   211  LEU211      0.0001
     71  N         94.7360   39.3170  -47.2350 N.3   266  LEU266     -0.1231
     72  CA        94.7000   40.4700  -48.1590 C.3   266  LEU266      0.1693
     73  C         93.2920   41.0860  -48.1350 C.2   266  LEU266      0.2592
     74  O         93.1370   42.2790  -47.9110 O.2   266  LEU266     -0.2718
     75  CB        95.0570   40.0410  -49.5890 C.3   266  LEU266      0.0284
     76  CG        94.8620   41.0610  -50.7370 C.3   266  LEU266      0.0019
     77  CD1       95.8100   42.2010  -50.5700 C.3   266  LEU266      0.0001
     78  CD2       95.0350   40.4140  -52.1180 C.3   266  LEU266      0.0001
     79  N         92.2820   40.2280  -48.2300 N.am  267  SER267     -0.1952
     80  CA        90.8980   40.6690  -48.2360 C.3   267  SER267      0.1924
     81  C         90.5150   41.4300  -46.9650 C.2   267  SER267      0.2314
     82  O         89.9840   42.5240  -47.0540 O.2   267  SER267     -0.2863
     83  CB        89.9770   39.4850  -48.4210 C.3   267  SER267      0.2116
     84  OG        90.1950   38.8700  -49.6760 O.3   267  SER267     -0.2180
     85  N         92.6920   44.7900  -46.6540 N.3   270  PHE270     -0.1227
     86  CA        91.9290   45.6930  -47.4760 C.3   270  PHE270      0.1736
     87  C         90.5390   45.7670  -46.9580 C.2   270  PHE270      0.2595
     88  O         89.9660   44.8720  -46.4590 O.2   270  PHE270     -0.2718
     89  CB        91.8700   45.1960  -48.8950 C.3   270  PHE270      0.0547
     90  CG        91.5360   46.2510  -49.9140 C.ar  270  PHE270     -0.0202
     91  CD1       92.4330   46.6180  -50.8840 C.ar  270  PHE270     -0.0042
     92  CD2       90.3100   46.8450  -49.9290 C.ar  270  PHE270     -0.0042
     93  CE1       92.1210   47.5480  -51.8000 C.ar  270  PHE270     -0.0003
     94  CE2       90.0200   47.7710  -50.8490 C.ar  270  PHE270     -0.0003
     95  CZ        90.9310   48.1190  -51.7820 C.ar  270  PHE270     -0.0000
     96  N         89.9320   46.8600  -47.1020 N.am  271  ALA271     -0.1980
     97  CA        88.5580   46.8850  -46.6290 C.3   271  ALA271      0.1597
     98  C         88.4940   47.1040  -45.1220 C.2   271  ALA271      0.2287
     99  O         87.4080   47.3300  -44.5850 O.2   271  ALA271     -0.2864
    100  CB        87.8850   45.5510  -46.9050 C.3   271  ALA271      0.0319
    101  N         87.6620   51.0870  -46.1970 N.3   275  THR275     -0.1218
    102  CA        86.2270   51.3330  -46.1450 C.3   275  THR275      0.1862
    103  C         85.8530   52.3810  -45.0920 C.2   275  THR275      0.2287
    104  O         85.4150   53.4750  -45.4020 O.2   275  THR275     -0.2866
    105  CB        85.4930   50.0570  -45.8670 C.3   275  THR275      0.1770
    106  OG1       85.9800   49.5150  -44.6330 O.3   275  THR275     -0.2211
    107  CG2       85.7750   49.0710  -46.9780 C.3   275  THR275      0.0375
    108  N         79.6100   54.2360  -50.4330 N.3   335  LEU335     -0.1245
    109  CA        80.9330   53.6430  -50.6490 C.3   335  LEU335      0.1561
    110  C         80.9760   52.6460  -51.8090 C.2   335  LEU335      0.2260
    111  O         81.9160   52.6330  -52.6020 O.2   335  LEU335     -0.2867
    112  CB        81.4040   52.9410  -49.3700 C.3   335  LEU335      0.0270
    113  CG        82.8270   52.3670  -49.3770 C.3   335  LEU335      0.0019
    114  CD1       83.8860   53.4640  -49.4720 C.3   335  LEU335      0.0001
    115  CD2       83.0970   51.3840  -48.2180 C.3   335  LEU335      0.0001
    116  N         77.8310   42.3120  -45.3750 N.3   409  CYS409     -0.1235
    117  CA        79.1660   42.6110  -44.8820 C.3   409  CYS409      0.1677
    118  C         79.5070   41.9830  -43.5400 C.2   409  CYS409      0.2270
    119  O         78.8540   42.2150  -42.5290 O.2   409  CYS409     -0.2867
    120  CB        79.3510   44.1290  -44.8090 C.3   409  CYS409      0.0956
    121  SG        80.9080   44.6870  -44.0990 S.3   409  CYS409     -0.0801
@<TRIPOS>BOND
     1     3     4    2
     2     3     2    1
     3     2     1    1
     4     2     5    1
     5     9    10    1
     6    58    57    2
     7     7     5    1
     8     5     6    1
     9    57    56    1
    10    11    10    1
    11    11    12    2
    12    10    13    1
    13    56    55    1
    14    56    59    1
    15     6     8    1
    16    13    14    1
    17    13    15    1
    18    14    16    1
    19    59    60    1
    20    60    61    1
    21    17    18    1
    22    19    18    1
    23    19    20    2
    24    69    68    1
    25    47    46    2
    26    18    21    1
    27    62    61    1
    28    68    67    1
    29    68    70    1
    30    63    64    1
    31    67    64    1
    32    21    22    1
    33    21    23    1
    34    46    45    1
    35    39    41   ar
    36    39    38   ar
    37    41    43   ar
    38    36    35    2
    39    64    65    1
    40    22    24    1
    41    65    66    2
    42    44    45    1
    43    37    38    1
    44    37    34    1
    45    45    48    1
    46    38    40   ar
    47    43    42   ar
    48    35    34    1
    49    34    33    1
    50    40    42   ar
    51    50    52   ar
    52    50    49   ar
    53    48    49    1
    54    52    54   ar
    55    49    51   ar
    56   111   110    2
    57    54    53   ar
    58    33    27   am
    59    51    53   ar
    60    78    76    1
    61    28    27    2
    62   110   109    1
    63    93    95   ar
    64    93    91   ar
    65    95    94   ar
    66    27    26    1
    67    91    90   ar
    68    94    92   ar
    69    31    29    1
    70    76    77    1
    71    76    75    1
    72   109   108    1
    73   109   112    1
    74    26    29    1
    75    26    25    1
    76    29    30    1
    77    92    90   ar
    78    90    89    1
    79    84    83    1
    80    75    72    1
    81   114   113    1
    82   113   112    1
    83   113   115    1
    84    89    86    1
    85    30    32    1
    86    83    80    1
    87    80    79    1
    88    80    81    1
    89    79    73   am
    90    72    73    1
    91    72    71    1
    92    73    74    2
    93    86    87    1
    94    86    85    1
    95    96    87   am
    96    96    97    1
    97    82    81    2
    98   107   105    1
    99    87    88    2
   100   100    97    1
   101    97    98    1
   102   101   102    1
   103   102   105    1
   104   102   103    1
   105   105   106    1
   106   104   103    2
   107   116   117    1
   108    98    99    2
   109   117   120    1
   110   117   118    1
   111   120   121    1
   112   118   119    2
