@<TRIPOS>MOLECULE
tmp/5e58A03.pdb
 117 112 0 0 0
SMALL
GASTEIGER

@<TRIPOS>ATOM
      1  N         65.9250   26.4770    6.7270 N.3    57  ARG57      -0.1245
      2  CA        66.4990   27.7980    7.0140 C.3    57  ARG57       0.1563
      3  C         66.1830   28.3350    8.3840 C.2    57  ARG57       0.2260
      4  O         67.0060   28.9910    8.9950 O.2    57  ARG57      -0.2867
      5  CB        66.0280   28.8070    5.9870 C.3    57  ARG57       0.0307
      6  CG        66.6620   28.6000    4.6470 C.3    57  ARG57       0.0489
      7  CD        66.2760   29.6860    3.6640 C.3    57  ARG57       0.2205
      8  NE        67.2170   29.7500    2.5570 N.pl3  57  ARG57      -0.0865
      9  CZ        68.2010   30.6310    2.4890 C.cat  57  ARG57       0.5346
     10  NH1       68.3020   31.5710    3.4210 N.pl3  57  ARG57       0.1354
     11  NH2       69.0260   30.6170    1.4560 N.pl3  57  ARG57       0.1354
     12  N         73.8160   24.9680  -12.1470 N.3   326  HIS326     -0.1241
     13  CA        72.9370   25.0180  -10.9930 C.3   326  HIS326      0.1621
     14  C         71.9590   23.8500  -11.0540 C.2   326  HIS326      0.2264
     15  O         71.7820   23.1320  -10.0790 O.2   326  HIS326     -0.2867
     16  CB        72.1720   26.3490  -10.9080 C.3   326  HIS326      0.0745
     17  CG        72.9320   27.4590  -10.2300 C.ar  326  HIS326      0.0817
     18  ND1       73.9870   28.1200  -10.8270 N.ar  326  HIS326     -0.2268
     19  CD2       72.7500   28.0550   -9.0280 C.ar  326  HIS326      0.1154
     20  CE1       74.4260   29.0660  -10.0190 C.ar  326  HIS326      0.1986
     21  NE2       73.7010   29.0400   -8.9160 N.ar  326  HIS326     -0.2212
     22  N         68.7300   33.4350   -8.9320 N.3   394  LYS394     -0.1231
     23  CA        69.1000   32.8170   -7.6700 C.3   394  LYS394      0.1693
     24  C         67.8910   32.2550   -6.9510 C.2   394  LYS394      0.2593
     25  O         66.7600   32.6540   -7.2230 O.2   394  LYS394     -0.2718
     26  CB        69.7730   33.8180   -6.7420 C.3   394  LYS394      0.0285
     27  CG        70.9390   34.5710   -7.3250 C.3   394  LYS394      0.0035
     28  CD        72.2140   33.7900   -7.4490 C.3   394  LYS394      0.0206
     29  CE        73.3040   34.7680   -7.8420 C.3   394  LYS394      0.1093
     30  NZ        73.2620   35.9820   -6.9650 N.3   394  LYS394     -0.1314
     31  N         68.1430   31.3790   -5.9830 N.am  395  SER395     -0.1938
     32  CA        67.0710   30.7950   -5.1810 C.3   395  SER395      0.2055
     33  C         67.5110   30.4070   -3.7640 C.2   395  SER395      0.2642
     34  O         68.5120   29.7360   -3.5980 O.2   395  SER395     -0.2714
     35  CB        66.5010   29.5720   -5.8860 C.3   395  SER395      0.2130
     36  OG        65.5720   28.9450   -5.0410 O.3   395  SER395     -0.2179
     37  N         66.7500   30.8310   -2.7590 N.am  396  GLU396     -0.1976
     38  CA        66.9780   30.5000   -1.3470 C.3   396  GLU396      0.1602
     39  C         66.8720   29.0200   -1.0880 C.2   396  GLU396      0.2287
     40  O         67.2720   28.5280   -0.0350 O.2   396  GLU396     -0.2864
     41  CB        65.9290   31.1700   -0.4690 C.3   396  GLU396      0.0415
     42  CG        65.9640   32.6680   -0.3930 C.3   396  GLU396      0.1163
     43  CD        65.3050   33.1580    0.8790 C.2   396  GLU396      0.3649
     44  OE1       66.0150   33.4640    1.8580 O.co2 396  GLU396     -0.2457
     45  OE2       64.0530   33.1960    0.9080 O.co2 396  GLU396     -0.2457
     46  N         68.1460   26.8520   -3.1770 N.3   398  PHE398     -0.1227
     47  CA        69.3510   26.2030   -3.7030 C.3   398  PHE398      0.1736
     48  C         70.3750   25.9820   -2.5910 C.2   398  PHE398      0.2595
     49  O         71.1530   26.8650   -2.2910 O.2   398  PHE398     -0.2718
     50  CB        69.9370   27.0360   -4.8450 C.3   398  PHE398      0.0547
     51  CG        71.0440   26.3650   -5.5890 C.ar  398  PHE398     -0.0202
     52  CD1       70.7810   25.2550   -6.3740 C.ar  398  PHE398     -0.0042
     53  CD2       72.3150   26.9080   -5.6060 C.ar  398  PHE398     -0.0042
     54  CE1       71.7860   24.6360   -7.0920 C.ar  398  PHE398     -0.0003
     55  CE2       73.3230   26.3110   -6.3290 C.ar  398  PHE398     -0.0003
     56  CZ        73.0620   25.1730   -7.0770 C.ar  398  PHE398     -0.0000
     57  N         70.3500   24.8200   -1.9440 N.am  399  MET399     -0.1979
     58  CA        71.3370   24.5640   -0.8950 C.3   399  MET399      0.1605
     59  C         72.0900   23.2600   -1.0530 C.2   399  MET399      0.2287
     60  O         72.1250   22.4420   -0.1320 O.2   399  MET399     -0.2864
     61  CB        70.6830   24.6010    0.4680 C.3   399  MET399      0.0413
     62  CG        69.8410   25.8090    0.6630 C.3   399  MET399      0.0598
     63  SD        68.7980   25.6490    2.1080 S.3   399  MET399     -0.1393
     64  CE        69.0910   27.2320    2.7860 C.3   399  MET399      0.0692
     65  N         75.0890   22.7910   -0.9870 N.3   401  PHE401     -0.1227
     66  CA        76.2420   22.8430   -0.0820 C.3   401  PHE401      0.1736
     67  C         75.8230   23.0820    1.3630 C.2   401  PHE401      0.2596
     68  O         76.6740   23.3900    2.2300 O.2   401  PHE401     -0.2718
     69  CB        77.2110   23.9540   -0.5030 C.3   401  PHE401      0.0547
     70  CG        77.7580   23.7990   -1.8940 C.ar  401  PHE401     -0.0202
     71  CD1       78.7930   22.9150   -2.1500 C.ar  401  PHE401     -0.0042
     72  CD2       77.2600   24.5650   -2.9380 C.ar  401  PHE401     -0.0042
     73  CE1       79.3060   22.7720   -3.4300 C.ar  401  PHE401     -0.0003
     74  CE2       77.7610   24.4290   -4.2270 C.ar  401  PHE401     -0.0003
     75  CZ        78.7900   23.5310   -4.4700 C.ar  401  PHE401     -0.0000
     76  N         74.5190   22.9090    1.6050 N.am  402  SER402     -0.1938
     77  CA        73.8620   23.2390    2.8620 C.3   402  SER402      0.2055
     78  C         73.8730   24.7640    3.1380 C.2   402  SER402      0.2642
     79  O         73.9930   25.5770    2.2260 O.2   402  SER402     -0.2714
     80  CB        74.4890   22.4510    4.0360 C.3   402  SER402      0.2130
     81  OG        73.6870   22.5340    5.2120 O.3   402  SER402     -0.2179
     82  N         73.6980   25.1350    4.3990 N.am  403  ILE403     -0.1977
     83  CA        73.5560   26.5120    4.8060 C.3   403  ILE403      0.1596
     84  C         73.9180   26.6760    6.2920 C.2   403  ILE403      0.2287
     85  O         73.9560   25.6940    7.0470 O.2   403  ILE403     -0.2864
     86  CB        72.0920   26.9780    4.5590 C.3   403  ILE403      0.0276
     87  CG1       72.0300   28.4690    4.3120 C.3   403  ILE403      0.0022
     88  CG2       71.1990   26.6120    5.7100 C.3   403  ILE403      0.0022
     89  CD1       72.2970   28.7810    2.8890 C.3   403  ILE403      0.0001
     90  N         78.1790   25.1700    6.6720 N.3   407  ILE407     -0.1245
     91  CA        78.0950   25.2040    5.2160 C.3   407  ILE407      0.1561
     92  C         79.3990   24.7220    4.6620 C.2   407  ILE407      0.2260
     93  O         80.4290   24.9890    5.2300 O.2   407  ILE407     -0.2867
     94  CB        77.7610   26.6200    4.6500 C.3   407  ILE407      0.0252
     95  CG1       77.4500   26.5370    3.1630 C.3   407  ILE407      0.0019
     96  CG2       78.8790   27.6390    4.9080 C.3   407  ILE407      0.0019
     97  CD1       76.9660   27.8890    2.5870 C.3   407  ILE407      0.0001
     98  N         82.7090   24.9590   -0.9690 N.3   411  GLU411     -0.1245
     99  CA        81.7160   25.4840   -1.9380 C.3   411  GLU411      0.1567
    100  C         82.3420   26.2950   -3.0820 C.2   411  GLU411      0.2260
    101  O         82.0680   26.0420   -4.2670 O.2   411  GLU411     -0.2867
    102  CB        80.6450   26.3150   -1.2370 C.3   411  GLU411      0.0388
    103  CG        79.7110   27.0040   -2.2490 C.3   411  GLU411      0.1160
    104  CD        78.4320   27.5650   -1.6500 C.2   411  GLU411      0.3649
    105  OE1       77.4900   27.7220   -2.4390 O.co2 411  GLU411     -0.2457
    106  OE2       78.3470   27.8500   -0.4330 O.co2 411  GLU411     -0.2457
    107  N         82.3340   25.0360   -6.9740 N.3   415  ARG415     -0.1245
    108  CA        81.6420   25.8030   -8.0150 C.3   415  ARG415      0.1563
    109  C         82.6460   26.1050   -9.1520 C.2   415  ARG415      0.2260
    110  O         82.3750   25.8440  -10.3240 O.2   415  ARG415     -0.2867
    111  CB        81.0400   27.0970   -7.4320 C.3   415  ARG415      0.0307
    112  CG        79.7540   26.8950   -6.6240 C.3   415  ARG415      0.0489
    113  CD        79.3770   28.1520   -5.8810 C.3   415  ARG415      0.2205
    114  NE        78.0240   28.1450   -5.3360 N.pl3 415  ARG415     -0.0865
    115  CZ        76.9320   28.6410   -5.9180 C.cat 415  ARG415      0.5346
    116  NH1       76.9810   29.2180   -7.1210 N.pl3 415  ARG415      0.1354
    117  NH2       75.7750   28.5690   -5.2730 N.pl3 415  ARG415      0.1354
@<TRIPOS>BOND
     1    12    13    1
     2    14    13    1
     3    14    15    2
     4    13    16    1
     5    16    17    1
     6    18    17   ar
     7    18    20   ar
     8   110   109    2
     9    17    19   ar
    10    20    21   ar
    11   109   108    1
    12    19    21   ar
    13    22    23    1
    14   108   111    1
    15   108   107    1
    16    29    28    1
    17    29    30    1
    18    23    24    1
    19    23    26    1
    20    28    27    1
    21   111   112    1
    22    27    26    1
    23    25    24    2
    24   116   115    1
    25    54    56   ar
    26    54    52   ar
    27    56    55   ar
    28    24    31   am
    29   112   113    1
    30    52    51   ar
    31    55    53   ar
    32    31    32    1
    33   115   114    2
    34   115   117    1
    35    35    32    1
    36    35    36    1
    37   113   114    1
    38    53    51   ar
    39    51    50    1
    40    32    33    1
    41    50    47    1
    42    75    74   ar
    43    75    73   ar
    44   101   100    2
    45    74    72   ar
    46    33    34    2
    47    33    37   am
    48    47    46    1
    49    47    48    1
    50    73    71   ar
    51   100    99    1
    52    72    70   ar
    53    37    38    1
    54    48    49    2
    55    48    57   am
    56   105   104   ar
    57   103   104    1
    58   103   102    1
    59    71    70   ar
    60    57    58    1
    61    99   102    1
    62    99    98    1
    63    70    69    1
    64   104   106   ar
    65    38    39    1
    66    38    41    1
    67    39    40    2
    68    59    58    1
    69    59    60    2
    70    65    66    1
    71    58    61    1
    72    69    66    1
    73    41    42    1
    74    42    43    1
    75    66    67    1
    76    61    62    1
    77    62    63    1
    78    43    45   ar
    79    43    44   ar
    80    67    76   am
    81    67    68    2
    82    11     9    1
    83    76    77    1
    84    63    64    1
    85    79    78    2
    86     9     8    2
    87     9    10    1
    88     8     7    1
    89    97    95    1
    90    77    78    1
    91    77    80    1
    92    89    87    1
    93    78    82   am
    94    95    94    1
    95     7     6    1
    96    80    81    1
    97    87    86    1
    98    82    83    1
    99    86    83    1
   100    86    88    1
   101     6     5    1
   102    94    96    1
   103    94    91    1
   104    92    91    1
   105    92    93    2
   106    83    84    1
   107    91    90    1
   108     5     2    1
   109    84    85    2
   110     1     2    1
   111     2     3    1
   112     3     4    2
