@<TRIPOS>MOLECULE
tmp/5e58C02.pdb
 112 106 0 0 0
SMALL
GASTEIGER

@<TRIPOS>ATOM
      1  N         78.5810   34.8710  -55.9070 N.3    71  ARG71      -0.1245
      2  CA        79.4740   36.0150  -56.0330 C.3    71  ARG71       0.1563
      3  C         79.9780   36.1300  -57.4700 C.2    71  ARG71       0.2260
      4  O         80.5050   35.1470  -58.0250 O.2    71  ARG71      -0.2867
      5  CB        80.6520   35.9040  -55.0690 C.3    71  ARG71       0.0307
      6  CG        81.8340   36.8350  -55.3870 C.3    71  ARG71       0.0489
      7  CD        81.5050   38.2490  -55.0390 C.3    71  ARG71       0.2205
      8  NE        81.3320   38.4980  -53.6160 N.pl3  71  ARG71      -0.0865
      9  CZ        80.4090   39.3040  -53.1040 C.cat  71  ARG71       0.5346
     10  NH1       79.5110   39.9100  -53.9000 N.pl3  71  ARG71       0.1354
     11  NH2       80.3530   39.5040  -51.8010 N.pl3  71  ARG71       0.1354
     12  N         85.0660   40.8620  -60.4800 N.3    74  ILE74      -0.1245
     13  CA        85.5790   42.1660  -60.8530 C.3    74  ILE74       0.1561
     14  C         86.8690   41.9010  -61.6330 C.2    74  ILE74       0.2260
     15  O         87.8110   41.2840  -61.0990 O.2    74  ILE74      -0.2867
     16  CB        85.8310   43.0620  -59.6410 C.3    74  ILE74       0.0252
     17  CG1       84.5380   43.2520  -58.8320 C.3    74  ILE74       0.0019
     18  CG2       86.3950   44.3860  -60.0890 C.3    74  ILE74       0.0019
     19  CD1       84.7170   43.9690  -57.4800 C.3    74  ILE74       0.0001
     20  N         85.7430   36.6570  -49.4230 N.3    87  ILE87      -0.1231
     21  CA        85.0000   37.6990  -50.0980 C.3    87  ILE87       0.1692
     22  C         84.6580   37.3040  -51.5190 C.2    87  ILE87       0.2592
     23  O         83.5430   37.5100  -51.9840 O.2    87  ILE87      -0.2718
     24  CB        85.7650   39.0370  -50.0920 C.3    87  ILE87       0.0266
     25  CG1       86.0090   39.4810  -48.6450 C.3    87  ILE87       0.0019
     26  CG2       84.9800   40.0960  -50.8260 C.3    87  ILE87       0.0020
     27  CD1       86.5740   40.8510  -48.5130 C.3    87  ILE87       0.0001
     28  N         85.6470   36.8160  -52.2450 N.am   88  PHE88      -0.1976
     29  CA        85.4280   36.5640  -53.6580 C.3    88  PHE88       0.1639
     30  C         85.1720   35.1070  -54.0170 C.2    88  PHE88       0.2290
     31  O         85.2610   34.7230  -55.1800 O.2    88  PHE88      -0.2864
     32  CB        86.5940   37.1610  -54.4480 C.3    88  PHE88       0.0560
     33  CG        86.5950   38.6560  -54.4010 C.ar   88  PHE88      -0.0200
     34  CD1       85.7810   39.3750  -55.2610 C.ar   88  PHE88      -0.0042
     35  CD2       87.3350   39.3410  -53.4510 C.ar   88  PHE88      -0.0042
     36  CE1       85.7310   40.7540  -55.1910 C.ar   88  PHE88      -0.0003
     37  CE2       87.2920   40.7070  -53.3770 C.ar   88  PHE88      -0.0003
     38  CZ        86.4780   41.4190  -54.2480 C.ar   88  PHE88      -0.0000
     39  N         92.4930   51.3550  -54.5040 N.3   179  PHE179     -0.1241
     40  CA        91.0440   51.5410  -54.4410 C.3   179  PHE179      0.1605
     41  C         90.6120   52.6100  -55.4510 C.2   179  PHE179      0.2264
     42  O         89.5950   52.4610  -56.1390 O.2   179  PHE179     -0.2867
     43  CB        90.6010   51.9020  -53.0220 C.3   179  PHE179      0.0534
     44  CG        89.1060   51.9400  -52.8300 C.ar  179  PHE179     -0.0203
     45  CD1       88.3200   50.8480  -53.1620 C.ar  179  PHE179     -0.0042
     46  CD2       88.5010   53.0340  -52.2380 C.ar  179  PHE179     -0.0042
     47  CE1       86.9300   50.8640  -52.9510 C.ar  179  PHE179     -0.0003
     48  CE2       87.1220   53.0620  -52.0240 C.ar  179  PHE179     -0.0003
     49  CZ        86.3360   51.9730  -52.3770 C.ar  179  PHE179     -0.0000
     50  N         90.8290   51.0010  -58.8280 N.3   182  MET182     -0.1245
     51  CA        89.7220   50.0730  -59.0230 C.3   182  MET182      0.1570
     52  C         88.4800   50.8700  -59.4060 C.2   182  MET182      0.2261
     53  O         87.6960   50.4530  -60.2540 O.2   182  MET182     -0.2867
     54  CB        89.4590   49.2470  -57.7460 C.3   182  MET182      0.0387
     55  CG        90.5780   48.2040  -57.4500 C.3   182  MET182      0.0595
     56  SD        90.4580   47.3680  -55.8560 S.3   182  MET182     -0.1393
     57  CE        88.8170   46.6520  -55.9580 C.3   182  MET182      0.0692
     58  N         92.6920   44.7900  -46.6540 N.3   270  PHE270     -0.1241
     59  CA        91.9290   45.6930  -47.4760 C.3   270  PHE270      0.1605
     60  C         90.5390   45.7670  -46.9580 C.2   270  PHE270      0.2264
     61  O         89.9660   44.8720  -46.4590 O.2   270  PHE270     -0.2867
     62  CB        91.8700   45.1960  -48.8950 C.3   270  PHE270      0.0534
     63  CG        91.5360   46.2510  -49.9140 C.ar  270  PHE270     -0.0203
     64  CD1       92.4330   46.6180  -50.8840 C.ar  270  PHE270     -0.0042
     65  CD2       90.3100   46.8450  -49.9290 C.ar  270  PHE270     -0.0042
     66  CE1       92.1210   47.5480  -51.8000 C.ar  270  PHE270     -0.0003
     67  CE2       90.0200   47.7710  -50.8490 C.ar  270  PHE270     -0.0003
     68  CZ        90.9310   48.1190  -51.7820 C.ar  270  PHE270     -0.0000
     69  N         87.6620   51.0870  -46.1970 N.3   275  THR275     -0.1218
     70  CA        86.2270   51.3330  -46.1450 C.3   275  THR275      0.1862
     71  C         85.8530   52.3810  -45.0920 C.2   275  THR275      0.2287
     72  O         85.4150   53.4750  -45.4020 O.2   275  THR275     -0.2866
     73  CB        85.4930   50.0570  -45.8670 C.3   275  THR275      0.1770
     74  OG1       85.9800   49.5150  -44.6330 O.3   275  THR275     -0.2211
     75  CG2       85.7750   49.0710  -46.9780 C.3   275  THR275      0.0375
     76  N         79.6100   54.2360  -50.4330 N.3   335  LEU335     -0.1231
     77  CA        80.9330   53.6430  -50.6490 C.3   335  LEU335      0.1693
     78  C         80.9760   52.6460  -51.8090 C.2   335  LEU335      0.2591
     79  O         81.9160   52.6330  -52.6020 O.2   335  LEU335     -0.2718
     80  CB        81.4040   52.9410  -49.3700 C.3   335  LEU335      0.0284
     81  CG        82.8270   52.3670  -49.3770 C.3   335  LEU335      0.0019
     82  CD1       83.8860   53.4640  -49.4720 C.3   335  LEU335      0.0001
     83  CD2       83.0970   51.3840  -48.2180 C.3   335  LEU335      0.0001
     84  N         79.9600   51.8040  -51.9040 N.am  336  ALA336     -0.1980
     85  CA        79.8530   50.8720  -53.0130 C.3   336  ALA336      0.1597
     86  C         78.5470   51.1470  -53.7490 C.2   336  ALA336      0.2287
     87  O         77.5110   50.6210  -53.3430 O.2   336  ALA336     -0.2864
     88  CB        79.9170   49.4440  -52.5200 C.3   336  ALA336      0.0319
     89  N         76.4910   47.1740  -55.8790 N.3   339  GLY339     -0.1210
     90  CA        76.8710   46.3950  -54.7120 C.3   339  GLY339      0.1956
     91  C         78.2780   45.8580  -54.8760 C.2   339  GLY339      0.2612
     92  O         79.2130   46.6000  -55.1990 O.2   339  GLY339     -0.2717
     93  N         78.4450   44.5890  -54.5310 N.am  340  ALA340     -0.1966
     94  CA        79.5600   43.7980  -55.0030 C.3   340  ALA340      0.1713
     95  C         78.8880   42.9070  -56.0270 C.2   340  ALA340      0.2458
     96  O         77.7040   42.6440  -55.8860 O.2   340  ALA340     -0.2730
     97  CB        80.1760   43.0130  -53.9190 C.3   340  ALA340      0.0333
     98  N         79.5950   42.4780  -57.0710 N.am  341  PRO341     -0.2727
     99  CA        78.8850   41.6370  -58.0400 C.3   341  PRO341      0.1402
    100  C         78.3880   40.3290  -57.4050 C.2   341  PRO341      0.2269
    101  O         79.1720   39.5840  -56.7770 O.2   341  PRO341     -0.2865
    102  CB        79.9320   41.3530  -59.1160 C.3   341  PRO341      0.0296
    103  CG        81.0130   42.3590  -58.9250 C.3   341  PRO341      0.0237
    104  CD        80.9760   42.7860  -57.4780 C.3   341  PRO341      0.0939
    105  N         83.2800   51.0850  -58.8010 N.3   450  ILE450     -0.1245
    106  CA        83.0030   49.9810  -57.9190 C.3   450  ILE450      0.1561
    107  C         83.1160   50.4780  -56.5210 C.2   450  ILE450      0.2260
    108  O         82.4880   49.9900  -55.6580 O.2   450  ILE450     -0.2867
    109  CB        83.8740   48.7720  -58.1660 C.3   450  ILE450      0.0252
    110  CG1       83.2090   47.5340  -57.5890 C.3   450  ILE450      0.0019
    111  CG2       85.2370   48.9480  -57.5560 C.3   450  ILE450      0.0019
    112  CD1       82.0580   47.0290  -58.3600 C.3   450  ILE450      0.0001
@<TRIPOS>BOND
     1    14    15    2
     2    14    13    1
     3    13    12    1
     4    13    16    1
     5    53    52    2
     6    18    16    1
     7    16    17    1
     8    52    51    1
     9   102   103    1
    10   102    99    1
    11    51    50    1
    12    51    54    1
    13   103   104    1
    14    17    19    1
    15   105   106    1
    16   112   110    1
    17   109   106    1
    18   109   110    1
    19   109   111    1
    20    99   100    1
    21    99    98    1
    22     4     3    2
    23   106   107    1
    24    54    55    1
    25   104    98    1
    26     3     2    1
    27    55    56    1
    28   100   101    2
    29    98    95   am
    30   107   108    2
    31    42    41    2
    32     2     1    1
    33     2     5    1
    34    95    96    2
    35    95    94    1
    36    57    56    1
    37    89    90    1
    38    41    40    1
    39     6     5    1
    40     6     7    1
    41    34    36   ar
    42    34    33   ar
    43    92    91    2
    44    36    38   ar
    45    31    30    2
    46     7     8    1
    47    94    93    1
    48    94    97    1
    49    91    90    1
    50    91    93   am
    51    39    40    1
    52    32    33    1
    53    32    29    1
    54    40    43    1
    55    33    35   ar
    56    38    37   ar
    57    30    29    1
    58    10     9    1
    59    86    87    2
    60    86    85    1
    61    29    28    1
    62     8     9    2
    63    35    37   ar
    64    45    47   ar
    65    45    44   ar
    66     9    11    1
    67    43    44    1
    68    85    88    1
    69    85    84    1
    70    47    49   ar
    71    44    46   ar
    72    79    78    2
    73    49    48   ar
    74    28    22   am
    75    46    48   ar
    76    23    22    2
    77    84    78   am
    78    78    77    1
    79    66    68   ar
    80    66    64   ar
    81    68    67   ar
    82    22    21    1
    83    64    63   ar
    84    67    65   ar
    85    26    24    1
    86    77    76    1
    87    77    80    1
    88    21    24    1
    89    21    20    1
    90    24    25    1
    91    65    63   ar
    92    63    62    1
    93    82    81    1
    94    81    80    1
    95    81    83    1
    96    62    59    1
    97    25    27    1
    98    59    60    1
    99    59    58    1
   100    75    73    1
   101    60    61    2
   102    69    70    1
   103    70    73    1
   104    70    71    1
   105    73    74    1
   106    72    71    2
