@<TRIPOS>MOLECULE
tmp/5e5iA00.pdb
 139 134 0 0 0
SMALL
GASTEIGER

@<TRIPOS>ATOM
      1  N         42.2840   -0.5290   53.1790 N.3    31  TYR31      -0.1241
      2  CA        41.4220   -0.4490   51.9950 C.3    31  TYR31       0.1605
      3  C         42.2180   -0.8770   50.7580 C.2    31  TYR31       0.2264
      4  O         43.4080   -0.5870   50.6390 O.2    31  TYR31      -0.2867
      5  CB        40.9010    0.9690   51.7570 C.3    31  TYR31       0.0534
      6  CG        39.6910    1.3080   52.6150 C.ar   31  TYR31      -0.0201
      7  CD1       39.8260    1.6420   53.9850 C.ar   31  TYR31      -0.0009
      8  CD2       38.3940    1.2480   52.0790 C.ar   31  TYR31      -0.0009
      9  CE1       38.6980    1.9170   54.7690 C.ar   31  TYR31       0.0417
     10  CE2       37.2750    1.5160   52.8660 C.ar   31  TYR31       0.0417
     11  CZ        37.4470    1.8530   54.2030 C.ar   31  TYR31       0.1957
     12  OH        36.3540    2.0900   55.0000 O.3    31  TYR31      -0.2866
     13  N         29.1750    7.6940   48.6930 N.3    60  GLY60      -0.1210
     14  CA        29.4450    7.4340   50.0790 C.3    60  GLY60       0.1956
     15  C         28.6340    6.3010   50.6620 C.2    60  GLY60       0.2611
     16  O         28.4670    6.1970   51.8960 O.2    60  GLY60      -0.2717
     17  N         28.2360    5.4110   49.7660 N.am   61  VAL61      -0.1979
     18  CA        27.2940    4.2960   50.0200 C.3    61  VAL61       0.1595
     19  C         25.9870    4.9350   50.6040 C.2    61  VAL61       0.2287
     20  O         25.4980    4.5640   51.6550 O.2    61  VAL61      -0.2864
     21  CB        27.8590    3.1760   50.8980 C.3    61  VAL61       0.0276
     22  CG1       26.9570    1.9510   50.8010 C.3    61  VAL61       0.0022
     23  CG2       29.2640    2.7390   50.4700 C.3    61  VAL61       0.0022
     24  N         28.9170    8.0940   64.3600 N.3   117  THR117     -0.1203
     25  CA        29.0050    7.1820   63.2480 C.3   117  THR117      0.1994
     26  C         27.8820    6.1370   63.2700 C.2   117  THR117      0.2618
     27  O         27.2080    5.9550   64.2770 O.2   117  THR117     -0.2717
     28  CB        30.3450    6.4410   63.3010 C.3   117  THR117      0.1784
     29  OG1       30.4040    5.5450   64.4450 O.3   117  THR117     -0.2211
     30  CG2       31.5110    7.3980   63.3360 C.3   117  THR117      0.0376
     31  N         27.7600    5.4010   62.1630 N.am  118  GLY118     -0.1942
     32  CA        26.7870    4.3680   62.0650 C.3   118  GLY118      0.2014
     33  C         27.0460    3.2780   63.1020 C.2   118  GLY118      0.2638
     34  O         26.0950    2.8210   63.7920 O.2   118  GLY118     -0.2714
     35  N         28.3100    2.9430   63.2370 N.am  119  ALA119     -0.1977
     36  CA        28.6970    1.8770   64.2370 C.3   119  ALA119      0.1597
     37  C         28.2870    2.3030   65.6250 C.2   119  ALA119      0.2287
     38  O         27.8480    1.5060   66.4140 O.2   119  ALA119     -0.2864
     39  CB        30.1960    1.6850   64.2010 C.3   119  ALA119      0.0319
     40  N         25.6770   -5.9190   58.0900 N.3   153  TYR153     -0.1227
     41  CA        26.7960   -5.0330   58.2720 C.3   153  TYR153      0.1736
     42  C         26.2720   -3.8490   59.0750 C.2   153  TYR153      0.2595
     43  O         25.3010   -3.3030   58.6920 O.2   153  TYR153     -0.2718
     44  CB        27.3670   -4.5060   56.9780 C.3   153  TYR153      0.0548
     45  CG        28.6020   -3.6770   57.1980 C.ar  153  TYR153     -0.0200
     46  CD1       28.5170   -2.3400   57.5460 C.ar  153  TYR153     -0.0009
     47  CD2       29.8510   -4.2330   57.0400 C.ar  153  TYR153     -0.0009
     48  CE1       29.6520   -1.5880   57.7430 C.ar  153  TYR153      0.0417
     49  CE2       31.0130   -3.5000   57.2490 C.ar  153  TYR153      0.0417
     50  CZ        30.9000   -2.1750   57.5680 C.ar  153  TYR153      0.1957
     51  OH        32.0320   -1.4530   57.7480 O.3   153  TYR153     -0.2866
     52  N         26.8770   -3.5430   60.2100 N.am  154  TRP154     -0.1962
     53  CA        26.4870   -2.3800   60.9940 C.3   154  TRP154      0.1775
     54  C         27.6760   -1.6070   61.5350 C.2   154  TRP154      0.2659
     55  O         27.5090   -0.5530   62.1190 O.2   154  TRP154     -0.2711
     56  CB        25.4950   -2.7170   62.0770 C.3   154  TRP154      0.0591
     57  CG        25.9040   -3.6120   63.1750 C.ar  154  TRP154      0.0006
     58  CD1       25.7290   -4.9490   63.2140 C.ar  154  TRP154      0.0946
     59  CD2       26.5050   -3.2500   64.4210 C.ar  154  TRP154      0.0152
     60  NE1       26.1880   -5.4630   64.4170 N.ar  154  TRP154     -0.2442
     61  CE2       26.6760   -4.4460   65.1710 C.ar  154  TRP154      0.0810
     62  CE3       26.9850   -2.0470   64.9580 C.ar  154  TRP154      0.0012
     63  CZ2       27.1950   -4.4490   66.4440 C.ar  154  TRP154      0.0191
     64  CZ3       27.5170   -2.0540   66.1930 C.ar  154  TRP154      0.0001
     65  CH2       27.6410   -3.2570   66.9410 C.ar  154  TRP154      0.0015
     66  N         28.8720   -2.1290   61.3190 N.am  155  GLY155     -0.1716
     67  CA        30.0510   -1.4590   61.8200 C.2   155  GLY155      0.1480
     68  C         31.2850   -2.2720   61.9220 C.2   155  GLY155      0.2820
     69  O         31.3120   -3.4190   61.5080 O.2   155  GLY155     -0.2669
     70  N         32.3260   -1.6170   62.4650 N.am  156  ARG156     -0.1943
     71  CA        33.6210   -2.2090   62.6460 C.3   156  ARG156      0.1600
     72  C         34.1540   -2.3220   64.0850 C.2   156  ARG156      0.2287
     73  O         35.3400   -2.6140   64.2860 O.2   156  ARG156     -0.2864
     74  CB        34.6130   -1.4350   61.7680 C.3   156  ARG156      0.0334
     75  CG        34.2730   -1.5720   60.2730 C.3   156  ARG156      0.0492
     76  CD        34.6310   -2.9550   59.7590 C.3   156  ARG156      0.2205
     77  NE        34.5240   -3.0710   58.3000 N.pl3 156  ARG156     -0.0865
     78  CZ        35.1110   -3.9850   57.5470 C.cat 156  ARG156      0.5346
     79  NH1       35.8820   -4.9480   58.0810 N.pl3 156  ARG156      0.1354
     80  NH2       34.9670   -3.9180   56.2240 N.pl3 156  ARG156      0.1354
     81  N         18.2630   -4.8650   58.5810 N.3   206  GLU206     -0.1245
     82  CA        18.3000   -3.8650   57.5020 C.3   206  GLU206      0.1567
     83  C         17.0460   -4.1290   56.6250 C.2   206  GLU206      0.2260
     84  O         16.7770   -5.2540   56.2750 O.2   206  GLU206     -0.2867
     85  CB        19.5690   -4.0410   56.6420 C.3   206  GLU206      0.0388
     86  CG        20.8600   -3.8440   57.4170 C.3   206  GLU206      0.1160
     87  CD        22.1040   -4.2390   56.6430 C.2   206  GLU206      0.3649
     88  OE1       22.4900   -3.4630   55.7070 O.co2 206  GLU206     -0.2457
     89  OE2       22.6950   -5.2790   57.0520 O.co2 206  GLU206     -0.2457
     90  N         25.7240   -3.6800   52.4850 N.3   211  GLU211     -0.1245
     91  CA        27.0190   -4.2840   52.1680 C.3   211  GLU211      0.1567
     92  C         26.8510   -5.7550   51.7960 C.2   211  GLU211      0.2260
     93  O         27.6600   -6.3120   51.0370 O.2   211  GLU211     -0.2867
     94  CB        28.0040   -4.1290   53.3280 C.3   211  GLU211      0.0388
     95  CG        28.2290   -2.6590   53.7330 C.3   211  GLU211      0.1160
     96  CD        28.7500   -1.7930   52.5980 C.2   211  GLU211      0.3649
     97  OE1       29.9190   -2.0000   52.1830 O.co2 211  GLU211     -0.2457
     98  OE2       28.0110   -0.8740   52.1580 O.co2 211  GLU211     -0.2457
     99  N         17.8640   -0.7530   61.0010 N.3   239  ASP239     -0.1239
    100  CA        19.0240   -0.0020   60.5900 C.3   239  ASP239      0.1674
    101  C         18.7150    0.6080   59.2470 C.2   239  ASP239      0.2266
    102  O         18.6940   -0.0790   58.2400 O.2   239  ASP239     -0.2867
    103  CB        20.2850   -0.8910   60.5380 C.3   239  ASP239      0.1410
    104  CG        21.5230   -0.1170   60.2150 C.2   239  ASP239      0.3668
    105  OD1       21.4140    1.0520   59.7020 O.co2 239  ASP239     -0.2456
    106  OD2       22.6550   -0.6580   60.3670 O.co2 239  ASP239     -0.2456
    107  N         20.5190    3.2340   58.2240 N.3   241  ILE241     -0.1231
    108  CA        21.7160    4.0830   57.9570 C.3   241  ILE241      0.1692
    109  C         22.0210    4.2340   56.4460 C.2   241  ILE241      0.2592
    110  O         22.4080    5.3260   55.9470 O.2   241  ILE241     -0.2718
    111  CB        22.9190    3.5610   58.7690 C.3   241  ILE241      0.0266
    112  CG1       22.6200    3.8200   60.2460 C.3   241  ILE241      0.0019
    113  CG2       24.1980    4.2400   58.3540 C.3   241  ILE241      0.0020
    114  CD1       23.4810    3.0620   61.2180 C.3   241  ILE241      0.0001
    115  N         21.8720    3.1240   55.7190 N.am  242  GLN242     -0.1966
    116  CA        22.0770    3.1120   54.2670 C.3   242  GLN242      0.1733
    117  C         20.7530    3.2090   53.5070 C.2   242  GLN242      0.2617
    118  O         20.7080    3.8280   52.4520 O.2   242  GLN242     -0.2715
    119  CB        22.8530    1.8670   53.8290 C.3   242  GLN242      0.0408
    120  CG        23.0900    1.8310   52.3090 C.3   242  GLN242      0.0908
    121  CD        23.9990    0.7360   51.8270 C.2   242  GLN242      0.2608
    122  OE1       23.8930    0.3360   50.6720 O.2   242  GLN242     -0.2717
    123  NE2       24.9090    0.2500   52.6840 N.am  242  GLN242     -0.0878
    124  N         19.6560    2.6570   54.0420 N.am  243  THR243     -0.1951
    125  CA        18.4260    2.6820   53.2780 C.3   243  THR243      0.1897
    126  C         17.4350    3.8230   53.4740 C.2   243  THR243      0.2313
    127  O         16.4830    3.9360   52.6970 O.2   243  THR243     -0.2863
    128  CB        17.6180    1.3820   53.5070 C.3   243  THR243      0.1794
    129  OG1       17.2710    1.2830   54.8820 O.3   243  THR243     -0.2208
    130  CG2       18.3850    0.1280   53.0640 C.3   243  THR243      0.0378
    131  N         24.8340    8.3490   57.8490 N.3   268  LYS268     -0.1245
    132  CA        25.2040    8.6760   56.4710 C.3   268  LYS268      0.1561
    133  C         24.6070   10.0000   55.8640 C.2   268  LYS268      0.2260
    134  O         25.1110   11.0550   56.2030 O.2   268  LYS268     -0.2867
    135  CB        24.9500    7.4430   55.6170 C.3   268  LYS268      0.0271
    136  CG        25.9570    6.3260   55.8920 C.3   268  LYS268      0.0035
    137  CD        25.7810    5.0850   55.0100 C.3   268  LYS268      0.0206
    138  CE        26.9240    4.0200   55.0500 C.3   268  LYS268      0.1093
    139  NZ        27.1550    2.9980   56.2330 N.3   268  LYS268     -0.1314
@<TRIPOS>BOND
     1    13    14    1
     2    17    18    1
     3    17    15   am
     4    18    19    1
     5    18    21    1
     6    14    15    1
     7    23    21    1
     8    19    20    2
     9     4     3    2
    10    15    16    2
    11   122   121    2
    12     3     2    1
    13    22    21    1
    14    93    92    2
    15     5     2    1
    16     5     6    1
    17    92    91    1
    18   121   120    1
    19   121   123   am
    20     2     1    1
    21     8     6   ar
    22     8    10   ar
    23    98    96   ar
    24    91    90    1
    25    91    94    1
    26    97    96   ar
    27   120   119    1
    28   118   117    2
    29    96    95    1
    30     6     7   ar
    31   127   126    2
    32    10    11   ar
    33   130   128    1
    34   125   126    1
    35   125   128    1
    36   125   124    1
    37    94    95    1
    38   117   124   am
    39   117   116    1
    40   128   129    1
    41   119   116    1
    42     7     9   ar
    43    11     9   ar
    44    11    12    1
    45   116   115    1
    46   137   138    1
    47   137   136    1
    48   138   139    1
    49   135   136    1
    50   135   132    1
    51    88    87   ar
    52   115   109   am
    53   133   134    2
    54   133   132    1
    55   110   109    2
    56    80    78    1
    57    84    83    2
    58   109   108    1
    59   132   131    1
    60    83    82    1
    61    85    86    1
    62    85    82    1
    63    87    89   ar
    64    87    86    1
    65    44    45    1
    66    44    41    1
    67    47    45   ar
    68    47    49   ar
    69    45    46   ar
    70    49    50   ar
    71    82    81    1
    72    46    48   ar
    73    78    79    1
    74    78    77    2
    75    50    48   ar
    76    50    51    1
    77   108   107    1
    78   108   111    1
    79    40    41    1
    80   102   101    2
    81    41    42    1
    82    77    76    1
    83   113   111    1
    84    43    42    2
    85   111   112    1
    86    42    52   am
    87   101   100    1
    88   105   104   ar
    89    76    75    1
    90    52    53    1
    91   104   106   ar
    92   104   103    1
    93   112   114    1
    94    75    74    1
    95   103   100    1
    96   100    99    1
    97    53    54    1
    98    53    56    1
    99    66    54    1
   100    66    67    2
   101    69    68    2
   102    54    55    2
   103    74    71    1
   104    67    68    1
   105    68    70   am
   106    32    31    1
   107    32    33    1
   108    56    57    1
   109    31    26   am
   110    70    71    1
   111    71    72    1
   112    33    35   am
   113    33    34    2
   114    57    58   ar
   115    57    59   ar
   116    58    60   ar
   117    35    36    1
   118    25    26    1
   119    25    28    1
   120    25    24    1
   121    26    27    2
   122    28    30    1
   123    28    29    1
   124    72    73    2
   125    39    36    1
   126    36    37    1
   127    60    61   ar
   128    59    62   ar
   129    59    61   ar
   130    62    64   ar
   131    61    63   ar
   132    37    38    2
   133    64    65   ar
   134    63    65   ar
