@<TRIPOS>MOLECULE
tmp/5e5pA00.pdb
 107 103 0 0 0
SMALL
GASTEIGER

@<TRIPOS>ATOM
      1  N        -31.4180  -19.0680   22.4550 N.3    19  PHE19      -0.1227
      2  CA       -32.1330  -17.8900   22.9920 C.3    19  PHE19       0.1736
      3  C        -33.6150  -18.2450   23.2670 C.2    19  PHE19       0.2595
      4  O        -34.4590  -18.2710   22.3390 O.2    19  PHE19      -0.2718
      5  CB       -31.9710  -16.6830   22.0420 C.3    19  PHE19       0.0547
      6  CG       -30.5350  -16.2950   21.8850 C.ar   19  PHE19      -0.0202
      7  CD1      -29.9190  -15.5180   22.8400 C.ar   19  PHE19      -0.0042
      8  CD2      -29.7580  -16.8210   20.8580 C.ar   19  PHE19      -0.0042
      9  CE1      -28.5550  -15.2210   22.7500 C.ar   19  PHE19      -0.0003
     10  CE2      -28.4260  -16.5360   20.7570 C.ar   19  PHE19      -0.0003
     11  CZ       -27.8050  -15.7670   21.7090 C.ar   19  PHE19      -0.0000
     12  N        -33.9050  -18.5640   24.5340 N.am   20  MET20      -0.1965
     13  CA       -35.2320  -19.0180   24.9970 C.3    20  MET20       0.1736
     14  C        -36.0890  -17.9740   25.7430 C.2    20  MET20       0.2616
     15  O        -35.5970  -17.1730   26.5000 O.2    20  MET20      -0.2715
     16  CB       -35.0390  -20.2090   25.9070 C.3    20  MET20       0.0427
     17  CG       -34.5830  -21.4600   25.1700 C.3    20  MET20       0.0599
     18  SD       -34.2240  -22.8340   26.2980 S.3    20  MET20      -0.1393
     19  CE       -33.1370  -22.0470   27.4320 C.3    20  MET20       0.0692
     20  N        -37.3960  -18.0390   25.5600 N.am   21  VAL21      -0.1963
     21  CA       -38.3500  -17.2720   26.3820 C.3    21  VAL21       0.1727
     22  C        -39.3130  -18.2690   26.9300 C.2    21  VAL21       0.2616
     23  O        -40.0270  -18.8660   26.1820 O.2    21  VAL21      -0.2715
     24  CB       -39.0630  -16.1700   25.5590 C.3    21  VAL21       0.0290
     25  CG1      -40.2420  -15.5840   26.2960 C.3    21  VAL21       0.0023
     26  CG2      -38.0690  -15.0710   25.2930 C.3    21  VAL21       0.0023
     27  N        -39.2790  -18.4450   28.2330 N.am   22  ARG22      -0.1963
     28  CA       -40.0360  -19.4370   28.9660 C.3    22  ARG22       0.1729
     29  C        -41.3050  -18.7080   29.4630 C.2    22  ARG22       0.2616
     30  O        -41.2150  -17.6610   30.0590 O.2    22  ARG22      -0.2715
     31  CB       -39.1060  -19.9090   30.0990 C.3    22  ARG22       0.0348
     32  CG       -39.5490  -20.9880   31.0860 C.3    22  ARG22       0.0492
     33  CD       -39.6190  -22.4190   30.5140 C.3    22  ARG22       0.2205
     34  NE       -38.4970  -22.9410   29.6890 N.pl3  22  ARG22      -0.0865
     35  CZ       -37.6350  -23.9090   30.0370 C.cat  22  ARG22       0.5346
     36  NH1      -37.6830  -24.4890   31.2410 N.pl3  22  ARG22       0.1354
     37  NH2      -36.7050  -24.3170   29.1560 N.pl3  22  ARG22       0.1354
     38  N        -42.4870  -19.2330   29.1610 N.am   23  VAL23      -0.1963
     39  CA       -43.7750  -18.5930   29.5200 C.3    23  VAL23       0.1727
     40  C        -44.6970  -19.6210   30.1850 C.2    23  VAL23       0.2616
     41  O        -45.3660  -20.4000   29.5330 O.2    23  VAL23      -0.2715
     42  CB       -44.4330  -17.9420   28.3030 C.3    23  VAL23       0.0290
     43  CG1      -45.7620  -17.3230   28.6580 C.3    23  VAL23       0.0023
     44  CG2      -43.4960  -16.9000   27.6980 C.3    23  VAL23       0.0023
     45  N        -44.6790  -19.6340   31.5080 N.am   24  ARG24      -0.1977
     46  CA       -45.3830  -20.6330   32.2790 C.3    24  ARG24       0.1597
     47  C        -46.5070  -20.0090   33.0920 C.2    24  ARG24       0.2287
     48  O        -46.4760  -18.8240   33.3870 O.2    24  ARG24      -0.2864
     49  CB       -44.3770  -21.3300   33.2110 C.3    24  ARG24       0.0334
     50  CG       -43.3480  -22.1840   32.5190 C.3    24  ARG24       0.0492
     51  CD       -44.0020  -23.3700   31.8040 C.3    24  ARG24       0.2205
     52  NE       -43.1890  -23.8340   30.6730 N.pl3  24  ARG24      -0.0865
     53  CZ       -42.0610  -24.5400   30.7710 C.cat  24  ARG24       0.5346
     54  NH1      -41.5610  -24.8370   31.9740 N.pl3  24  ARG24       0.1354
     55  NH2      -41.3990  -24.9170   29.6470 N.pl3  24  ARG24       0.1354
     56  N        -41.9030  -14.6990   20.7810 N.3   131  LYS131     -0.1245
     57  CA       -41.5110  -16.1150   21.0820 C.3   131  LYS131      0.1561
     58  C        -41.8520  -17.0900   19.9760 C.2   131  LYS131      0.2260
     59  O        -41.0620  -18.0110   19.6630 O.2   131  LYS131     -0.2867
     60  CB       -42.2290  -16.5750   22.3540 C.3   131  LYS131      0.0271
     61  CG       -41.7640  -17.8920   22.9150 C.3   131  LYS131      0.0035
     62  CD       -42.6270  -18.3500   24.0760 C.3   131  LYS131      0.0206
     63  CE       -42.6270  -19.8820   24.1810 C.3   131  LYS131      0.1093
     64  NZ       -41.2370  -20.4370   24.2080 N.3   131  LYS131     -0.1314
     65  N        -39.1010  -17.1200   17.4700 N.3   134  ILE134     -0.1231
     66  CA       -37.8090  -17.7020   17.8420 C.3   134  ILE134      0.1692
     67  C        -37.8930  -19.1580   17.6080 C.2   134  ILE134      0.2592
     68  O        -38.7510  -19.8230   18.1720 O.2   134  ILE134     -0.2718
     69  CB       -37.4470  -17.5190   19.3360 C.3   134  ILE134      0.0266
     70  CG1      -37.4710  -16.0140   19.7470 C.3   134  ILE134      0.0019
     71  CG2      -36.0920  -18.1790   19.6680 C.3   134  ILE134      0.0020
     72  CD1      -37.1370  -15.7830   21.2250 C.3   134  ILE134      0.0001
     73  N        -36.9880  -19.6300   16.7610 N.am  135  ASN135     -0.1960
     74  CA       -36.7440  -21.0470   16.5700 C.3   135  ASN135      0.1819
     75  C        -38.0040  -21.8650   16.1960 C.2   135  ASN135      0.2621
     76  O        -38.5600  -21.5830   15.1320 O.2   135  ASN135     -0.2715
     77  CB       -35.9930  -21.5830   17.7810 C.3   135  ASN135      0.1195
     78  CG       -35.3430  -22.9420   17.5190 C.2   135  ASN135      0.2630
     79  OD1      -35.5750  -23.6060   16.4710 O.2   135  ASN135     -0.2716
     80  ND2      -34.5160  -23.3600   18.4630 N.am  135  ASN135     -0.0877
     81  N        -38.4620  -22.8320   17.0100 N.am  136  LYS136     -0.1963
     82  CA       -39.6200  -23.6460   16.6520 C.3   136  LYS136      0.1728
     83  C        -40.8990  -23.0130   17.1440 C.2   136  LYS136      0.2616
     84  O        -41.9930  -23.5120   16.8350 O.2   136  LYS136     -0.2715
     85  CB       -39.5780  -25.0240   17.2780 C.3   136  LYS136      0.0311
     86  CG       -38.3050  -25.8110   17.0930 C.3   136  LYS136      0.0038
     87  CD       -38.0500  -26.2570   15.6790 C.3   136  LYS136      0.0206
     88  CE       -36.8150  -27.1670   15.6880 C.3   136  LYS136      0.1093
     89  NZ       -37.0590  -28.4690   16.4190 N.3   136  LYS136     -0.1314
     90  N        -40.7850  -21.9760   17.9670 N.am  137  GLY137     -0.1955
     91  CA       -41.9070  -21.0990   18.2340 C.3   137  GLY137      0.1869
     92  C        -42.7960  -21.5810   19.3450 C.2   137  GLY137      0.2309
     93  O        -42.3220  -21.9900   20.3610 O.2   137  GLY137     -0.2863
     94  N        -45.1850  -23.7490   21.6350 N.3   139  SER139     -0.1217
     95  CA       -45.7150  -25.0590   22.1110 C.3   139  SER139      0.1889
     96  C        -47.2280  -25.1910   21.9130 C.2   139  SER139      0.2288
     97  O        -47.8810  -24.2030   21.7520 O.2   139  SER139     -0.2866
     98  CB       -45.2910  -25.3450   23.5920 C.3   139  SER139      0.2089
     99  OG       -46.0900  -24.7550   24.5870 O.3   139  SER139     -0.2183
    100  N        -49.2480  -23.2670   24.4290 N.3   142  LEU142     -0.1245
    101  CA       -49.1910  -21.8170   24.3230 C.3   142  LEU142      0.1561
    102  C        -49.9680  -21.2720   23.1420 C.2   142  LEU142      0.2260
    103  O        -50.5910  -20.2330   23.2680 O.2   142  LEU142     -0.2867
    104  CB       -47.7580  -21.3300   24.2620 C.3   142  LEU142      0.0270
    105  CG       -46.9720  -21.2360   25.5820 C.3   142  LEU142      0.0019
    106  CD1      -45.5990  -20.7470   25.2140 C.3   142  LEU142      0.0001
    107  CD2      -47.6170  -20.3190   26.6270 C.3   142  LEU142      0.0001
@<TRIPOS>BOND
     1    76    75    2
     2    87    88    1
     3    87    86    1
     4    88    89    1
     5    75    74    1
     6    75    81   am
     7    79    78    2
     8    74    73    1
     9    74    77    1
    10    82    81    1
    11    82    83    1
    12    82    85    1
    13    73    67   am
    14    84    83    2
    15    86    85    1
    16    83    90   am
    17    65    66    1
    18    78    77    1
    19    78    80   am
    20    67    66    1
    21    67    68    2
    22    66    69    1
    23    90    91    1
    24    91    92    1
    25    69    71    1
    26    69    70    1
    27    92    93    2
    28    59    58    2
    29    70    72    1
    30    58    57    1
    31    10     8   ar
    32    10    11   ar
    33    56    57    1
    34     8     6   ar
    35    57    60    1
    36    94    95    1
    37    11     9   ar
    38    97    96    2
    39     6     5    1
    40     6     7   ar
    41    96    95    1
    42     5     2    1
    43    95    98    1
    44     4     3    2
    45    60    61    1
    46     1     2    1
    47     9     7   ar
    48    61    62    1
    49     2     3    1
    50   102   103    2
    51   102   101    1
    52     3    12   am
    53    98    99    1
    54    62    63    1
    55    63    64    1
    56   104   101    1
    57   104   105    1
    58   101   100    1
    59    12    13    1
    60    13    14    1
    61    13    16    1
    62    17    16    1
    63    17    18    1
    64   106   105    1
    65    26    24    1
    66    24    25    1
    67    24    21    1
    68    20    14   am
    69    20    21    1
    70   105   107    1
    71    14    15    2
    72    23    22    2
    73    18    19    1
    74    21    22    1
    75    22    27   am
    76    44    42    1
    77    27    28    1
    78    42    43    1
    79    42    39    1
    80    28    29    1
    81    28    31    1
    82    37    35    1
    83    38    29   am
    84    38    39    1
    85    29    30    2
    86    39    40    1
    87    41    40    2
    88    55    53    1
    89    34    35    2
    90    34    33    1
    91    35    36    1
    92    31    32    1
    93    40    45   am
    94    33    32    1
    95    52    53    2
    96    52    51    1
    97    53    54    1
    98    45    46    1
    99    51    50    1
   100    46    47    1
   101    46    49    1
   102    50    49    1
   103    47    48    2
