@<TRIPOS>MOLECULE
tmp/5e5rD00.pdb
 88 84 0 0 0
SMALL
GASTEIGER

@<TRIPOS>ATOM
      1  N        -20.0500  -16.5210   84.3500 N.3    52  GLN52      -0.1231
      2  CA       -19.0080  -15.9490   85.1990 C.3    52  GLN52       0.1698
      3  C        -17.6350  -16.1540   84.5680 C.2    52  GLN52       0.2592
      4  O        -16.6460  -15.5450   84.9780 O.2    52  GLN52      -0.2718
      5  CB       -19.0290  -16.5600   86.6000 C.3    52  GLN52       0.0381
      6  CG       -20.2540  -16.1870   87.4020 C.3    52  GLN52       0.0905
      7  CD       -20.5510  -14.6770   87.4180 C.2    52  GLN52       0.2608
      8  OE1      -19.6590  -13.8530   87.6210 O.2    52  GLN52      -0.2717
      9  NE2      -21.8090  -14.3250   87.2300 N.am   52  GLN52      -0.0878
     10  N        -17.5950  -16.9990   83.5440 N.am   53  GLU53      -0.1979
     11  CA       -16.3450  -17.3360   82.8950 C.3    53  GLU53       0.1602
     12  C        -16.0300  -16.3530   81.7370 C.2    53  GLU53       0.2287
     13  O        -14.8710  -16.1570   81.3920 O.2    53  GLU53      -0.2864
     14  CB       -16.3950  -18.7940   82.4260 C.3    53  GLU53       0.0415
     15  CG       -15.0500  -19.5100   82.4220 C.3    53  GLU53       0.1163
     16  CD       -14.3980  -19.5760   83.8010 C.2    53  GLU53       0.3649
     17  OE1      -15.1090  -19.9290   84.7660 O.co2  53  GLU53      -0.2457
     18  OE2      -13.1810  -19.2740   83.9200 O.co2  53  GLU53      -0.2457
     19  N        -21.5240  -20.7630   74.9780 N.3   107  VAL107     -0.1231
     20  CA       -20.5010  -20.9030   76.0280 C.3   107  VAL107      0.1692
     21  C        -20.4590  -22.3200   76.5230 C.2   107  VAL107      0.2592
     22  O        -21.4960  -22.9710   76.6020 O.2   107  VAL107     -0.2718
     23  CB       -20.7220  -20.0540   77.3160 C.3   107  VAL107      0.0266
     24  CG1      -19.6780  -19.0380   77.4490 C.3   107  VAL107      0.0020
     25  CG2      -22.1310  -19.5200   77.4190 C.3   107  VAL107      0.0020
     26  N        -19.2750  -22.7330   76.9640 N.am  108  GLN108     -0.1966
     27  CA       -19.0370  -24.0840   77.4470 C.3   108  GLN108      0.1733
     28  C        -17.6890  -24.1660   78.1510 C.2   108  GLN108      0.2616
     29  O        -16.7720  -23.4080   77.8480 O.2   108  GLN108     -0.2715
     30  CB       -19.0840  -25.0800   76.2720 C.3   108  GLN108      0.0408
     31  CG       -18.0140  -24.7590   75.2420 C.3   108  GLN108      0.0908
     32  CD       -18.0700  -25.6160   73.9950 C.2   108  GLN108      0.2608
     33  OE1      -17.5330  -26.7060   73.9680 O.2   108  GLN108     -0.2717
     34  NE2      -18.7060  -25.1160   72.9570 N.am  108  GLN108     -0.0878
     35  N        -17.5790  -25.0840   79.1040 N.am  109  PHE109     -0.1960
     36  CA       -16.2850  -25.4400   79.6930 C.3   109  PHE109      0.1756
     37  C        -15.3180  -25.8950   78.6010 C.2   109  PHE109      0.2461
     38  O        -15.7460  -26.4000   77.5550 O.2   109  PHE109     -0.2730
     39  CB       -16.4590  -26.5430   80.7370 C.3   109  PHE109      0.0574
     40  CG       -17.1310  -27.7720   80.2040 C.ar  109  PHE109     -0.0200
     41  CD1      -18.5030  -27.8140   80.0690 C.ar  109  PHE109     -0.0042
     42  CD2      -16.3890  -28.8810   79.8130 C.ar  109  PHE109     -0.0042
     43  CE1      -19.1370  -28.9300   79.5660 C.ar  109  PHE109     -0.0003
     44  CE2      -17.0170  -30.0110   79.3150 C.ar  109  PHE109     -0.0003
     45  CZ       -18.3940  -30.0310   79.1930 C.ar  109  PHE109     -0.0000
     46  N        -14.0080  -25.7170   78.8320 N.am  110  PRO110     -0.2727
     47  CA       -13.0450  -25.9730   77.7610 C.3   110  PRO110      0.1402
     48  C        -12.8520  -27.4650   77.4950 C.2   110  PRO110      0.2269
     49  O        -13.3850  -28.2770   78.2360 O.2   110  PRO110     -0.2865
     50  CB       -11.7590  -25.3260   78.2860 C.3   110  PRO110      0.0296
     51  CG       -11.8950  -25.2800   79.7360 C.3   110  PRO110      0.0237
     52  CD       -13.3540  -25.2080   80.0530 C.3   110  PRO110      0.0939
     53  N        -10.1610  -29.4270   81.2570 N.3   113  LEU113     -0.1245
     54  CA       -10.2600  -28.5580   82.4150 C.3   113  LEU113      0.1561
     55  C         -9.5110  -29.0910   83.6290 C.2   113  LEU113      0.2260
     56  O        -10.0650  -29.8720   84.3940 O.2   113  LEU113     -0.2867
     57  CB       -11.7260  -28.3560   82.7900 C.3   113  LEU113      0.0270
     58  CG       -11.8360  -27.3520   83.9260 C.3   113  LEU113      0.0019
     59  CD1      -11.1980  -26.0350   83.4870 C.3   113  LEU113      0.0001
     60  CD2      -13.2630  -27.1810   84.3160 C.3   113  LEU113      0.0001
     61  N        -17.1960  -25.8430   88.5130 N.3   122  ARG122     -0.1245
     62  CA       -18.4690  -25.5310   87.9080 C.3   122  ARG122      0.1563
     63  C        -18.3020  -25.5320   86.4110 C.2   122  ARG122      0.2260
     64  O        -17.4580  -24.8440   85.9210 O.2   122  ARG122     -0.2867
     65  CB       -18.9550  -24.1890   88.4020 C.3   122  ARG122      0.0307
     66  CG       -19.1270  -24.1600   89.9040 C.3   122  ARG122      0.0489
     67  CD       -19.6790  -22.8660   90.4150 C.3   122  ARG122      0.2205
     68  NE       -19.8330  -22.9230   91.8620 N.pl3 122  ARG122     -0.0865
     69  CZ       -18.8420  -22.7130   92.7230 C.cat 122  ARG122      0.5346
     70  NH1      -17.6250  -22.4310   92.2770 N.pl3 122  ARG122      0.1354
     71  NH2      -19.0620  -22.7890   94.0300 N.pl3 122  ARG122      0.1354
     72  N        -19.9370  -24.6470   82.7620 N.3   124  GLU124     -0.1245
     73  CA       -20.9920  -23.8910   82.1000 C.3   124  GLU124      0.1567
     74  C        -21.3570  -24.5140   80.7540 C.2   124  GLU124      0.2260
     75  O        -20.5210  -25.1060   80.0690 O.2   124  GLU124     -0.2867
     76  CB       -20.5670  -22.4340   81.9150 C.3   124  GLU124      0.0388
     77  CG       -20.6700  -21.6150   83.2000 C.3   124  GLU124      0.1160
     78  CD       -20.2320  -20.1600   83.0100 C.2   124  GLU124      0.3649
     79  OE1      -19.9290  -19.8160   81.8580 O.co2 124  GLU124     -0.2457
     80  OE2      -20.1890  -19.3690   83.9910 O.co2 124  GLU124     -0.2457
     81  N        -25.4330  -24.8310   84.2450 N.3   157  MET157     -0.1245
     82  CA       -24.1950  -25.1390   84.9500 C.3   157  MET157      0.1570
     83  C        -24.3090  -26.4710   85.6650 C.2   157  MET157      0.2261
     84  O        -25.3370  -26.7640   86.2730 O.2   157  MET157     -0.2867
     85  CB       -23.8220  -24.0480   85.9640 C.3   157  MET157      0.0387
     86  CG       -22.9510  -24.5760   87.1440 C.3   157  MET157      0.0595
     87  SD       -22.2210  -23.2910   88.1430 S.3   157  MET157     -0.1393
     88  CE       -23.6050  -22.7110   89.0820 C.3   157  MET157      0.0692
@<TRIPOS>BOND
     1    34    32   am
     2    33    32    2
     3    32    31    1
     4    19    20    1
     5    31    30    1
     6    20    21    1
     7    20    23    1
     8    30    27    1
     9    21    22    2
    10    21    26   am
    11    26    27    1
    12    23    25    1
    13    23    24    1
    14    27    28    1
    15    48    47    1
    16    48    49    2
    17    38    37    2
    18    47    50    1
    19    47    46    1
    20    29    28    2
    21    28    35   am
    22    50    51    1
    23    37    46   am
    24    37    36    1
    25    46    52    1
    26    35    36    1
    27    45    44   ar
    28    45    43   ar
    29    44    42   ar
    30    43    41   ar
    31    36    39    1
    32    51    52    1
    33    42    40   ar
    34    75    74    2
    35    41    40   ar
    36    40    39    1
    37    74    73    1
    38    53    54    1
    39    13    12    2
    40    12    11    1
    41    79    78   ar
    42    76    73    1
    43    76    77    1
    44    73    72    1
    45    54    57    1
    46    54    55    1
    47    15    14    1
    48    15    16    1
    49    14    11    1
    50    57    58    1
    51    11    10    1
    52    78    77    1
    53    78    80   ar
    54    59    58    1
    55    10     3   am
    56    55    56    2
    57    16    18   ar
    58    16    17   ar
    59    58    60    1
    60    81    82    1
    61     1     2    1
    62     3     4    2
    63     3     2    1
    64    82    83    1
    65    82    85    1
    66     2     5    1
    67    83    84    2
    68    64    63    2
    69    85    86    1
    70    63    62    1
    71     5     6    1
    72    86    87    1
    73     9     7   am
    74     6     7    1
    75     7     8    2
    76    62    65    1
    77    62    61    1
    78    87    88    1
    79    65    66    1
    80    66    67    1
    81    67    68    1
    82    68    69    2
    83    70    69    1
    84    69    71    1
