@<TRIPOS>MOLECULE
tmp/5e65C04.pdb
 121 119 0 0 0
SMALL
GASTEIGER

@<TRIPOS>ATOM
      1  N        -23.5620   38.5010  -17.6540 N.3   125  PHE125     -0.1241
      2  CA       -24.9680   38.1920  -17.9360 C.3   125  PHE125      0.1605
      3  C        -25.1460   37.0950  -18.9830 C.2   125  PHE125      0.2264
      4  O        -26.2650   36.8410  -19.4190 O.2   125  PHE125     -0.2867
      5  CB       -25.7260   39.4430  -18.3990 C.3   125  PHE125      0.0534
      6  CG       -25.8560   40.5030  -17.3500 C.ar  125  PHE125     -0.0203
      7  CD1      -26.2620   40.1800  -16.0660 C.ar  125  PHE125     -0.0042
      8  CD2      -25.5830   41.8280  -17.6510 C.ar  125  PHE125     -0.0042
      9  CE1      -26.3910   41.1580  -15.0980 C.ar  125  PHE125     -0.0003
     10  CE2      -25.7090   42.8150  -16.6890 C.ar  125  PHE125     -0.0003
     11  CZ       -26.1140   42.4780  -15.4100 C.ar  125  PHE125     -0.0000
     12  N        -22.8460   51.6580  -19.7990 N.3   168  GLY168     -0.1210
     13  CA       -23.2950   50.7150  -18.7900 C.3   168  GLY168      0.1956
     14  C        -22.1890   49.8590  -18.2000 C.2   168  GLY168      0.2613
     15  O        -21.2430   49.4740  -18.8930 O.2   168  GLY168     -0.2717
     16  N        -22.2530   49.5660  -16.9170 N.am  169  THR169     -0.1938
     17  CA       -21.3120   48.6560  -16.2770 C.3   169  THR169      0.2028
     18  C        -22.0250   47.7680  -15.3100 C.2   169  THR169      0.2642
     19  O        -23.0720   48.0810  -14.8430 O.2   169  THR169     -0.2714
     20  CB       -20.1840   49.3390  -15.4920 C.3   169  THR169      0.1808
     21  OG1      -20.7400   50.0330  -14.3920 O.3   169  THR169     -0.2208
     22  CG2      -19.4290   50.2860  -16.3300 C.3   169  THR169      0.0379
     23  N        -21.4280   46.6420  -15.0160 N.am  170  ALA170     -0.1963
     24  CA       -22.0600   45.6150  -14.1860 C.3   170  ALA170      0.1728
     25  C        -21.0570   44.8300  -13.3440 C.2   170  ALA170      0.2617
     26  O        -19.9500   44.5350  -13.7940 O.2   170  ALA170     -0.2715
     27  CB       -22.8660   44.6610  -15.0620 C.3   170  ALA170      0.0334
     28  N        -21.4570   44.4910  -12.1200 N.am  171  SER171     -0.1936
     29  CA       -20.6300   43.6820  -11.2250 C.3   171  SER171      0.2055
     30  C        -20.3060   42.3160  -11.8170 C.2   171  SER171      0.2643
     31  O        -19.2290   41.7730  -11.5920 O.2   171  SER171     -0.2714
     32  CB       -21.3250   43.4950   -9.8730 C.3   171  SER171      0.2130
     33  OG       -21.3060   44.6920   -9.1210 O.3   171  SER171     -0.2179
     34  N        -21.2470   41.7610  -12.5710 N.am  172  SER172     -0.1949
     35  CA       -21.0590   40.4470  -13.1730 C.3   172  SER172      0.1924
     36  C        -20.0430   40.4750  -14.3230 C.2   172  SER172      0.2314
     37  O        -19.6720   39.4260  -14.8520 O.2   172  SER172     -0.2863
     38  CB       -22.3970   39.9000  -13.6730 C.3   172  SER172      0.2116
     39  OG       -22.8710   40.6540  -14.7770 O.3   172  SER172     -0.2180
     40  N        -22.8520   49.0690  -24.2460 N.3   183  TRP183     -0.1241
     41  CA       -24.0320   49.0970  -23.3880 C.3   183  TRP183      0.1605
     42  C        -24.3360   50.5210  -22.9470 C.2   183  TRP183      0.2264
     43  O        -23.5610   51.1220  -22.2040 O.2   183  TRP183     -0.2867
     44  CB       -23.8160   48.2140  -22.1610 C.3   183  TRP183      0.0550
     45  CG       -25.0320   48.0170  -21.3030 C.ar  183  TRP183      0.0003
     46  CD1      -26.3300   48.2950  -21.6300 C.ar  183  TRP183      0.0946
     47  CD2      -25.0570   47.4920  -19.9710 C.ar  183  TRP183      0.0152
     48  NE1      -27.1600   47.9700  -20.5830 N.ar  183  TRP183     -0.2442
     49  CE2      -26.4030   47.4740  -19.5540 C.ar  183  TRP183      0.0810
     50  CE3      -24.0710   47.0300  -19.0920 C.ar  183  TRP183      0.0012
     51  CZ2      -26.7880   47.0070  -18.3010 C.ar  183  TRP183      0.0191
     52  CZ3      -24.4550   46.5760  -17.8440 C.ar  183  TRP183      0.0001
     53  CH2      -25.8010   46.5700  -17.4580 C.ar  183  TRP183      0.0015
     54  N        -26.9530   53.0690  -20.9820 N.3   185  ALA185     -0.1245
     55  CA       -28.0030   53.0640  -19.9720 C.3   185  ALA185      0.1562
     56  C        -28.4760   54.4690  -19.6030 C.2   185  ALA185      0.2260
     57  O        -27.6670   55.3820  -19.4310 O.2   185  ALA185     -0.2867
     58  CB       -27.5200   52.3460  -18.7340 C.3   185  ALA185      0.0290
     59  N        -31.1530   41.6960  -24.2050 N.3   224  PHE224     -0.1241
     60  CA       -31.2810   41.1820  -22.8460 C.3   224  PHE224      0.1605
     61  C        -32.5130   40.2940  -22.7370 C.2   224  PHE224      0.2264
     62  O        -33.4930   40.4810  -23.4580 O.2   224  PHE224     -0.2867
     63  CB       -31.3480   42.3220  -21.8280 C.3   224  PHE224      0.0534
     64  CG       -30.0480   43.0620  -21.6570 C.ar  224  PHE224     -0.0203
     65  CD1      -28.9690   42.4610  -21.0240 C.ar  224  PHE224     -0.0042
     66  CD2      -29.9080   44.3600  -22.1210 C.ar  224  PHE224     -0.0042
     67  CE1      -27.7710   43.1400  -20.8590 C.ar  224  PHE224     -0.0003
     68  CE2      -28.7150   45.0480  -21.9580 C.ar  224  PHE224     -0.0003
     69  CZ       -27.6440   44.4380  -21.3260 C.ar  224  PHE224     -0.0000
     70  N        -35.3360   38.7170  -20.0200 N.3   226  TYR226     -0.1241
     71  CA       -35.9280   38.8070  -18.6920 C.3   226  TYR226      0.1605
     72  C        -36.9100   37.6730  -18.4220 C.2   226  TYR226      0.2264
     73  O        -37.4810   37.1000  -19.3490 O.2   226  TYR226     -0.2867
     74  CB       -36.6240   40.1580  -18.5150 C.3   226  TYR226      0.0534
     75  CG       -35.6590   41.3140  -18.5420 C.ar  226  TYR226     -0.0201
     76  CD1      -35.0680   41.7710  -17.3740 C.ar  226  TYR226     -0.0009
     77  CD2      -35.3190   41.9330  -19.7370 C.ar  226  TYR226     -0.0009
     78  CE1      -34.1770   42.8190  -17.3900 C.ar  226  TYR226      0.0417
     79  CE2      -34.4260   42.9790  -19.7660 C.ar  226  TYR226      0.0417
     80  CZ       -33.8580   43.4200  -18.5890 C.ar  226  TYR226      0.1957
     81  OH       -32.9660   44.4650  -18.6090 O.3   226  TYR226     -0.2866
     82  N        -36.3350   47.9490  -13.6500 N.3   235  PHE235     -0.1241
     83  CA       -35.3710   48.7700  -14.3830 C.3   235  PHE235      0.1605
     84  C        -36.0320   49.7320  -15.3680 C.2   235  PHE235      0.2264
     85  O        -35.6840   50.9090  -15.4190 O.2   235  PHE235     -0.2867
     86  CB       -34.3800   47.8780  -15.1360 C.3   235  PHE235      0.0534
     87  CG       -33.8500   46.7370  -14.3200 C.ar  235  PHE235     -0.0203
     88  CD1      -32.9410   46.9600  -13.3010 C.ar  235  PHE235     -0.0042
     89  CD2      -34.2530   45.4420  -14.5790 C.ar  235  PHE235     -0.0042
     90  CE1      -32.4500   45.9090  -12.5500 C.ar  235  PHE235     -0.0003
     91  CE2      -33.7660   44.3880  -13.8310 C.ar  235  PHE235     -0.0003
     92  CZ       -32.8650   44.6220  -12.8160 C.ar  235  PHE235     -0.0000
     93  N        -31.4950   38.6030  -15.0470 N.3   270  VAL270     -0.1245
     94  CA       -31.3840   39.0060  -16.4460 C.3   270  VAL270      0.1561
     95  C        -30.1810   38.3430  -17.1200 C.2   270  VAL270      0.2260
     96  O        -29.1020   38.2360  -16.5360 O.2   270  VAL270     -0.2867
     97  CB       -31.2810   40.5470  -16.5950 C.3   270  VAL270      0.0252
     98  CG1      -30.0450   41.0950  -15.8800 C.3   270  VAL270      0.0019
     99  CG2      -31.2730   40.9430  -18.0710 C.3   270  VAL270      0.0019
    100  N        -34.4820   52.4650  -20.8740 N.3   291  ARG291     -0.1231
    101  CA       -33.4820   52.1480  -19.8620 C.3   291  ARG291      0.1694
    102  C        -32.1860   51.5550  -20.4250 C.2   291  ARG291      0.2592
    103  O        -31.0950   51.9460  -20.0090 O.2   291  ARG291     -0.2718
    104  CB       -34.0720   51.1830  -18.8350 C.3   291  ARG291      0.0321
    105  CG       -33.1450   50.8850  -17.6760 C.3   291  ARG291      0.0489
    106  CD       -32.7840   52.1540  -16.9380 C.3   291  ARG291      0.2205
    107  NE       -31.7930   51.9100  -15.8970 N.pl3 291  ARG291     -0.0865
    108  CZ       -32.0890   51.5410  -14.6560 C.cat 291  ARG291      0.5346
    109  NH1      -33.3530   51.3800  -14.2960 N.pl3 291  ARG291      0.1354
    110  NH2      -31.1190   51.3430  -13.7740 N.pl3 291  ARG291      0.1354
    111  N        -32.3100   50.6220  -21.3670 N.am  292  PHE292     -0.1976
    112  CA       -31.1660   49.8330  -21.8350 C.3   292  PHE292      0.1639
    113  C        -31.0350   49.7560  -23.3520 C.2   292  PHE292      0.2290
    114  O        -31.9950   49.4320  -24.0530 O.2   292  PHE292     -0.2864
    115  CB       -31.2550   48.4120  -21.2840 C.3   292  PHE292      0.0560
    116  CG       -31.1440   48.3340  -19.7950 C.ar  292  PHE292     -0.0200
    117  CD1      -30.1760   49.0560  -19.1230 C.ar  292  PHE292     -0.0042
    118  CD2      -32.0090   47.5340  -19.0660 C.ar  292  PHE292     -0.0042
    119  CE1      -30.0680   48.9820  -17.7440 C.ar  292  PHE292     -0.0003
    120  CE2      -31.9080   47.4550  -17.6910 C.ar  292  PHE292     -0.0003
    121  CZ       -30.9370   48.1810  -17.0270 C.ar  292  PHE292     -0.0000
@<TRIPOS>BOND
     1    40    41    1
     2    59    60    1
     3   114   113    2
     4    62    61    2
     5    41    42    1
     6    41    44    1
     7   113   112    1
     8    42    43    2
     9    60    61    1
    10    60    63    1
    11    44    45    1
    12    66    68   ar
    13    66    64   ar
    14    68    69   ar
    15   112   111    1
    16   112   115    1
    17    63    64    1
    18    64    65   ar
    19    46    45   ar
    20    46    48   ar
    21   111   102   am
    22    69    67   ar
    23    45    47   ar
    24   115   116    1
    25    65    67   ar
    26    54    55    1
    27   100   101    1
    28    48    49   ar
    29   102   103    2
    30   102   101    1
    31    70    71    1
    32    55    56    1
    33    55    58    1
    34    47    49   ar
    35    47    50   ar
    36   101   104    1
    37    12    13    1
    38   116   117   ar
    39   116   118   ar
    40    79    77   ar
    41    79    80   ar
    42    77    75   ar
    43    56    57    2
    44    49    51   ar
    45     4     3    2
    46    73    72    2
    47   117   119   ar
    48    50    52   ar
    49   118   120   ar
    50     3     2    1
    51    15    14    2
    52   104   105    1
    53    13    14    1
    54    71    74    1
    55    71    72    1
    56    81    80    1
    57    80    78   ar
    58    75    74    1
    59    75    76   ar
    60     5     2    1
    61     5     6    1
    62    51    53   ar
    63    14    16   am
    64    99    97    1
    65     2     1    1
    66    52    53   ar
    67   119   121   ar
    68   120   121   ar
    69   105   106    1
    70     8     6   ar
    71     8    10   ar
    72    78    76   ar
    73     6     7   ar
    74    95    96    2
    75    95    94    1
    76   106   107    1
    77    16    17    1
    78    10    11   ar
    79    97    94    1
    80    97    98    1
    81    94    93    1
    82    22    20    1
    83    17    20    1
    84    17    18    1
    85     7     9   ar
    86   107   108    2
    87    20    21    1
    88    85    84    2
    89    11     9   ar
    90    84    83    1
    91    18    23   am
    92    18    19    2
    93    86    83    1
    94    86    87    1
    95    27    24    1
    96    23    24    1
    97    37    36    2
    98    39    38    1
    99   108   109    1
   100   108   110    1
   101    89    87   ar
   102    89    91   ar
   103    83    82    1
   104    36    35    1
   105    87    88   ar
   106    24    25    1
   107    91    92   ar
   108    26    25    2
   109    38    35    1
   110    25    28   am
   111    88    90   ar
   112    35    34    1
   113    92    90   ar
   114    34    30   am
   115    28    29    1
   116    30    31    2
   117    30    29    1
   118    29    32    1
   119    32    33    1
