@<TRIPOS>MOLECULE
tmp/5e66A05.pdb
 126 124 0 0 0
SMALL
GASTEIGER

@<TRIPOS>ATOM
      1  N         22.6310   -5.8180  -18.4820 N.3   125  PHE125     -0.1241
      2  CA        22.2440   -6.1510  -17.1080 C.3   125  PHE125      0.1605
      3  C         21.0170   -7.0530  -17.0290 C.2   125  PHE125      0.2264
      4  O         20.3370   -7.1210  -15.9980 O.2   125  PHE125     -0.2867
      5  CB        22.0160   -4.8810  -16.2850 C.3   125  PHE125      0.0534
      6  CG        23.1230   -3.8810  -16.4120 C.ar  125  PHE125     -0.0203
      7  CD1       24.4170   -4.2010  -16.0240 C.ar  125  PHE125     -0.0042
      8  CD2       22.8740   -2.6190  -16.9090 C.ar  125  PHE125     -0.0042
      9  CE1       25.4380   -3.2750  -16.1350 C.ar  125  PHE125     -0.0003
     10  CE2       23.8860   -1.6940  -17.0210 C.ar  125  PHE125     -0.0003
     11  CZ        25.1710   -2.0250  -16.6430 C.ar  125  PHE125     -0.0000
     12  N         21.1010   10.5680  -19.1190 N.3   167  ALA167     -0.1231
     13  CA        20.6650    9.2530  -19.6030 C.3   167  ALA167      0.1694
     14  C         21.7750    8.2060  -19.6680 C.2   167  ALA167      0.2593
     15  O         22.9130    8.5170  -20.0220 O.2   167  ALA167     -0.2718
     16  CB        20.0410    9.4000  -20.9630 C.3   167  ALA167      0.0304
     17  N         21.4150    6.9570  -19.3880 N.am  168  GLY168     -0.1942
     18  CA        22.3700    5.8790  -19.1570 C.3   168  GLY168      0.2014
     19  C         23.2350    5.3270  -20.2800 C.2   168  GLY168      0.2640
     20  O         23.0590    5.6600  -21.4410 O.2   168  GLY168     -0.2714
     21  N         24.1870    4.4750  -19.9100 N.am  169  THR169     -0.1936
     22  CA        25.0390    3.7810  -20.8730 C.3   169  THR169      0.2028
     23  C         25.7420    2.6030  -20.1840 C.2   169  THR169      0.2642
     24  O         26.0470    2.6620  -18.9990 O.2   169  THR169     -0.2714
     25  CB        26.0750    4.7510  -21.5270 C.3   169  THR169      0.1808
     26  OG1       25.6260    5.0830  -22.8460 O.3   169  THR169     -0.2208
     27  CG2       27.4960    4.1370  -21.6230 C.3   169  THR169      0.0379
     28  N         25.9750    1.5150  -20.9000 N.am  170  ALA170     -0.1963
     29  CA        26.6730    0.4190  -20.2720 C.3   170  ALA170      0.1728
     30  C         27.6400   -0.2030  -21.2230 C.2   170  ALA170      0.2617
     31  O         27.3120   -0.4240  -22.3760 O.2   170  ALA170     -0.2715
     32  CB        25.7050   -0.6110  -19.7810 C.3   170  ALA170      0.0334
     33  N         28.8290   -0.5040  -20.7250 N.am  171  SER171     -0.1936
     34  CA        29.7730   -1.3310  -21.4500 C.3   171  SER171      0.2055
     35  C         29.0240   -2.5790  -21.9060 C.2   171  SER171      0.2643
     36  O         29.2600   -3.1220  -22.9990 O.2   171  SER171     -0.2714
     37  CB        30.9560   -1.7160  -20.5600 C.3   171  SER171      0.2130
     38  OG        31.4370   -0.6200  -19.7990 O.3   171  SER171     -0.2179
     39  N         28.0970   -2.9890  -21.0360 N.am  172  SER172     -0.1949
     40  CA        27.3490   -4.2270  -21.1500 C.3   172  SER172      0.1924
     41  C         26.2390   -4.1290  -22.1920 C.2   172  SER172      0.2314
     42  O         25.7860   -5.1390  -22.7430 O.2   172  SER172     -0.2863
     43  CB        26.7680   -4.5790  -19.7850 C.3   172  SER172      0.2116
     44  OG        25.6120   -3.8080  -19.4920 O.3   172  SER172     -0.2180
     45  N         16.4420    5.0590  -19.2630 N.3   183  TRP183     -0.1241
     46  CA        17.2390    5.0600  -18.0450 C.3   183  TRP183      0.1605
     47  C         17.8700    6.4370  -17.7370 C.2   183  TRP183      0.2264
     48  O         18.5980    7.0080  -18.5580 O.2   183  TRP183     -0.2867
     49  CB        18.2950    3.9740  -18.1840 C.3   183  TRP183      0.0550
     50  CG        19.3020    3.8660  -17.1050 C.ar  183  TRP183      0.0003
     51  CD1       19.2000    4.3080  -15.8200 C.ar  183  TRP183      0.0946
     52  CD2       20.5900    3.2600  -17.2290 C.ar  183  TRP183      0.0152
     53  NE1       20.3520    4.0130  -15.1420 N.ar  183  TRP183     -0.2442
     54  CE2       21.2180    3.3690  -15.9840 C.ar  183  TRP183      0.0810
     55  CE3       21.2690    2.6360  -18.2790 C.ar  183  TRP183      0.0012
     56  CZ2       22.4940    2.8760  -15.7530 C.ar  183  TRP183      0.0191
     57  CZ3       22.5240    2.1520  -18.0540 C.ar  183  TRP183      0.0001
     58  CH2       23.1270    2.2680  -16.7980 C.ar  183  TRP183      0.0015
     59  N         19.9650    9.0710  -14.8900 N.3   185  ALA185     -0.1245
     60  CA        20.9150    8.9830  -13.7720 C.3   185  ALA185      0.1562
     61  C         21.2570   10.3240  -13.1370 C.2   185  ALA185      0.2260
     62  O         21.0750   11.3840  -13.7320 O.2   185  ALA185     -0.2867
     63  CB        22.1990    8.2910  -14.2240 C.3   185  ALA185      0.0290
     64  N         15.4240   -2.4900  -10.6180 N.3   224  PHE224     -0.1241
     65  CA        16.7370   -3.1030  -10.4260 C.3   224  PHE224      0.1605
     66  C         16.7670   -4.1250   -9.3140 C.2   224  PHE224      0.2264
     67  O         16.0330   -4.0300   -8.3360 O.2   224  PHE224     -0.2867
     68  CB        17.8070   -2.0460  -10.1630 C.3   224  PHE224      0.0534
     69  CG        18.1550   -1.2730  -11.3690 C.ar  224  PHE224     -0.0203
     70  CD1       18.2590   -1.9130  -12.5860 C.ar  224  PHE224     -0.0042
     71  CD2       18.3390    0.0920  -11.3080 C.ar  224  PHE224     -0.0042
     72  CE1       18.5540   -1.2110  -13.7210 C.ar  224  PHE224     -0.0003
     73  CE2       18.6370    0.8070  -12.4460 C.ar  224  PHE224     -0.0003
     74  CZ        18.7460    0.1510  -13.6570 C.ar  224  PHE224     -0.0000
     75  N         19.4280   -6.1660   -6.6750 N.3   226  TYR226     -0.1241
     76  CA        20.7220   -6.1230   -5.9960 C.3   226  TYR226      0.1605
     77  C         20.8600   -7.2950   -5.0580 C.2   226  TYR226      0.2264
     78  O         19.8610   -7.8010   -4.5390 O.2   226  TYR226     -0.2867
     79  CB        20.8850   -4.8350   -5.2030 C.3   226  TYR226      0.0534
     80  CG        21.0700   -3.6340   -6.0760 C.ar  226  TYR226     -0.0201
     81  CD1       19.9790   -2.9580   -6.5910 C.ar  226  TYR226     -0.0009
     82  CD2       22.3360   -3.1840   -6.4050 C.ar  226  TYR226     -0.0009
     83  CE1       20.1390   -1.8530   -7.4040 C.ar  226  TYR226      0.0417
     84  CE2       22.5090   -2.0780   -7.2150 C.ar  226  TYR226      0.0417
     85  CZ        21.4070   -1.4130   -7.7120 C.ar  226  TYR226      0.1957
     86  OH        21.5740   -0.3110   -8.5240 O.3   226  TYR226     -0.2866
     87  N         26.0940    2.6010   -3.8730 N.3   235  PHE235     -0.1241
     88  CA        25.5720    3.5000   -4.8830 C.3   235  PHE235      0.1605
     89  C         24.5620    4.4360   -4.2430 C.2   235  PHE235      0.2264
     90  O         24.7560    5.6520   -4.1410 O.2   235  PHE235     -0.2867
     91  CB        24.8920    2.7150   -6.0020 C.3   235  PHE235      0.0534
     92  CG        25.7250    1.6090   -6.5550 C.ar  235  PHE235     -0.0203
     93  CD1       25.7240    0.3540   -5.9650 C.ar  235  PHE235     -0.0042
     94  CD2       26.5110    1.8270   -7.6660 C.ar  235  PHE235     -0.0042
     95  CE1       26.4980   -0.6650   -6.4770 C.ar  235  PHE235     -0.0003
     96  CE2       27.2850    0.8190   -8.1790 C.ar  235  PHE235     -0.0003
     97  CZ        27.2810   -0.4320   -7.5830 C.ar  235  PHE235     -0.0000
     98  N         24.6300   -5.6970  -10.0550 N.3   270  VAL270     -0.1245
     99  CA        23.3110   -5.1910  -10.4310 C.3   270  VAL270      0.1561
    100  C         22.7550   -5.8960  -11.6680 C.2   270  VAL270      0.2260
    101  O         23.4760   -6.2300  -12.6070 O.2   270  VAL270     -0.2867
    102  CB        23.3130   -3.6480  -10.6730 C.3   270  VAL270      0.0252
    103  CG1       23.9500   -3.2850  -12.0190 C.3   270  VAL270      0.0019
    104  CG2       21.9020   -3.0850  -10.5630 C.3   270  VAL270      0.0019
    105  N         19.3560    8.7520   -7.2740 N.3   291  ARG291     -0.1231
    106  CA        20.4070    8.7230   -8.3030 C.3   291  ARG291      0.1694
    107  C         19.9490    8.1810   -9.6500 C.2   291  ARG291      0.2592
    108  O         20.3540    8.7100  -10.6790 O.2   291  ARG291     -0.2718
    109  CB        21.6000    7.8950   -7.8160 C.3   291  ARG291      0.0321
    110  CG        22.8310    7.8810   -8.7410 C.3   291  ARG291      0.0489
    111  CD        24.0580    7.4460   -7.9380 C.3   291  ARG291      0.2205
    112  NE        25.0540    6.6990   -8.7020 N.pl3 291  ARG291     -0.0865
    113  CZ        25.9780    5.9300   -8.1360 C.cat 291  ARG291      0.5346
    114  NH1       26.0190    5.8170   -6.8190 N.pl3 291  ARG291      0.1354
    115  NH2       26.8600    5.2740   -8.8770 N.pl3 291  ARG291      0.1354
    116  N         19.1440    7.1130   -9.6380 N.am  292  PHE292     -0.1976
    117  CA        18.6260    6.4790  -10.8610 C.3   292  PHE292      0.1639
    118  C         17.1130    6.6010  -11.0240 C.2   292  PHE292      0.2290
    119  O         16.3700    6.7920  -10.0600 O.2   292  PHE292     -0.2864
    120  CB        18.9620    4.9820  -10.9110 C.3   292  PHE292      0.0560
    121  CG        20.4230    4.6820  -10.9740 C.ar  292  PHE292     -0.0200
    122  CD1       21.3180    5.6040  -11.5020 C.ar  292  PHE292     -0.0042
    123  CD2       20.9080    3.4720  -10.4970 C.ar  292  PHE292     -0.0042
    124  CE1       22.6730    5.3240  -11.5500 C.ar  292  PHE292     -0.0003
    125  CE2       22.2480    3.1960  -10.5320 C.ar  292  PHE292     -0.0003
    126  CZ        23.1360    4.1130  -11.0660 C.ar  292  PHE292     -0.0000
@<TRIPOS>BOND
     1    36    35    2
     2    26    25    1
     3    42    41    2
     4    31    30    2
     5    41    40    1
     6    35    34    1
     7    35    39   am
     8    27    25    1
     9    25    22    1
    10    34    33    1
    11    34    37    1
    12    20    19    2
    13    30    33   am
    14    30    29    1
    15    40    39    1
    16    40    43    1
    17    16    13    1
    18    28    29    1
    19    28    23   am
    20    22    23    1
    21    22    21    1
    22    37    38    1
    23    19    21   am
    24    19    18    1
    25    29    32    1
    26    23    24    2
    27    15    14    2
    28    43    44    1
    29    14    13    1
    30    14    17   am
    31    13    12    1
    32    17    18    1
    33    45    46    1
    34    48    47    2
    35     1     2    1
    36    55    57   ar
    37    55    52   ar
    38    49    46    1
    39    49    50    1
    40    57    58   ar
    41    46    47    1
    42    52    50   ar
    43    52    54   ar
    44     2     3    1
    45     2     5    1
    46    50    51   ar
    47     3     4    2
    48    10     8   ar
    49    10    11   ar
    50     8     6   ar
    51    58    56   ar
    52    11     9   ar
    53     6     5    1
    54     6     7   ar
    55     9     7   ar
    56    54    56   ar
    57    54    53   ar
    58    51    53   ar
    59    59    60    1
    60    63    60    1
    61    60    61    1
    62    62    61    2
    63    72    74   ar
    64    72    70   ar
    65    74    73   ar
    66   101   100    2
    67    70    69   ar
    68    73    71   ar
    69   103   102    1
    70   100    99    1
    71   124   122   ar
    72   124   126   ar
    73   122   121   ar
    74    69    71   ar
    75    69    68    1
    76   126   125   ar
    77   118   117    1
    78   118   119    2
    79   121   120    1
    80   121   123   ar
    81   120   117    1
    82   117   116    1
    83   108   107    2
    84   102   104    1
    85   102    99    1
    86    64    65    1
    87   125   123   ar
    88    99    98    1
    89    65    68    1
    90    65    66    1
    91   107   116   am
    92   107   106    1
    93    66    67    2
    94   115   113    1
    95   110   111    1
    96   110   109    1
    97   112   113    2
    98   112   111    1
    99    86    85    1
   100   106   109    1
   101   106   105    1
   102    96    94   ar
   103    96    97   ar
   104   113   114    1
   105    85    83   ar
   106    85    84   ar
   107    94    92   ar
   108    97    95   ar
   109    83    81   ar
   110    84    82   ar
   111    75    76    1
   112    81    80   ar
   113    92    91    1
   114    92    93   ar
   115    95    93   ar
   116    82    80   ar
   117    80    79    1
   118    91    88    1
   119    76    79    1
   120    76    77    1
   121    77    78    2
   122    88    89    1
   123    88    87    1
   124    89    90    2
