@<TRIPOS>MOLECULE
tmp/5e66A00.pdb
 110 102 0 0 0
SMALL
GASTEIGER

@<TRIPOS>ATOM
      1  N         12.7130  -13.1810  -40.6640 N.3    55  SER55      -0.1217
      2  CA        13.3510  -13.6140  -41.8690 C.3    55  SER55       0.1889
      3  C         12.6930  -14.8260  -42.4670 C.2    55  SER55       0.2288
      4  O         12.6490  -14.9590  -43.6570 O.2    55  SER55      -0.2866
      5  CB        14.8010  -13.9570  -41.5710 C.3    55  SER55       0.2089
      6  OG        15.0440  -14.0500  -40.1790 O.3    55  SER55      -0.2183
      7  N         13.5840  -10.4770  -48.0920 N.3    61  ASN61      -0.1240
      8  CA        14.8290  -11.2220  -47.8500 C.3    61  ASN61       0.1653
      9  C         15.4980  -11.6560  -49.1470 C.2    61  ASN61       0.2266
     10  O         14.8500  -12.2720  -50.0030 O.2    61  ASN61      -0.2867
     11  CB        14.5480  -12.4510  -46.9630 C.3    61  ASN61       0.1155
     12  CG        15.8040  -12.9940  -46.2650 C.2    61  ASN61       0.2627
     13  OD1       16.3840  -14.0050  -46.6710 O.2    61  ASN61      -0.2716
     14  ND2       16.2000  -12.3370  -45.1870 N.am   61  ASN61      -0.0877
     15  N         17.0640  -13.8440  -50.1870 N.3    63  GLN63      -0.1245
     16  CA        17.1810  -15.2770  -50.4590 C.3    63  GLN63       0.1566
     17  C         15.8470  -16.0390  -50.5940 C.2    63  GLN63       0.2260
     18  O         15.8470  -17.2650  -50.6340 O.2    63  GLN63      -0.2867
     19  CB        18.0070  -15.9570  -49.3540 C.3    63  GLN63       0.0367
     20  CG        19.3390  -15.3080  -48.9720 C.3    63  GLN63       0.0905
     21  CD        20.2350  -16.2590  -48.1680 C.2    63  GLN63       0.2608
     22  OE1       20.6140  -17.3350  -48.6500 O.2    63  GLN63      -0.2717
     23  NE2       20.5730  -15.8670  -46.9390 N.am   63  GLN63      -0.0878
     24  N         14.8290  -19.0860  -48.1180 N.3    67  SER67      -0.1217
     25  CA        14.9100  -18.6040  -46.7510 C.3    67  SER67       0.1889
     26  C         13.5590  -18.6180  -46.0370 C.2    67  SER67       0.2288
     27  O         13.4690  -18.2510  -44.8670 O.2    67  SER67      -0.2866
     28  CB        15.4830  -17.1900  -46.7480 C.3    67  SER67       0.2089
     29  OG        14.7760  -16.3970  -47.6910 O.3    67  SER67      -0.2183
     30  N         10.0460   -8.8560  -40.9350 N.3    81  LEU81      -0.1231
     31  CA        11.2850   -8.2530  -41.4250 C.3    81  LEU81       0.1693
     32  C         12.3870   -9.1800  -40.9630 C.2    81  LEU81       0.2593
     33  O         12.2700   -9.7470  -39.8890 O.2    81  LEU81      -0.2718
     34  CB        11.4920   -6.8490  -40.8760 C.3    81  LEU81       0.0284
     35  CG        12.8800   -6.2380  -41.0460 C.3    81  LEU81       0.0019
     36  CD1       13.2980   -6.2090  -42.5120 C.3    81  LEU81       0.0001
     37  CD2       12.8820   -4.8470  -40.4590 C.3    81  LEU81       0.0001
     38  N         13.4420   -9.3550  -41.7550 N.am   82  SER82      -0.1938
     39  CA        14.5060  -10.2980  -41.4020 C.3    82  SER82       0.2055
     40  C         15.3120   -9.8440  -40.1900 C.2    82  SER82       0.2643
     41  O         16.0010   -8.8230  -40.2170 O.2    82  SER82      -0.2714
     42  CB        15.4310  -10.5140  -42.5850 C.3    82  SER82       0.2130
     43  OG        14.6720  -10.5850  -43.7770 O.3    82  SER82      -0.2179
     44  N         15.2290  -10.6240  -39.1220 N.am   83  GLY83      -0.1954
     45  CA        15.9030  -10.2780  -37.8860 C.3    83  GLY83       0.1869
     46  C         15.0550   -9.5960  -36.8300 C.2    83  GLY83       0.2309
     47  O         15.5430   -9.2340  -35.7610 O.2    83  GLY83      -0.2863
     48  N         17.3520   -5.0760  -34.9720 N.3    97  VAL97      -0.1245
     49  CA        16.3650   -4.5990  -35.9490 C.3    97  VAL97       0.1561
     50  C         15.0460   -4.3190  -35.2490 C.2    97  VAL97       0.2260
     51  O         14.5840   -5.1000  -34.4140 O.2    97  VAL97      -0.2867
     52  CB        16.1740   -5.5770  -37.1320 C.3    97  VAL97       0.0252
     53  CG1       16.9280   -6.8490  -36.8720 C.3    97  VAL97       0.0019
     54  CG2       14.7020   -5.8170  -37.4370 C.3    97  VAL97       0.0019
     55  N         15.1160  -14.2620  -32.9350 N.3   115  ASN115     -0.1240
     56  CA        16.0890  -13.2020  -33.1080 C.3   115  ASN115      0.1653
     57  C         16.4070  -12.5060  -31.7550 C.2   115  ASN115      0.2266
     58  O         17.1840  -11.5580  -31.7150 O.2   115  ASN115     -0.2867
     59  CB        15.5920  -12.2130  -34.1800 C.3   115  ASN115      0.1155
     60  CG        15.5200  -12.8350  -35.5850 C.2   115  ASN115      0.2627
     61  OD1       16.4820  -13.4240  -36.0770 O.2   115  ASN115     -0.2716
     62  ND2       14.3710  -12.6930  -36.2350 N.am  115  ASN115     -0.0877
     63  N         16.4490  -21.7300  -33.3140 N.3   317  TRP317     -0.1241
     64  CA        17.4770  -21.8570  -34.3300 C.3   317  TRP317      0.1605
     65  C         17.6950  -23.3120  -34.6890 C.2   317  TRP317      0.2264
     66  O         16.9310  -24.1970  -34.3080 O.2   317  TRP317     -0.2867
     67  CB        18.8020  -21.2670  -33.8550 C.3   317  TRP317      0.0550
     68  CG        18.8320  -19.7890  -33.6490 C.ar  317  TRP317      0.0003
     69  CD1       18.9120  -19.1260  -32.4510 C.ar  317  TRP317      0.0946
     70  CD2       18.8330  -18.7820  -34.6600 C.ar  317  TRP317      0.0152
     71  NE1       18.9410  -17.7690  -32.6550 N.ar  317  TRP317     -0.2442
     72  CE2       18.8970  -17.5310  -34.0050 C.ar  317  TRP317      0.0810
     73  CE3       18.7730  -18.8100  -36.0600 C.ar  317  TRP317      0.0012
     74  CZ2       18.9030  -16.3260  -34.7030 C.ar  317  TRP317      0.0191
     75  CZ3       18.7820  -17.6110  -36.7440 C.ar  317  TRP317      0.0001
     76  CH2       18.8450  -16.3890  -36.0690 C.ar  317  TRP317      0.0015
     77  N         23.2010  -23.3260  -32.9780 N.3   321  ARG321     -0.1245
     78  CA        23.0590  -22.0560  -32.2760 C.3   321  ARG321      0.1563
     79  C         22.2090  -22.2420  -31.0020 C.2   321  ARG321      0.2260
     80  O         21.4020  -23.1810  -30.9120 O.2   321  ARG321     -0.2867
     81  CB        22.4530  -20.9860  -33.2210 C.3   321  ARG321      0.0307
     82  CG        23.3140  -20.5740  -34.4670 C.3   321  ARG321      0.0489
     83  CD        22.6530  -19.4310  -35.2770 C.3   321  ARG321      0.2205
     84  NE        23.4120  -18.9950  -36.4550 N.pl3 321  ARG321     -0.0865
     85  CZ        23.2290  -17.8200  -37.0590 C.cat 321  ARG321      0.5346
     86  NH1       22.3260  -16.9820  -36.5850 N.pl3 321  ARG321      0.1354
     87  NH2       23.9460  -17.4720  -38.1240 N.pl3 321  ARG321      0.1354
     88  N         18.5530  -22.3280  -47.2810 N.3   350  ALA350     -0.1231
     89  CA        19.4160  -21.2610  -47.7830 C.3   350  ALA350      0.1694
     90  C         20.5930  -21.1320  -46.8570 C.2   350  ALA350      0.2592
     91  O         21.7570  -21.1450  -47.2550 O.2   350  ALA350     -0.2718
     92  CB        18.6550  -19.9550  -47.8660 C.3   350  ALA350      0.0304
     93  N         20.2280  -20.9780  -45.6010 N.am  351  ASP351     -0.1974
     94  CA        21.1200  -21.1440  -44.4950 C.3   351  ASP351      0.1709
     95  C         20.9380  -22.5260  -43.9540 C.2   351  ASP351      0.2293
     96  O         20.2180  -23.3510  -44.5150 O.2   351  ASP351     -0.2864
     97  CB        20.8250  -20.1360  -43.4040 C.3   351  ASP351      0.1436
     98  CG        21.4590  -18.8450  -43.6730 C.2   351  ASP351      0.3671
     99  OD1       21.4640  -18.4430  -44.8660 O.co2 351  ASP351     -0.2456
    100  OD2       21.9780  -18.2390  -42.7050 O.co2 351  ASP351     -0.2456
    101  N         17.4330  -21.3300  -42.3150 N.3   354  HIS354     -0.1241
    102  CA        16.2850  -20.8170  -43.0500 C.3   354  HIS354      0.1621
    103  C         15.8010  -21.7210  -44.1590 C.2   354  HIS354      0.2264
    104  O         16.4320  -21.7880  -45.1970 O.2   354  HIS354     -0.2867
    105  CB        16.6160  -19.4540  -43.6540 C.3   354  HIS354      0.0745
    106  CG        17.0170  -18.4200  -42.6510 C.ar  354  HIS354      0.0817
    107  ND1       18.1760  -18.5050  -41.9110 N.ar  354  HIS354     -0.2268
    108  CD2       16.4290  -17.2550  -42.2930 C.ar  354  HIS354      0.1154
    109  CE1       18.2720  -17.4530  -41.1180 C.ar  354  HIS354      0.1986
    110  NE2       17.2330  -16.6730  -41.3380 N.ar  354  HIS354     -0.2212
@<TRIPOS>BOND
     1    18    17    2
     2    17    16    1
     3    16    15    1
     4    16    19    1
     5    10     9    2
     6    19    20    1
     7     9     8    1
     8    20    21    1
     9    22    21    2
    10    21    23   am
    11    24    25    1
    12     7     8    1
    13    92    89    1
    14     8    11    1
    15    89    88    1
    16    89    90    1
    17    29    28    1
    18    91    90    2
    19    11    12    1
    20    90    93   am
    21    25    28    1
    22    25    26    1
    23    13    12    2
    24    12    14   am
    25    26    27    2
    26    93    94    1
    27   104   103    2
    28    99    98   ar
    29    96    95    2
    30    94    95    1
    31    94    97    1
    32   103   102    1
    33    43    42    1
    34    98    97    1
    35    98   100   ar
    36     4     3    2
    37   105   102    1
    38   105   106    1
    39   102   101    1
    40   106   108   ar
    41   106   107   ar
    42    42    39    1
    43    36    35    1
    44     3     2    1
    45   108   110   ar
    46   107   109   ar
    47     2     5    1
    48     2     1    1
    49    38    39    1
    50    38    32   am
    51     5     6    1
    52    31    32    1
    53    31    30    1
    54    31    34    1
    55    39    40    1
    56   110   109   ar
    57    35    34    1
    58    35    37    1
    59    32    33    2
    60    41    40    2
    61    40    44   am
    62    44    45    1
    63    87    85    1
    64    45    46    1
    65    54    52    1
    66    52    53    1
    67    52    49    1
    68    85    86    1
    69    85    84    2
    70    46    47    2
    71    75    76   ar
    72    75    73   ar
    73    84    83    1
    74    62    60   am
    75    61    60    2
    76    76    74   ar
    77    73    70   ar
    78    49    50    1
    79    49    48    1
    80    60    59    1
    81    83    82    1
    82    50    51    2
    83    74    72   ar
    84    65    64    1
    85    65    66    2
    86    70    72   ar
    87    70    68   ar
    88    82    81    1
    89    64    67    1
    90    64    63    1
    91    59    56    1
    92    72    71   ar
    93    67    68    1
    94    68    69   ar
    95    81    78    1
    96    56    55    1
    97    56    57    1
    98    77    78    1
    99    71    69   ar
   100    78    79    1
   101    57    58    2
   102    79    80    2
