@<TRIPOS>MOLECULE
tmp/5e6eA02.pdb
 98 91 0 0 0
SMALL
GASTEIGER

@<TRIPOS>ATOM
      1  N         45.6720   23.1910   71.9060 N.3    17  VAL17      -0.1245
      2  CA        44.3150   22.9020   72.3710 C.3    17  VAL17       0.1561
      3  C         44.4300   21.9380   73.5460 C.2    17  VAL17       0.2260
      4  O         43.7460   22.0710   74.5620 O.2    17  VAL17      -0.2867
      5  CB        43.4650   22.2490   71.2540 C.3    17  VAL17       0.0252
      6  CG1       42.2040   21.6320   71.8440 C.3    17  VAL17       0.0019
      7  CG2       43.1070   23.3080   70.2030 C.3    17  VAL17       0.0019
      8  N         40.4200   19.6620   73.9830 N.3    21  ALA21      -0.1245
      9  CA        39.8330   19.2380   72.7140 C.3    21  ALA21       0.1562
     10  C         38.3850   18.7530   72.8210 C.2    21  ALA21       0.2260
     11  O         37.5430   19.1550   72.0190 O.2    21  ALA21      -0.2867
     12  CB        40.6930   18.1810   72.0680 C.3    21  ALA21       0.0290
     13  N         36.0770   21.5230   73.5140 N.3    24  TYR24      -0.1227
     14  CA        35.9750   22.3570   72.3200 C.3    24  TYR24       0.1736
     15  C         35.1090   21.7100   71.2340 C.2    24  TYR24       0.2596
     16  O         34.4590   22.4120   70.4810 O.2    24  TYR24      -0.2718
     17  CB        37.3620   22.6850   71.7560 C.3    24  TYR24       0.0548
     18  CG        38.1930   23.6210   72.6390 C.ar   24  TYR24      -0.0200
     19  CD1       39.4800   23.9910   72.2680 C.ar   24  TYR24      -0.0009
     20  CD2       37.6960   24.0960   73.8560 C.ar   24  TYR24      -0.0009
     21  CE1       40.2670   24.8190   73.0910 C.ar   24  TYR24       0.0417
     22  CE2       38.4780   24.9190   74.6970 C.ar   24  TYR24       0.0417
     23  CZ        39.7590   25.2700   74.3050 C.ar   24  TYR24       0.1957
     24  OH        40.5540   26.0350   75.1440 O.3    24  TYR24      -0.2866
     25  N         35.1390   20.3850   71.1550 N.am   25  GLY25      -0.1957
     26  CA        34.3030   19.6890   70.1820 C.3    25  GLY25       0.1869
     27  C         32.8370   19.9430   70.4970 C.2    25  GLY25       0.2309
     28  O         32.0140   20.1680   69.5950 O.2    25  GLY25      -0.2863
     29  N         35.9590   15.2330   68.5890 N.3    63  ALA63      -0.1245
     30  CA        37.3500   15.5860   68.8600 C.3    63  ALA63       0.1562
     31  C         38.2980   14.4110   68.6480 C.2    63  ALA63       0.2260
     32  O         39.3910   14.5700   68.0710 O.2    63  ALA63      -0.2867
     33  CB        37.4820   16.0840   70.3020 C.3    63  ALA63       0.0290
     34  N         38.8770   13.6830   65.0260 N.3    66  LEU66      -0.1231
     35  CA        39.7460   14.6720   64.4110 C.3    66  LEU66       0.1693
     36  C         41.2070   14.4210   64.8080 C.2    66  LEU66       0.2592
     37  O         42.1220   14.5730   63.9710 O.2    66  LEU66      -0.2718
     38  CB        39.3060   16.0790   64.8110 C.3    66  LEU66       0.0284
     39  CG        37.9530   16.5070   64.2040 C.3    66  LEU66       0.0019
     40  CD1       37.5230   17.8740   64.7110 C.3    66  LEU66       0.0001
     41  CD2       38.1180   16.5670   62.6720 C.3    66  LEU66       0.0001
     42  N         41.4470   14.0580   66.0630 N.am   67  THR67      -0.1953
     43  CA        42.8310   13.7910   66.4800 C.3    67  THR67       0.1897
     44  C         43.3460   12.5100   65.8390 C.2    67  THR67       0.2313
     45  O         44.5330   12.3800   65.5820 O.2    67  THR67      -0.2863
     46  CB        42.9690   13.7260   68.0090 C.3    67  THR67       0.1794
     47  OG1       42.4960   12.4680   68.4990 O.3    67  THR67      -0.2208
     48  CG2       42.1750   14.8160   68.6100 C.3    67  THR67       0.0378
     49  N         34.0680   24.6510   63.9440 N.3   105  LEU105     -0.1245
     50  CA        35.2840   24.1480   64.5950 C.3   105  LEU105      0.1561
     51  C         36.3610   25.2410   64.4950 C.2   105  LEU105      0.2260
     52  O         37.0810   25.5070   65.4590 O.2   105  LEU105     -0.2867
     53  CB        35.7790   22.8550   63.9200 C.3   105  LEU105      0.0270
     54  CG        34.9540   21.5940   64.2510 C.3   105  LEU105      0.0019
     55  CD1       35.1540   20.5380   63.1910 C.3   105  LEU105      0.0001
     56  CD2       35.3530   21.0370   65.6230 C.3   105  LEU105      0.0001
     57  N         35.6210   27.9910   66.9190 N.3   108  THR108     -0.1203
     58  CA        35.9100   27.5650   68.2940 C.3   108  THR108      0.1994
     59  C         37.4120   27.6640   68.5830 C.2   108  THR108      0.2617
     60  O         37.8210   28.1260   69.6460 O.2   108  THR108     -0.2717
     61  CB        35.4100   26.1280   68.5510 C.3   108  THR108      0.1784
     62  OG1       34.0000   26.0620   68.2800 O.3   108  THR108     -0.2211
     63  CG2       35.6580   25.7120   70.0270 C.3   108  THR108      0.0376
     64  N         38.2380   27.2300   67.6370 N.am  109  LEU109     -0.1979
     65  CA        39.6880   27.3200   67.8410 C.3   109  LEU109      0.1596
     66  C         40.0870   28.8010   67.9320 C.2   109  LEU109      0.2287
     67  O         40.8590   29.1980   68.8060 O.2   109  LEU109     -0.2864
     68  CB        40.4250   26.6410   66.6800 C.3   109  LEU109      0.0297
     69  CG        40.1930   25.1310   66.5820 C.3   109  LEU109      0.0022
     70  CD1       40.8830   24.5400   65.3540 C.3   109  LEU109      0.0001
     71  CD2       40.7060   24.4740   67.8550 C.3   109  LEU109      0.0001
     72  N         44.4090   24.9160   59.0520 N.3   125  LEU125     -0.1245
     73  CA        43.2900   24.2660   59.7280 C.3   125  LEU125      0.1561
     74  C         42.1290   24.1150   58.7510 C.2   125  LEU125      0.2260
     75  O         41.4870   23.0550   58.6910 O.2   125  LEU125     -0.2867
     76  CB        42.8560   25.0800   60.9530 C.3   125  LEU125      0.0270
     77  CG        43.8190   25.0120   62.1600 C.3   125  LEU125      0.0019
     78  CD1       43.4340   26.0810   63.2120 C.3   125  LEU125      0.0001
     79  CD2       43.7940   23.5950   62.7600 C.3   125  LEU125      0.0001
     80  N         42.8230   21.2350   56.4710 N.3   128  PHE128     -0.1227
     81  CA        42.7230   19.9850   57.1850 C.3   128  PHE128      0.1736
     82  C         41.2680   19.5820   57.3610 C.2   128  PHE128      0.2595
     83  O         40.9220   18.4410   57.1030 O.2   128  PHE128     -0.2718
     84  CB        43.3970   20.1230   58.5490 C.3   128  PHE128      0.0547
     85  CG        43.0430   19.0150   59.5000 C.ar  128  PHE128     -0.0202
     86  CD1       43.6140   17.7530   59.3750 C.ar  128  PHE128     -0.0042
     87  CD2       42.1780   19.2650   60.5650 C.ar  128  PHE128     -0.0042
     88  CE1       43.2920   16.7480   60.2840 C.ar  128  PHE128     -0.0003
     89  CE2       41.8540   18.2650   61.4710 C.ar  128  PHE128     -0.0003
     90  CZ        42.4300   17.0130   61.3360 C.ar  128  PHE128     -0.0000
     91  N         40.4220   20.5150   57.8010 N.am  129  LEU129     -0.1980
     92  CA        39.0120   20.1920   58.0110 C.3   129  LEU129      0.1596
     93  C         38.3180   19.8930   56.6800 C.2   129  LEU129      0.2287
     94  O         37.4170   19.0500   56.6050 O.2   129  LEU129     -0.2864
     95  CB        38.3300   21.3370   58.7550 C.3   129  LEU129      0.0297
     96  CG        38.8210   21.4930   60.1940 C.3   129  LEU129      0.0022
     97  CD1       38.3070   22.7860   60.7870 C.3   129  LEU129      0.0001
     98  CD2       38.3680   20.3050   61.0050 C.3   129  LEU129      0.0001
@<TRIPOS>BOND
     1    80    81    1
     2    94    93    2
     3    93    92    1
     4    83    82    2
     5    81    82    1
     6    81    84    1
     7    82    91   am
     8    91    92    1
     9    92    95    1
    10    84    85    1
    11    75    74    2
    12    74    73    1
    13    95    96    1
    14    72    73    1
    15    86    85   ar
    16    86    88   ar
    17    85    87   ar
    18    73    76    1
    19    96    97    1
    20    96    98    1
    21    88    90   ar
    22    87    89   ar
    23    76    77    1
    24    90    89   ar
    25    77    79    1
    26    77    78    1
    27    41    39    1
    28    55    54    1
    29    53    54    1
    30    53    50    1
    31    49    50    1
    32    37    36    2
    33    39    40    1
    34    39    38    1
    35    54    56    1
    36    35    36    1
    37    35    38    1
    38    35    34    1
    39    51    50    1
    40    51    52    2
    41    36    42   am
    42    70    69    1
    43    45    44    2
    44    44    43    1
    45    42    43    1
    46    43    46    1
    47    69    68    1
    48    69    71    1
    49    68    65    1
    50    57    58    1
    51    64    65    1
    52    64    59   am
    53    65    66    1
    54    66    67    2
    55    46    47    1
    56    46    48    1
    57    32    31    2
    58    62    61    1
    59    58    61    1
    60    58    59    1
    61    61    63    1
    62    59    60    2
    63    29    30    1
    64    31    30    1
    65    30    33    1
    66    28    27    2
    67    26    27    1
    68    26    25    1
    69     7     5    1
    70    16    15    2
    71    25    15   am
    72    15    14    1
    73     5     6    1
    74     5     2    1
    75    17    14    1
    76    17    18    1
    77     1     2    1
    78    11    10    2
    79    12     9    1
    80    19    18   ar
    81    19    21   ar
    82    14    13    1
    83     2     3    1
    84    18    20   ar
    85     9    10    1
    86     9     8    1
    87    21    23   ar
    88     3     4    2
    89    20    22   ar
    90    23    22   ar
    91    23    24    1
