@<TRIPOS>MOLECULE
tmp/5e6mB00.pdb
 157 144 0 0 0
SMALL
GASTEIGER

@<TRIPOS>ATOM
      1  N        459.7220  175.6090   32.6740 N.3   142  GLU142     -0.1245
      2  CA       459.5440  177.0530   32.6670 C.3   142  GLU142      0.1567
      3  C        458.5610  177.4700   31.5740 C.2   142  GLU142      0.2260
      4  O        458.2790  176.6920   30.6620 O.2   142  GLU142     -0.2867
      5  CB       460.8860  177.7520   32.4710 C.3   142  GLU142      0.0388
      6  CG       461.5560  177.4390   31.1530 C.3   142  GLU142      0.1160
      7  CD       462.9020  178.1190   31.0200 C.2   142  GLU142      0.3649
      8  OE1      463.5300  178.3970   32.0650 O.co2 142  GLU142     -0.2457
      9  OE2      463.3270  178.3870   29.8740 O.co2 142  GLU142     -0.2457
     10  N        459.2500  170.6640   37.9670 N.3   174  ARG174     -0.1245
     11  CA       460.6300  170.2680   38.2110 C.3   174  ARG174      0.1563
     12  C        460.6580  169.0320   39.0920 C.2   174  ARG174      0.2260
     13  O        460.2860  169.0890   40.2580 O.2   174  ARG174     -0.2867
     14  CB       461.4260  171.4110   38.8530 C.3   174  ARG174      0.0307
     15  CG       461.2760  172.7360   38.1240 C.3   174  ARG174      0.0489
     16  CD       462.5460  173.5410   38.1160 C.3   174  ARG174      0.2205
     17  NE       462.3480  174.8080   37.4230 N.pl3 174  ARG174     -0.0865
     18  CZ       463.0230  175.9180   37.6950 C.cat 174  ARG174      0.5346
     19  NH1      463.9490  175.9160   38.6460 N.pl3 174  ARG174      0.1354
     20  NH2      462.7710  177.0310   37.0200 N.pl3 174  ARG174      0.1354
     21  N        462.0890  167.4790   41.3490 N.3   176  GLU176     -0.1245
     22  CA       463.1150  167.6590   42.3620 C.3   176  GLU176      0.1567
     23  C        463.4390  166.3500   43.0750 C.2   176  GLU176      0.2260
     24  O        462.5420  165.5600   43.3860 O.2   176  GLU176     -0.2867
     25  CB       462.6800  168.7180   43.3800 C.3   176  GLU176      0.0388
     26  CG       462.4590  170.1030   42.7960 C.3   176  GLU176      0.1160
     27  CD       463.7410  170.7590   42.3080 C.2   176  GLU176      0.3649
     28  OE1      464.8380  170.2440   42.6110 O.co2 176  GLU176     -0.2457
     29  OE2      463.6510  171.7990   41.6190 O.co2 176  GLU176     -0.2457
     30  N        456.1630  175.1540   50.2470 N.3   183  LEU183     -0.1231
     31  CA       456.0080  175.7280   48.9120 C.3   183  LEU183      0.1693
     32  C        457.3190  176.2220   48.3090 C.2   183  LEU183      0.2592
     33  O        457.3820  176.5160   47.1160 O.2   183  LEU183     -0.2718
     34  CB       455.0150  176.8910   48.9470 C.3   183  LEU183      0.0284
     35  CG       453.6210  176.6080   49.5030 C.3   183  LEU183      0.0019
     36  CD1      452.7570  177.8550   49.3910 C.3   183  LEU183      0.0001
     37  CD2      452.9780  175.4330   48.7830 C.3   183  LEU183      0.0001
     38  N        458.3580  176.3250   49.1320 N.am  184  ILE184     -0.1966
     39  CA       459.6240  176.9090   48.6970 C.3   184  ILE184      0.1727
     40  C        460.3450  176.0070   47.7070 C.2   184  ILE184      0.2616
     41  O        461.0330  176.4820   46.8030 O.2   184  ILE184     -0.2715
     42  CB       460.5420  177.1970   49.8990 C.3   184  ILE184      0.0290
     43  CG1      459.8030  178.0720   50.9120 C.3   184  ILE184      0.0022
     44  CG2      461.8440  177.8530   49.4460 C.3   184  ILE184      0.0023
     45  CD1      460.7020  178.7840   51.8720 C.3   184  ILE184      0.0001
     46  N        460.1760  174.7020   47.8810 N.am  185  ARG185     -0.1963
     47  CA       460.7530  173.7300   46.9650 C.3   185  ARG185      0.1729
     48  C        459.7070  172.6860   46.6090 C.2   185  ARG185      0.2616
     49  O        459.5260  171.7080   47.3370 O.2   185  ARG185     -0.2715
     50  CB       461.9810  173.0620   47.5850 C.3   185  ARG185      0.0348
     51  CG       462.8990  172.3800   46.5890 C.3   185  ARG185      0.0492
     52  CD       463.7140  173.4070   45.8240 C.3   185  ARG185      0.2205
     53  NE       464.6450  172.7790   44.8900 N.pl3 185  ARG185     -0.0865
     54  CZ       465.8990  172.4510   45.1850 C.cat 185  ARG185      0.5346
     55  NH1      466.6660  171.8840   44.2660 N.pl3 185  ARG185      0.1354
     56  NH2      466.3870  172.6890   46.3960 N.pl3 185  ARG185      0.1354
     57  N        459.0090  172.9020   45.4970 N.am  186  VAL186     -0.1977
     58  CA       457.9830  171.9670   45.0440 C.3   186  VAL186      0.1596
     59  C        458.3230  171.4010   43.6730 C.2   186  VAL186      0.2287
     60  O        459.3130  171.8020   43.0580 O.2   186  VAL186     -0.2864
     61  CB       456.5970  172.6270   44.9840 C.3   186  VAL186      0.0276
     62  CG1      456.0990  172.9450   46.3780 C.3   186  VAL186      0.0022
     63  CG2      456.6520  173.8870   44.1480 C.3   186  VAL186      0.0022
     64  N        454.5910  174.2610   40.2890 N.3   189  PHE189     -0.1241
     65  CA       454.3220  175.5940   40.8050 C.3   189  PHE189      0.1605
     66  C        453.9330  176.5370   39.6750 C.2   189  PHE189      0.2264
     67  O        454.3570  176.3640   38.5310 O.2   189  PHE189     -0.2867
     68  CB       455.5390  176.1340   41.5580 C.3   189  PHE189      0.0534
     69  CG       456.7760  176.2500   40.7100 C.ar  189  PHE189     -0.0203
     70  CD1      457.5380  175.1310   40.4120 C.ar  189  PHE189     -0.0042
     71  CD2      457.1810  177.4830   40.2180 C.ar  189  PHE189     -0.0042
     72  CE1      458.6760  175.2350   39.6320 C.ar  189  PHE189     -0.0003
     73  CE2      458.3150  177.5970   39.4430 C.ar  189  PHE189     -0.0003
     74  CZ       459.0680  176.4700   39.1480 C.ar  189  PHE189     -0.0000
     75  N        454.0300  179.9160   37.6210 N.3   191  MET191     -0.1245
     76  CA       455.0750  180.8800   37.3340 C.3   191  MET191      0.1570
     77  C        454.5600  181.9720   36.4030 C.2   191  MET191      0.2261
     78  O        453.7970  181.7070   35.4720 O.2   191  MET191     -0.2867
     79  CB       456.2810  180.1720   36.7150 C.3   191  MET191      0.0387
     80  CG       457.5690  180.9550   36.8160 C.3   191  MET191      0.0595
     81  SD       459.0030  179.9820   36.3210 S.3   191  MET191     -0.1393
     82  CE       458.7490  179.9330   34.5590 C.3   191  MET191      0.0692
     83  N        456.0720  184.8210   33.8620 N.3   193  GLU193     -0.1245
     84  CA       457.3230  185.1730   33.2120 C.3   193  GLU193      0.1567
     85  C        457.1160  186.2620   32.1750 C.2   193  GLU193      0.2260
     86  O        456.1380  186.2370   31.4350 O.2   193  GLU193     -0.2867
     87  CB       457.9430  183.9390   32.5610 C.3   193  GLU193      0.0388
     88  CG       459.4440  183.8340   32.7350 C.3   193  GLU193      0.1160
     89  CD       459.9490  182.4170   32.5280 C.2   193  GLU193      0.3649
     90  OE1      459.2140  181.6050   31.9250 O.co2 193  GLU193     -0.2457
     91  OE2      461.0760  182.1110   32.9760 O.co2 193  GLU193     -0.2457
     92  N        465.0190  183.2950   46.9870 N.3   298  GLU298     -0.1231
     93  CA       464.7410  183.9270   45.6970 C.3   298  GLU298      0.1699
     94  C        463.2760  183.7310   45.3000 C.2   298  GLU298      0.2592
     95  O        462.8140  182.5990   45.1640 O.2   298  GLU298     -0.2718
     96  CB       465.6700  183.3480   44.6190 C.3   298  GLU298      0.0402
     97  CG       465.2270  183.5860   43.1800 C.3   298  GLU298      0.1161
     98  CD       465.8230  182.5740   42.2040 C.2   298  GLU298      0.3649
     99  OE1      466.3470  181.5310   42.6610 O.co2 298  GLU298     -0.2457
    100  OE2      465.7560  182.8170   40.9780 O.co2 298  GLU298     -0.2457
    101  N        462.5450  184.8260   45.1210 N.am  299  ILE299     -0.1980
    102  CA       461.1350  184.7290   44.7580 C.3   299  ILE299      0.1595
    103  C        460.8570  185.3140   43.3770 C.2   299  ILE299      0.2287
    104  O        459.8920  184.9290   42.7160 O.2   299  ILE299     -0.2864
    105  CB       460.2300  185.4320   45.7850 C.3   299  ILE299      0.0276
    106  CG1      460.5940  186.9130   45.9010 C.3   299  ILE299      0.0022
    107  CG2      460.3290  184.7430   47.1330 C.3   299  ILE299      0.0022
    108  CD1      459.6920  187.6880   46.8280 C.3   299  ILE299      0.0001
    109  N        463.2550  186.3530   39.8530 N.3   301  GLY301     -0.1225
    110  CA       464.5610  186.4120   39.2240 C.3   301  GLY301      0.1811
    111  C        464.5610  187.2590   37.9670 C.2   301  GLY301      0.2280
    112  O        463.9880  186.8650   36.9520 O.2   301  GLY301     -0.2866
    113  N        469.4250  188.0200   29.1570 N.3   305  ARG305     -0.1245
    114  CA       469.8930  186.9320   28.3040 C.3   305  ARG305      0.1563
    115  C        470.1760  187.4310   26.8860 C.2   305  ARG305      0.2260
    116  O        469.4190  187.0620   25.9800 O.2   305  ARG305     -0.2867
    117  CB       468.8330  185.8400   28.2450 C.3   305  ARG305      0.0307
    118  CG       467.8270  185.9310   29.3790 C.3   305  ARG305      0.0489
    119  CD       466.8250  184.8110   29.2950 C.3   305  ARG305      0.2205
    120  NE       467.1050  183.7720   30.2750 N.pl3 305  ARG305     -0.0865
    121  CZ       466.6960  182.5130   30.1590 C.cat 305  ARG305      0.5346
    122  NH1      465.9920  182.1410   29.0960 N.pl3 305  ARG305      0.1354
    123  NH2      467.0020  181.6240   31.1010 N.pl3 305  ARG305      0.1354
    124  N        464.4510  189.2530   31.2950 N.3   350  GLU350     -0.1245
    125  CA       463.4590  188.2920   31.7720 C.3   350  GLU350      0.1567
    126  C        463.1930  188.3400   33.2800 C.2   350  GLU350      0.2260
    127  O        463.9320  187.7400   34.0610 O.2   350  GLU350     -0.2867
    128  CB       463.8970  186.8770   31.3850 C.3   350  GLU350      0.0388
    129  CG       462.9080  185.7810   31.7520 C.3   350  GLU350      0.1160
    130  CD       463.6020  184.4970   32.1660 C.2   350  GLU350      0.3649
    131  OE1      464.3150  184.5120   33.1960 O.co2 350  GLU350     -0.2457
    132  OE2      463.4460  183.4800   31.4550 O.co2 350  GLU350     -0.2457
    133  N        461.2040  186.8310   36.2170 N.3   352  SER352     -0.1217
    134  CA       460.5920  185.5260   36.4240 C.3   352  SER352      0.1889
    135  C        459.9770  185.4320   37.8200 C.2   352  SER352      0.2288
    136  O        460.6890  185.4650   38.8190 O.2   352  SER352     -0.2866
    137  CB       461.6330  184.4220   36.2130 C.3   352  SER352      0.2089
    138  OG       461.0530  183.1340   36.3010 O.3   352  SER352     -0.2183
    139  N        457.9420  183.5520   40.8100 N.3   354  GLY354     -0.1225
    140  CA       457.4820  182.3070   41.3990 C.3   354  GLY354      0.1811
    141  C        456.3430  182.5550   42.3740 C.2   354  GLY354      0.2280
    142  O        456.5760  182.9390   43.5210 O.2   354  GLY354     -0.2866
    143  N        454.1470  180.7580   44.0940 N.3   356  GLY356     -0.1210
    144  CA       454.0550  179.9850   45.3230 C.3   356  GLY356      0.1956
    145  C        454.9340  180.5430   46.4210 C.2   356  GLY356      0.2611
    146  O        454.4980  180.6920   47.5630 O.2   356  GLY356     -0.2717
    147  N        456.1770  180.8570   46.0700 N.am  357  ARG357     -0.1979
    148  CA       457.1070  181.4730   47.0060 C.3   357  ARG357      0.1597
    149  C        456.6450  182.8730   47.4050 C.2   357  ARG357      0.2287
    150  O        456.6700  183.2270   48.5830 O.2   357  ARG357     -0.2864
    151  CB       458.5110  181.5370   46.4060 C.3   357  ARG357      0.0334
    152  CG       459.2130  180.1970   46.3030 C.3   357  ARG357      0.0492
    153  CD       460.6420  180.3790   45.8300 C.3   357  ARG357      0.2205
    154  NE       461.3530  179.1110   45.7000 N.pl3 357  ARG357     -0.0865
    155  CZ       462.6080  179.0020   45.2760 C.cat 357  ARG357      0.5346
    156  NH1      463.2930  180.0880   44.9440 N.pl3 357  ARG357      0.1354
    157  NH2      463.1780  177.8100   45.1830 N.pl3 357  ARG357      0.1354
@<TRIPOS>BOND
     1   116   115    2
     2   115   114    1
     3   117   114    1
     4   117   118    1
     5   114   113    1
     6   122   121    1
     7   119   118    1
     8   119   120    1
     9     9     7   ar
    10   121   120    2
    11   121   123    1
    12     4     3    2
    13     7     6    1
    14     7     8   ar
    15     6     5    1
    16   124   125    1
    17   128   129    1
    18   128   125    1
    19    86    85    2
    20   132   130   ar
    21     3     2    1
    22   129   130    1
    23   125   126    1
    24    90    89   ar
    25   130   131   ar
    26    85    84    1
    27     5     2    1
    28    89    88    1
    29    89    91   ar
    30    87    88    1
    31    87    84    1
    32     2     1    1
    33    84    83    1
    34   126   127    2
    35    82    81    1
    36    78    77    2
    37   137   138    1
    38   137   134    1
    39   133   134    1
    40    81    80    1
    41    77    76    1
    42   134   135    1
    43    79    80    1
    44    79    76    1
    45   112   111    2
    46    20    18    1
    47    76    75    1
    48    17    18    2
    49    17    16    1
    50    18    19    1
    51   135   136    2
    52   111   110    1
    53    10    11    1
    54    16    15    1
    55    15    14    1
    56    11    14    1
    57    11    12    1
    58    67    66    2
    59    12    13    2
    60    74    73   ar
    61    74    72   ar
    62   110   109    1
    63    73    71   ar
    64    72    70   ar
    65    66    65    1
    66    71    69   ar
    67    64    65    1
    68    70    69   ar
    69    69    68    1
    70    65    68    1
    71   139   140    1
    72   100    98   ar
    73    21    22    1
    74   140   141    1
    75    29    27   ar
    76    98    99   ar
    77    98    97    1
    78    27    28   ar
    79    27    26    1
    80    22    23    1
    81    22    25    1
    82   141   142    2
    83   104   103    2
    84    26    25    1
    85    60    59    2
    86    23    24    2
    87    97    96    1
    88   103   102    1
    89    59    58    1
    90   143   144    1
    91    63    61    1
    92    55    54    1
    93    96    93    1
    94   102   101    1
    95   102   105    1
    96    53    54    2
    97    53    52    1
    98   156   155    1
    99    61    58    1
   100    61    62    1
   101    58    57    1
   102   101    94   am
   103    95    94    2
   104   157   155    1
   105    54    56    1
   106   155   154    2
   107    94    93    1
   108   144   145    1
   109    57    48   am
   110    93    92    1
   111   154   153    1
   112   105   106    1
   113   105   107    1
   114    52    51    1
   115   153   152    1
   116   106   108    1
   117   147   145   am
   118   147   148    1
   119   152   151    1
   120   151   148    1
   121   145   146    2
   122    51    50    1
   123    48    47    1
   124    48    49    2
   125    41    40    2
   126    47    50    1
   127    47    46    1
   128   148   149    1
   129    33    32    2
   130   149   150    2
   131    40    46   am
   132    40    39    1
   133    32    31    1
   134    32    38   am
   135    39    38    1
   136    39    42    1
   137    37    35    1
   138    31    34    1
   139    31    30    1
   140    34    35    1
   141    36    35    1
   142    44    42    1
   143    42    43    1
   144    43    45    1
