@<TRIPOS>MOLECULE
tmp/5e6mA00.pdb
 168 157 0 0 0
SMALL
GASTEIGER

@<TRIPOS>ATOM
      1  N        441.1300  164.7540   33.7460 N.3   159  GLU159     -0.1245
      2  CA       440.0360  165.6220   34.1370 C.3   159  GLU159      0.1567
      3  C        440.4360  166.4270   35.3620 C.2   159  GLU159      0.2260
      4  O        441.4770  166.1840   35.9740 O.2   159  GLU159     -0.2867
      5  CB       438.7760  164.8100   34.4360 C.3   159  GLU159      0.0388
      6  CG       438.8940  163.9580   35.6900 C.3   159  GLU159      0.1160
      7  CD       437.6080  163.2430   36.0390 C.2   159  GLU159      0.3649
      8  OE1      436.6380  163.3440   35.2600 O.co2 159  GLU159     -0.2457
      9  OE2      437.5640  162.5810   37.0970 O.co2 159  GLU159     -0.2457
     10  N        444.6800  164.4700   27.4250 N.3   191  ARG191     -0.1245
     11  CA       444.1700  163.2910   26.7440 C.3   191  ARG191      0.1563
     12  C        445.1530  162.8930   25.6630 C.2   191  ARG191      0.2260
     13  O        445.2590  163.5720   24.6520 O.2   191  ARG191     -0.2867
     14  CB       442.8000  163.5630   26.1220 C.3   191  ARG191      0.0307
     15  CG       441.7620  164.1210   27.0750 C.3   191  ARG191      0.0489
     16  CD       441.2970  163.0690   28.0500 C.3   191  ARG191      0.2205
     17  NE       440.2810  163.5820   28.9630 N.pl3 191  ARG191     -0.0865
     18  CZ       438.9960  163.7080   28.6540 C.cat 191  ARG191      0.5346
     19  NH1      438.5650  163.3660   27.4470 N.pl3 191  ARG191      0.1354
     20  NH2      438.1440  164.1840   29.5520 N.pl3 191  ARG191      0.1354
     21  N        445.3280  161.5280   22.9220 N.3   193  GLU193     -0.1245
     22  CA       444.4810  161.0530   21.8370 C.3   193  GLU193      0.1567
     23  C        445.3170  160.4330   20.7240 C.2   193  GLU193      0.2260
     24  O        446.3700  160.9650   20.3520 O.2   193  GLU193     -0.2867
     25  CB       443.6230  162.2000   21.2850 C.3   193  GLU193      0.0388
     26  CG       442.7290  162.8880   22.3180 C.3   193  GLU193      0.1160
     27  CD       441.5350  162.0440   22.7390 C.2   193  GLU193      0.3649
     28  OE1      441.3570  160.9320   22.2020 O.co2 193  GLU193     -0.2457
     29  OE2      440.7610  162.4990   23.6050 O.co2 193  GLU193     -0.2457
     30  N        440.8960  172.8420   17.5270 N.3   200  LEU200     -0.1231
     31  CA       440.6350  172.8910   18.9590 C.3   200  LEU200      0.1693
     32  C        439.5430  171.9250   19.4070 C.2   200  LEU200      0.2592
     33  O        439.2880  171.7940   20.6050 O.2   200  LEU200     -0.2718
     34  CB       440.2400  174.3100   19.3770 C.3   200  LEU200      0.0284
     35  CG       441.2480  175.4440   19.1860 C.3   200  LEU200      0.0019
     36  CD1      440.6380  176.7500   19.6560 C.3   200  LEU200      0.0001
     37  CD2      442.5430  175.1540   19.9300 C.3   200  LEU200      0.0001
     38  N        438.8900  171.2620   18.4560 N.am  201  ILE201     -0.1966
     39  CA       437.7450  170.4220   18.7890 C.3   201  ILE201      0.1727
     40  C        438.1830  169.2050   19.5900 C.2   201  ILE201      0.2616
     41  O        437.5870  168.8990   20.6220 O.2   201  ILE201     -0.2715
     42  CB       436.9740  169.9590   17.5350 C.3   201  ILE201      0.0290
     43  CG1      436.4180  171.1560   16.7640 C.3   201  ILE201      0.0022
     44  CG2      435.8260  169.0530   17.9270 C.3   201  ILE201      0.0023
     45  CD1      435.4530  171.9890   17.5560 C.3   201  ILE201      0.0001
     46  N        439.2190  168.5120   19.1230 N.am  202  ARG202     -0.1963
     47  CA       439.7650  167.3880   19.8840 C.3   202  ARG202      0.1729
     48  C        441.2860  167.4630   19.9880 C.2   202  ARG202      0.2616
     49  O        442.0090  167.1190   19.0540 O.2   202  ARG202     -0.2715
     50  CB       439.3440  166.0550   19.2710 C.3   202  ARG202      0.0348
     51  CG       439.6400  164.8660   20.1740 C.3   202  ARG202      0.0492
     52  CD       438.9940  163.5940   19.6650 C.3   202  ARG202      0.2205
     53  NE       439.2240  162.4720   20.5670 N.pl3 202  ARG202     -0.0865
     54  CZ       438.6830  161.2670   20.4150 C.cat 202  ARG202      0.5346
     55  NH1      438.9500  160.3030   21.2870 N.pl3 202  ARG202      0.1354
     56  NH2      437.8730  161.0270   19.3930 N.pl3 202  ARG202      0.1354
     57  N        441.7570  167.9060   21.1470 N.am  203  VAL203     -0.1977
     58  CA       443.1710  168.1620   21.3640 C.3   203  VAL203      0.1596
     59  C        443.7320  167.2590   22.4600 C.2   203  VAL203      0.2287
     60  O        442.9830  166.5580   23.1400 O.2   203  VAL203     -0.2864
     61  CB       443.4090  169.6320   21.7440 C.3   203  VAL203      0.0276
     62  CG1      443.1470  170.5370   20.5580 C.3   203  VAL203      0.0022
     63  CG2      442.5140  170.0160   22.9040 C.3   203  VAL203      0.0022
     64  N        443.9070  170.5900   27.0040 N.3   206  PHE206     -0.1241
     65  CA       442.8990  171.6470   26.9480 C.3   206  PHE206      0.1605
     66  C        442.5270  172.1400   28.3390 C.2   206  PHE206      0.2264
     67  O        442.7660  171.4590   29.3350 O.2   206  PHE206     -0.2867
     68  CB       441.6470  171.1600   26.2150 C.3   206  PHE206      0.0534
     69  CG       440.9920  169.9720   26.8530 C.ar  206  PHE206     -0.0203
     70  CD1      441.4630  168.6930   26.6090 C.ar  206  PHE206     -0.0042
     71  CD2      439.9050  170.1340   27.6890 C.ar  206  PHE206     -0.0042
     72  CE1      440.8680  167.5960   27.1940 C.ar  206  PHE206     -0.0003
     73  CE2      439.3000  169.0430   28.2760 C.ar  206  PHE206     -0.0003
     74  CZ       439.7820  167.7690   28.0280 C.ar  206  PHE206     -0.0000
     75  N        439.9030  173.0380   31.2010 N.3   208  MET208     -0.1245
     76  CA       438.5930  172.5750   31.6250 C.3   208  MET208      0.1570
     77  C        438.1630  173.2810   32.9080 C.2   208  MET208      0.2261
     78  O        438.9530  173.4400   33.8370 O.2   208  MET208     -0.2867
     79  CB       438.6110  171.0510   31.8210 C.3   208  MET208      0.0387
     80  CG       437.2380  170.4210   32.0480 C.3   208  MET208      0.0595
     81  SD       437.2830  168.7040   32.6270 S.3   208  MET208     -0.1393
     82  CE       438.0240  167.8660   31.2350 C.3   208  MET208      0.0692
     83  N        435.5400  172.7790   35.8760 N.3   210  GLU210     -0.1245
     84  CA       434.6730  171.7540   36.4240 C.3   210  GLU210      0.1567
     85  C        434.0330  172.2090   37.7290 C.2   210  GLU210      0.2260
     86  O        434.6330  172.9570   38.5000 O.2   210  GLU210     -0.2867
     87  CB       435.4600  170.4590   36.6340 C.3   210  GLU210      0.0388
     88  CG       434.6490  169.1970   36.4140 C.3   210  GLU210      0.1160
     89  CD       435.4980  168.0510   35.8970 C.2   210  GLU210      0.3649
     90  OE1      436.7300  168.0830   36.0940 O.co2 210  GLU210     -0.2457
     91  OE2      434.9360  167.1180   35.2920 O.co2 210  GLU210     -0.2457
     92  N        429.7450  168.5420   21.6920 N.3   314  GLU314     -0.1231
     93  CA       429.5620  168.7700   23.1180 C.3   314  GLU314      0.1699
     94  C        430.5710  169.7870   23.6260 C.2   314  GLU314      0.2592
     95  O        431.7700  169.6590   23.3800 O.2   314  GLU314     -0.2718
     96  CB       429.7050  167.4610   23.8940 C.3   314  GLU314      0.0402
     97  CG       429.5990  167.6220   25.3990 C.3   314  GLU314      0.1161
     98  CD       430.5390  166.7030   26.1580 C.2   314  GLU314      0.3649
     99  OE1      431.1880  165.8500   25.5140 O.co2 314  GLU314     -0.2457
    100  OE2      430.6220  166.8270   27.4000 O.co2 314  GLU314     -0.2457
    101  N        430.0880  170.8020   24.3280 N.am  315  ILE315     -0.1980
    102  CA       430.9760  171.8120   24.8790 C.3   315  ILE315      0.1595
    103  C        430.8680  171.8240   26.3930 C.2   315  ILE315      0.2287
    104  O        431.8150  172.1830   27.0850 O.2   315  ILE315     -0.2864
    105  CB       430.6700  173.2100   24.3200 C.3   315  ILE315      0.0276
    106  CG1      429.1750  173.5180   24.4380 C.3   315  ILE315      0.0022
    107  CG2      431.1200  173.3050   22.8760 C.3   315  ILE315      0.0022
    108  CD1      428.7700  174.8560   23.8610 C.3   315  ILE315      0.0001
    109  N        429.3990  169.1310   29.4370 N.3   317  GLY317     -0.1225
    110  CA       428.6940  167.9910   29.9900 C.3   317  GLY317      0.1811
    111  C        428.1150  168.3400   31.3510 C.2   317  GLY317      0.2280
    112  O        428.7510  169.0370   32.1350 O.2   317  GLY317     -0.2866
    113  N        425.8170  162.0760   38.9680 N.3   321  ARG321     -0.1245
    114  CA       426.6190  160.9040   39.2960 C.3   321  ARG321      0.1563
    115  C        426.5140  160.6280   40.7910 C.2   321  ARG321      0.2260
    116  O        427.5450  160.5580   41.4760 O.2   321  ARG321     -0.2867
    117  CB       428.0720  161.1440   38.8740 C.3   321  ARG321      0.0307
    118  CG       428.4080  162.6410   38.7620 C.3   321  ARG321      0.0489
    119  CD       429.7080  162.9010   38.0140 C.3   321  ARG321      0.2205
    120  NE       430.6880  161.8560   38.2890 N.pl3 321  ARG321     -0.0865
    121  CZ       431.9570  161.8860   37.8910 C.cat 321  ARG321      0.5346
    122  NH1      432.4200  162.9220   37.2060 N.pl3 321  ARG321      0.1354
    123  NH2      432.7690  160.8800   38.1890 N.pl3 321  ARG321      0.1354
    124  N        427.7170  167.4030   38.2660 N.3   363  GLU363     -0.1245
    125  CA       428.9890  167.8350   37.6900 C.3   363  GLU363      0.1567
    126  C        428.8940  168.4490   36.2900 C.2   363  GLU363      0.2260
    127  O        428.8680  167.7310   35.2930 O.2   363  GLU363     -0.2867
    128  CB       429.9570  166.6550   37.6430 C.3   363  GLU363      0.0388
    129  CG       431.2990  166.9850   37.0200 C.3   363  GLU363      0.1160
    130  CD       431.9440  165.7770   36.3730 C.2   363  GLU363      0.3649
    131  OE1      431.5760  165.4430   35.2230 O.co2 363  GLU363     -0.2457
    132  OE2      432.8160  165.1560   37.0190 O.co2 363  GLU363     -0.2457
    133  N        430.8770  170.0390   33.4160 N.3   365  SER365     -0.1202
    134  CA       432.2410  170.1530   32.9040 C.3   365  SER365      0.2020
    135  C        432.2820  171.0220   31.6540 C.2   365  SER365      0.2619
    136  O        431.6040  170.7350   30.6710 O.2   365  SER365     -0.2717
    137  CB       432.8240  168.7740   32.5930 C.3   365  SER365      0.2103
    138  OG       432.9910  168.0190   33.7760 O.3   365  SER365     -0.2182
    139  N        433.0920  172.0750   31.6870 N.am  366  PHE366     -0.1961
    140  CA       433.1680  173.0160   30.5760 C.3   366  PHE366      0.1771
    141  C        434.4760  172.8570   29.7940 C.2   366  PHE366      0.2620
    142  O        435.5650  172.9500   30.3570 O.2   366  PHE366     -0.2715
    143  CB       433.0390  174.4580   31.0850 C.3   366  PHE366      0.0574
    144  CG       431.7280  174.7590   31.7770 C.ar  366  PHE366     -0.0200
    145  CD1      430.7740  175.5540   31.1620 C.ar  366  PHE366     -0.0042
    146  CD2      431.4630  174.2720   33.0530 C.ar  366  PHE366     -0.0042
    147  CE1      429.5740  175.8460   31.7940 C.ar  366  PHE366     -0.0003
    148  CE2      430.2640  174.5590   33.6890 C.ar  366  PHE366     -0.0003
    149  CZ       429.3190  175.3470   33.0560 C.ar  366  PHE366     -0.0000
    150  N        434.3630  172.6080   28.4950 N.am  367  GLY367     -0.1954
    151  CA       435.5230  172.5890   27.6240 C.3   367  GLY367      0.1869
    152  C        435.7180  173.9640   27.0190 C.2   367  GLY367      0.2309
    153  O        435.0840  174.3030   26.0220 O.2   367  GLY367     -0.2863
    154  N        438.1260  175.4600   25.3670 N.3   369  GLY369     -0.1210
    155  CA       438.5970  175.4980   23.9930 C.3   369  GLY369      0.1956
    156  C        437.4580  175.4170   22.9900 C.2   369  GLY369      0.2611
    157  O        437.3670  176.2390   22.0820 O.2   369  GLY369     -0.2717
    158  N        436.5820  174.4300   23.1630 N.am  370  ARG370     -0.1979
    159  CA       435.4410  174.2470   22.2730 C.3   370  ARG370      0.1597
    160  C        434.4530  175.3950   22.3800 C.2   370  ARG370      0.2287
    161  O        433.9180  175.8570   21.3720 O.2   370  ARG370     -0.2864
    162  CB       434.7290  172.9310   22.5730 C.3   370  ARG370      0.0334
    163  CG       435.5310  171.7100   22.2060 C.3   370  ARG370      0.0492
    164  CD       434.7200  170.4470   22.4060 C.3   370  ARG370      0.2205
    165  NE       435.4610  169.2600   21.9930 N.pl3 370  ARG370     -0.0865
    166  CZ       435.0210  168.0180   22.1430 C.cat 370  ARG370      0.5346
    167  NH1      433.8390  167.7970   22.6980 N.pl3 370  ARG370      0.1354
    168  NH2      435.7660  166.9990   21.7420 N.pl3 370  ARG370      0.1354
@<TRIPOS>BOND
     1    43    42    1
     2    43    45    1
     3    30    31    1
     4    42    44    1
     5    42    39    1
     6    38    39    1
     7    38    32   am
     8    39    40    1
     9    31    34    1
    10    31    32    1
    11    49    48    2
    12    46    40   am
    13    46    47    1
    14    35    34    1
    15    35    36    1
    16    35    37    1
    17    50    47    1
    18    50    51    1
    19    56    54    1
    20    32    33    2
    21    40    41    2
    22    52    51    1
    23    52    53    1
    24    47    48    1
    25    48    57   am
    26    24    23    2
    27    54    53    2
    28    54    55    1
    29    62    61    1
    30    23    22    1
    31    57    58    1
    32    25    22    1
    33    25    26    1
    34    58    61    1
    35    58    59    1
    36   161   160    2
    37    92    93    1
    38   168   166    1
    39    61    63    1
    40    22    21    1
    41   165   166    2
    42   165   164    1
    43   157   156    2
    44   166   167    1
    45    28    27   ar
    46   163   164    1
    47   163   162    1
    48   159   160    1
    49   159   162    1
    50   159   158    1
    51    26    27    1
    52    59    60    2
    53    27    29   ar
    54   107   105    1
    55   156   158   am
    56   156   155    1
    57    93    94    1
    58    93    96    1
    59    95    94    2
    60    94   101   am
    61   108   106    1
    62    96    97    1
    63   155   154    1
    64   105   106    1
    65   105   102    1
    66   101   102    1
    67    13    12    2
    68   102   103    1
    69    97    98    1
    70    99    98   ar
    71    12    11    1
    72   153   152    2
    73    14    11    1
    74    14    15    1
    75    98   100   ar
    76    68    69    1
    77    68    65    1
    78   103   104    2
    79    70    69   ar
    80    70    72   ar
    81    11    10    1
    82    69    71   ar
    83    65    64    1
    84    65    66    1
    85   152   151    1
    86    15    16    1
    87    72    74   ar
    88    19    18    1
    89   151   150    1
    90    71    73   ar
    91    74    73   ar
    92    16    17    1
    93    66    67    2
    94   150   141   am
    95    18    17    2
    96    18    20    1
    97   109   110    1
    98   141   142    2
    99   141   140    1
   100   110   111    1
   101   140   143    1
   102   140   139    1
   103   136   135    2
   104   143   144    1
   105   145   144   ar
   106   145   147   ar
   107    75    76    1
   108    82    81    1
   109   111   112    2
   110    76    79    1
   111    76    77    1
   112   135   139   am
   113   135   134    1
   114   144   146   ar
   115   147   149   ar
   116    79    80    1
   117    80    81    1
   118   137   134    1
   119   137   138    1
   120   134   133    1
   121    77    78    2
   122   146   148   ar
   123   149   148   ar
   124     1     2    1
   125     2     5    1
   126     2     3    1
   127     5     6    1
   128   131   130   ar
   129     8     7   ar
   130    91    89   ar
   131   127   126    2
   132     3     4    2
   133     6     7    1
   134    83    84    1
   135    89    90   ar
   136    89    88    1
   137     7     9   ar
   138   126   125    1
   139   130   132   ar
   140   130   129    1
   141    88    87    1
   142    84    87    1
   143    84    85    1
   144   129   128    1
   145   122   121    1
   146   128   125    1
   147   125   124    1
   148    85    86    2
   149   121   123    1
   150   121   120    2
   151   119   120    1
   152   119   118    1
   153   118   117    1
   154   117   114    1
   155   113   114    1
   156   114   115    1
   157   115   116    2
