@<TRIPOS>MOLECULE
tmp/5e6oA01.pdb
 162 153 0 0 0
SMALL
GASTEIGER

@<TRIPOS>ATOM
      1  N         -5.1650   -9.2620  -14.1880 N.3    16  ASP16      -0.1225
      2  CA        -4.0330   -9.5280  -15.0650 C.3    16  ASP16       0.1805
      3  C         -3.5110   -8.2130  -15.6800 C.2    16  ASP16       0.2597
      4  O         -2.3040   -7.9620  -15.7100 O.2    16  ASP16      -0.2718
      5  CB        -4.4430  -10.5130  -16.1690 C.3    16  ASP16       0.1424
      6  CG        -3.2700  -11.2320  -16.7790 C.2    16  ASP16       0.3668
      7  OD1       -2.2560  -11.4310  -16.0770 O.co2  16  ASP16      -0.2456
      8  OD2       -3.3690  -11.6190  -17.9600 O.co2  16  ASP16      -0.2456
      9  N         -4.4260   -7.3790  -16.1670 N.am   17  VAL17      -0.1980
     10  CA        -4.0430   -6.0830  -16.7420 C.3    17  VAL17       0.1595
     11  C         -3.4340   -5.1660  -15.6750 C.2    17  VAL17       0.2287
     12  O         -2.4170   -4.5080  -15.9160 O.2    17  VAL17      -0.2864
     13  CB        -5.2440   -5.3870  -17.4240 C.3    17  VAL17       0.0276
     14  CG1       -4.8820   -3.9720  -17.8800 C.3    17  VAL17       0.0022
     15  CG2       -5.7020   -6.2210  -18.6160 C.3    17  VAL17       0.0022
     16  N          0.1360   -6.3260  -15.0700 N.3    20  ILE20      -0.1245
     17  CA         1.1230   -6.0770  -16.1190 C.3    20  ILE20       0.1561
     18  C          1.3710   -4.5700  -16.2870 C.2    20  ILE20       0.2260
     19  O          2.4860   -4.1470  -16.5950 O.2    20  ILE20      -0.2867
     20  CB         0.7020   -6.7180  -17.4710 C.3    20  ILE20       0.0252
     21  CG1        1.9450   -7.0630  -18.2960 C.3    20  ILE20       0.0019
     22  CG2       -0.2490   -5.8210  -18.2480 C.3    20  ILE20       0.0019
     23  CD1        2.9590   -7.9370  -17.5380 C.3    20  ILE20       0.0001
     24  N          4.9870   -2.8960  -16.7370 N.3    24  GLN24      -0.1245
     25  CA         5.3850   -2.5670  -18.0990 C.3    24  GLN24       0.1566
     26  C          4.7050   -1.3100  -18.6290 C.2    24  GLN24       0.2260
     27  O          3.6750   -1.3820  -19.3100 O.2    24  GLN24      -0.2867
     28  CB         5.0840   -3.7450  -19.0160 C.3    24  GLN24       0.0367
     29  CG         5.6500   -5.0490  -18.5030 C.3    24  GLN24       0.0905
     30  CD         6.6630   -5.6430  -19.4370 C.2    24  GLN24       0.2608
     31  OE1        7.0220   -5.0390  -20.4440 O.2    24  GLN24      -0.2717
     32  NE2        7.1210   -6.8420  -19.1210 N.am   24  GLN24      -0.0878
     33  N          3.3590    0.0940  -22.7110 N.3    27  LYS27      -0.1245
     34  CA         2.8650   -1.0410  -23.4910 C.3    27  LYS27       0.1561
     35  C          1.3550   -1.2180  -23.3220 C.2    27  LYS27       0.2260
     36  O          0.8340   -1.0740  -22.2170 O.2    27  LYS27      -0.2867
     37  CB         3.5700   -2.3370  -23.0880 C.3    27  LYS27       0.0271
     38  CG         5.0840   -2.3260  -23.3040 C.3    27  LYS27       0.0035
     39  CD         5.6570   -3.7420  -23.2490 C.3    27  LYS27       0.0206
     40  CE         7.1880   -3.7010  -23.2510 C.3    27  LYS27       0.1093
     41  NZ         7.7700   -5.0690  -23.1740 N.3    27  LYS27      -0.1314
     42  N         -1.9620   -3.6920  -23.4880 N.3    29  PRO29      -0.2116
     43  CA        -2.3650   -5.1010  -23.4710 C.3    29  PRO29       0.1372
     44  C         -3.4670   -5.3650  -24.4920 C.2    29  PRO29       0.2244
     45  O         -4.5120   -4.7160  -24.4910 O.2    29  PRO29      -0.2868
     46  CB        -2.8630   -5.3140  -22.0400 C.3    29  PRO29       0.0268
     47  CG        -3.3180   -3.9650  -21.5970 C.3    29  PRO29       0.0207
     48  CD        -2.4740   -2.9500  -22.3200 C.3    29  PRO29       0.0892
     49  N         -5.4190  -10.8230  -29.2280 N.3    32  ILE32      -0.1245
     50  CA        -5.5240  -10.9980  -30.6730 C.3    32  ILE32       0.1561
     51  C         -5.9510  -12.4400  -30.9450 C.2    32  ILE32       0.2260
     52  O         -5.2580  -13.3770  -30.5640 O.2    32  ILE32      -0.2867
     53  CB        -4.2040  -10.6750  -31.3950 C.3    32  ILE32       0.0252
     54  CG1       -3.7260   -9.2680  -31.0430 C.3    32  ILE32       0.0019
     55  CG2       -4.3680  -10.7990  -32.8950 C.3    32  ILE32       0.0019
     56  CD1       -2.4540   -8.8760  -31.7700 C.3    32  ILE32       0.0001
     57  N         -0.3610  -18.0270  -28.9300 N.3    46  ARG46      -0.1245
     58  CA        -0.6610  -17.0280  -27.9060 C.3    46  ARG46       0.1563
     59  C         -1.7760  -16.0930  -28.3790 C.2    46  ARG46       0.2260
     60  O         -1.8970  -15.8250  -29.5800 O.2    46  ARG46      -0.2867
     61  CB         0.5920  -16.2060  -27.5730 C.3    46  ARG46       0.0307
     62  CG         1.7780  -17.0250  -27.0810 C.3    46  ARG46       0.0489
     63  CD         1.4900  -17.6960  -25.7520 C.3    46  ARG46       0.2205
     64  NE         2.4780  -18.7340  -25.4590 N.pl3  46  ARG46      -0.0865
     65  CZ         3.6870  -18.5020  -24.9560 C.cat  46  ARG46       0.5346
     66  NH1        4.0690  -17.2620  -24.6740 N.pl3  46  ARG46       0.1354
     67  NH2        4.5160  -19.5150  -24.7320 N.pl3  46  ARG46       0.1354
     68  N         -2.5660  -13.3870  -25.8480 N.3    48  LYS48      -0.1231
     69  CA        -2.2520  -12.2170  -24.9990 C.3    48  LYS48       0.1693
     70  C         -0.9780  -11.4800  -25.4290 C.2    48  LYS48       0.2592
     71  O          0.1270  -11.9870  -25.2530 O.2    48  LYS48      -0.2718
     72  CB        -2.0940  -12.6260  -23.5360 C.3    48  LYS48       0.0285
     73  CG        -3.3650  -12.6910  -22.7330 C.3    48  LYS48       0.0035
     74  CD        -3.1040  -12.4770  -21.2340 C.3    48  LYS48       0.0206
     75  CE        -1.9510  -13.3110  -20.7220 C.3    48  LYS48       0.1093
     76  NZ        -1.9260  -13.3940  -19.2250 N.3    48  LYS48      -0.1314
     77  N         -1.1270  -10.2610  -25.9380 N.am   49  PHE49      -0.1962
     78  CA         0.0170   -9.4980  -26.4190 C.3    49  PHE49       0.1771
     79  C          0.2770   -8.2350  -25.6040 C.2    49  PHE49       0.2619
     80  O         -0.6630   -7.6010  -25.1280 O.2    49  PHE49      -0.2715
     81  CB        -0.1800   -9.1280  -27.8890 C.3    49  PHE49       0.0574
     82  CG        -0.1060  -10.3090  -28.8130 C.ar   49  PHE49      -0.0200
     83  CD1       -1.2080  -11.1260  -29.0000 C.ar   49  PHE49      -0.0042
     84  CD2        1.0750  -10.6110  -29.4750 C.ar   49  PHE49      -0.0042
     85  CE1       -1.1410  -12.2230  -29.8380 C.ar   49  PHE49      -0.0003
     86  CE2        1.1510  -11.7040  -30.3210 C.ar   49  PHE49      -0.0003
     87  CZ         0.0420  -12.5090  -30.5020 C.ar   49  PHE49      -0.0000
     88  N          1.5580   -7.9000  -25.4210 N.am   50  LEU50      -0.1963
     89  CA         1.9510   -6.5720  -24.9410 C.3    50  LEU50       0.1728
     90  C          2.5650   -5.7870  -26.0990 C.2    50  LEU50       0.2616
     91  O          3.6120   -6.1480  -26.6090 O.2    50  LEU50      -0.2715
     92  CB         2.9550   -6.6660  -23.7770 C.3    50  LEU50       0.0311
     93  CG         2.4690   -6.9640  -22.3620 C.3    50  LEU50       0.0022
     94  CD1        3.6620   -7.0560  -21.4060 C.3    50  LEU50       0.0001
     95  CD2        1.4910   -5.8950  -21.8970 C.3    50  LEU50       0.0001
     96  N          1.9150   -4.7130  -26.5120 N.am   51  VAL51      -0.1964
     97  CA         2.3320   -3.9920  -27.7080 C.3    51  VAL51       0.1712
     98  C          2.8770   -2.6180  -27.3320 C.2    51  VAL51       0.2458
     99  O          2.1860   -1.8540  -26.6540 O.2    51  VAL51      -0.2730
    100  CB         1.1520   -3.8090  -28.6820 C.3    51  VAL51       0.0289
    101  CG1        1.6110   -3.1890  -29.9990 C.3    51  VAL51       0.0023
    102  CG2        0.4540   -5.1420  -28.9180 C.3    51  VAL51       0.0023
    103  N          4.1120   -2.2960  -27.7610 N.am   52  PRO52      -0.2727
    104  CA         4.6290   -0.9370  -27.5420 C.3    52  PRO52       0.1402
    105  C          3.6450    0.1110  -28.0420 C.2    52  PRO52       0.2269
    106  O          3.0760   -0.0290  -29.1340 O.2    52  PRO52      -0.2865
    107  CB         5.9340   -0.9340  -28.3380 C.3    52  PRO52       0.0296
    108  CG         6.3850   -2.3720  -28.2690 C.3    52  PRO52       0.0237
    109  CD         5.1310   -3.1890  -28.3470 C.3    52  PRO52       0.0939
    110  N          2.8210    1.7830  -31.7240 N.3    55  ILE55      -0.1245
    111  CA         2.5900    0.9730  -32.9160 C.3    55  ILE55       0.1561
    112  C          1.1690    1.1820  -33.4200 C.2    55  ILE55       0.2260
    113  O          0.2100    1.1990  -32.6280 O.2    55  ILE55      -0.2867
    114  CB         2.8430   -0.5290  -32.6320 C.3    55  ILE55       0.0252
    115  CG1        4.3440   -0.7930  -32.5210 C.3    55  ILE55       0.0019
    116  CG2        2.2420   -1.4140  -33.7180 C.3    55  ILE55       0.0019
    117  CD1        4.6840   -2.1380  -31.9190 C.3    55  ILE55       0.0001
    118  N          0.7920   -3.1550  -36.6420 N.3    60  LEU60      -0.1245
    119  CA         0.5170   -4.3840  -35.9100 C.3    60  LEU60       0.1561
    120  C          0.1080   -5.4920  -36.8730 C.2    60  LEU60       0.2260
    121  O          0.4400   -6.6690  -36.6570 O.2    60  LEU60      -0.2867
    122  CB        -0.5680   -4.1480  -34.8490 C.3    60  LEU60       0.0270
    123  CG        -0.9510   -5.3260  -33.9470 C.3    60  LEU60       0.0019
    124  CD1        0.2830   -5.9000  -33.2750 C.3    60  LEU60       0.0001
    125  CD2       -1.9870   -4.8860  -32.8940 C.3    60  LEU60       0.0001
    126  N          3.2360   -6.9490  -38.2040 N.3    63  ILE63      -0.1231
    127  CA         3.8010   -7.8470  -37.2090 C.3    63  ILE63       0.1692
    128  C          3.0580   -9.1850  -37.1700 C.2    63  ILE63       0.2591
    129  O          3.6840  -10.2410  -37.1560 O.2    63  ILE63      -0.2718
    130  CB         3.7780   -7.1960  -35.8110 C.3    63  ILE63       0.0266
    131  CG1        4.6090   -5.9090  -35.8300 C.3    63  ILE63       0.0019
    132  CG2        4.2980   -8.1490  -34.7700 C.3    63  ILE63       0.0020
    133  CD1        4.2940   -4.9430  -34.6950 C.3    63  ILE63       0.0001
    134  N          1.7290   -9.1510  -37.1510 N.am   64  VAL64      -0.1980
    135  CA         0.9840  -10.3990  -37.0800 C.3    64  VAL64       0.1595
    136  C          1.1220  -11.1820  -38.3960 C.2    64  VAL64       0.2287
    137  O          1.2510  -12.4030  -38.3760 O.2    64  VAL64      -0.2864
    138  CB        -0.4950  -10.1480  -36.7390 C.3    64  VAL64       0.0276
    139  CG1       -1.3130  -11.4360  -36.8210 C.3    64  VAL64       0.0022
    140  CG2       -0.5960   -9.5500  -35.3650 C.3    64  VAL64       0.0022
    141  N          4.3260  -13.1830  -38.1540 N.3    67  ARG67      -0.1245
    142  CA         4.2080  -14.2790  -37.2260 C.3    67  ARG67       0.1563
    143  C          3.3830  -15.4090  -37.8090 C.2    67  ARG67       0.2260
    144  O          3.7050  -16.5680  -37.5970 O.2    67  ARG67      -0.2867
    145  CB         3.6140  -13.7910  -35.9100 C.3    67  ARG67       0.0307
    146  CG         4.6280  -13.0290  -35.0810 C.3    67  ARG67       0.0489
    147  CD         3.9920  -12.4160  -33.8600 C.3    67  ARG67       0.2205
    148  NE         5.0080  -11.9220  -32.9330 N.pl3  67  ARG67      -0.0865
    149  CZ         5.3420  -12.5310  -31.8010 C.cat  67  ARG67       0.5346
    150  NH1        4.7320  -13.6540  -31.4470 N.pl3  67  ARG67       0.1354
    151  NH2        6.2780  -12.0100  -31.0180 N.pl3  67  ARG67       0.1354
    152  N         -8.0370   -4.7400  -21.4090 N.3   105  PHE105     -0.1241
    153  CA        -7.5080   -5.2220  -22.6940 C.3   105  PHE105      0.1605
    154  C         -8.1610   -4.4970  -23.8510 C.2   105  PHE105      0.2264
    155  O         -9.2940   -4.0770  -23.7220 O.2   105  PHE105     -0.2867
    156  CB        -7.7820   -6.7190  -22.8750 C.3   105  PHE105      0.0534
    157  CG        -6.9100   -7.6110  -22.0420 C.ar  105  PHE105     -0.0203
    158  CD1       -5.5880   -7.8250  -22.3980 C.ar  105  PHE105     -0.0042
    159  CD2       -7.4220   -8.2600  -20.9290 C.ar  105  PHE105     -0.0042
    160  CE1       -4.7790   -8.6450  -21.6360 C.ar  105  PHE105     -0.0003
    161  CE2       -6.6160   -9.0970  -20.1620 C.ar  105  PHE105     -0.0003
    162  CZ        -5.2980   -9.2880  -20.5230 C.ar  105  PHE105     -0.0000
@<TRIPOS>BOND
     1   136   137    2
     2   136   135    1
     3   126   127    1
     4   141   142    1
     5   143   144    2
     6   143   142    1
     7   142   145    1
     8   127   128    1
     9   127   130    1
    10   128   129    2
    11   128   134   am
    12   134   135    1
    13   135   138    1
    14   120   121    2
    15   120   119    1
    16   139   138    1
    17   138   140    1
    18   118   119    1
    19   145   146    1
    20   119   122    1
    21   131   130    1
    22   131   133    1
    23   130   132    1
    24   146   147    1
    25   122   123    1
    26   123   124    1
    27   123   125    1
    28   147   148    1
    29   116   114    1
    30   112   111    1
    31   112   113    2
    32   148   149    2
    33   111   114    1
    34   111   110    1
    35    55    53    1
    36   114   115    1
    37   115   117    1
    38   149   150    1
    39   149   151    1
    40    56    54    1
    41    53    54    1
    42    53    50    1
    43    51    50    1
    44    51    52    2
    45    50    49    1
    46    87    86   ar
    47    87    85   ar
    48    86    84   ar
    49   101   100    1
    50    85    83   ar
    51    60    59    2
    52    84    82   ar
    53   106   105    2
    54    83    82   ar
    55    57    58    1
    56   102   100    1
    57    82    81    1
    58   100    97    1
    59    59    58    1
    60   109   108    1
    61   109   103    1
    62   107   108    1
    63   107   104    1
    64   105   104    1
    65    58    61    1
    66    81    78    1
    67   103   104    1
    68   103    98   am
    69    97    98    1
    70    97    96    1
    71    61    62    1
    72    98    99    2
    73    62    63    1
    74    91    90    2
    75    96    90   am
    76    78    77    1
    77    78    79    1
    78    90    89    1
    79    77    70   am
    80    68    69    1
    81    63    64    1
    82    79    88   am
    83    79    80    2
    84    64    65    2
    85    70    71    2
    86    70    69    1
    87    88    89    1
    88    69    72    1
    89    65    67    1
    90    65    66    1
    91    89    92    1
    92    44    45    2
    93    44    43    1
    94   154   155    2
    95   154   153    1
    96    92    93    1
    97    72    73    1
    98    34    35    1
    99    34    37    1
   100    34    33    1
   101    42    43    1
   102    42    48    1
   103    43    46    1
   104    35    36    2
   105    38    39    1
   106    38    37    1
   107    40    39    1
   108    40    41    1
   109   156   153    1
   110   156   157    1
   111    73    74    1
   112   153   152    1
   113   158   157   ar
   114   158   160   ar
   115    93    95    1
   116    93    94    1
   117    48    47    1
   118   157   159   ar
   119    46    47    1
   120   160   162   ar
   121    74    75    1
   122   159   161   ar
   123    75    76    1
   124   162   161   ar
   125    31    30    2
   126    30    32   am
   127    30    29    1
   128    27    26    2
   129    28    29    1
   130    28    25    1
   131    26    25    1
   132    15    13    1
   133    21    23    1
   134    21    20    1
   135    22    20    1
   136    25    24    1
   137     8     6   ar
   138    14    13    1
   139    20    17    1
   140    13    10    1
   141     6     5    1
   142     6     7   ar
   143    10     9    1
   144    10    11    1
   145    19    18    2
   146    18    17    1
   147     5     2    1
   148     9     3   am
   149    17    16    1
   150    12    11    2
   151     4     3    2
   152     3     2    1
   153     2     1    1
