@<TRIPOS>MOLECULE
tmp/5e6yD00.pdb
 93 89 0 0 0
SMALL
GASTEIGER

@<TRIPOS>ATOM
      1  N         49.8260  114.4610    1.1430 N.3    39  GLN39      -0.1245
      2  CA        50.5750  115.6640    1.4750 C.3    39  GLN39       0.1566
      3  C         51.0140  116.3560    0.1930 C.2    39  GLN39       0.2260
      4  O         50.9470  117.5860    0.0740 O.2    39  GLN39      -0.2867
      5  CB        51.7460  115.3750    2.4270 C.3    39  GLN39       0.0367
      6  CG        51.9860  116.5230    3.4430 C.3    39  GLN39       0.0905
      7  CD        51.7730  116.1050    4.9020 C.2    39  GLN39       0.2608
      8  OE1       52.0680  114.9660    5.2840 O.2    39  GLN39      -0.2717
      9  NE2       51.2600  117.0290    5.7230 N.am   39  GLN39      -0.0878
     10  N         46.7220  118.0270    0.4500 N.3    43  TRP43      -0.1241
     11  CA        45.4270  117.4580    0.8390 C.3    43  TRP43       0.1605
     12  C         44.2760  118.0600    0.0550 C.2    43  TRP43       0.2264
     13  O         43.1840  118.2540    0.5800 O.2    43  TRP43      -0.2867
     14  CB        45.2230  117.5590    2.3670 C.3    43  TRP43       0.0550
     15  CG        46.2960  116.7810    3.0770 C.ar   43  TRP43       0.0003
     16  CD1       47.5670  117.2020    3.3600 C.ar   43  TRP43       0.0946
     17  CD2       46.2190  115.4210    3.5120 C.ar   43  TRP43       0.0152
     18  NE1       48.2760  116.1960    3.9660 N.ar   43  TRP43      -0.2442
     19  CE2       47.4700  115.0920    4.0740 C.ar   43  TRP43       0.0810
     20  CE3       45.2110  114.4500    3.4890 C.ar   43  TRP43       0.0012
     21  CZ2       47.7360  113.8360    4.6120 C.ar   43  TRP43       0.0191
     22  CZ3       45.4790  113.2040    4.0240 C.ar   43  TRP43       0.0001
     23  CH2       46.7270  112.9100    4.5790 C.ar   43  TRP43       0.0015
     24  N         52.2040  110.5270    3.3450 N.3    71  LEU71      -0.1245
     25  CA        50.8890  110.1980    3.8500 C.3    71  LEU71       0.1561
     26  C         49.8380  110.4300    2.7780 C.2    71  LEU71       0.2260
     27  O         50.0530  111.2160    1.8570 O.2    71  LEU71      -0.2867
     28  CB        50.6080  111.0270    5.1030 C.3    71  LEU71       0.0270
     29  CG        51.5220  110.5300    6.2230 C.3    71  LEU71       0.0019
     30  CD1       51.8790  111.6210    7.2370 C.3    71  LEU71       0.0001
     31  CD2       50.8660  109.3240    6.8910 C.3    71  LEU71       0.0001
     32  N         45.2350  109.6700    1.8950 N.3    73  LYS73      -0.1245
     33  CA        43.9240  109.1000    2.1700 C.3    73  LYS73       0.1561
     34  C         43.0800  109.1350    0.8860 C.2    73  LYS73       0.2260
     35  O         43.5570  109.5040   -0.1880 O.2    73  LYS73      -0.2867
     36  CB        43.1890  109.8860    3.2380 C.3    73  LYS73       0.0271
     37  CG        43.7070  109.7530    4.6570 C.3    73  LYS73       0.0035
     38  CD        42.7010  110.3900    5.6080 C.3    73  LYS73       0.0206
     39  CE        43.1110  110.3480    7.0750 C.3    73  LYS73       0.1093
     40  NZ        41.8910  110.5100    7.9410 N.3    73  LYS73      -0.1314
     41  N         36.3100  111.2130    4.1780 N.3    85  LEU85      -0.1245
     42  CA        37.7220  110.8640    4.0270 C.3    85  LEU85       0.1561
     43  C         37.9190  109.4340    4.5240 C.2    85  LEU85       0.2260
     44  O         37.6870  109.1460    5.6890 O.2    85  LEU85      -0.2867
     45  CB        38.6040  111.8030    4.8410 C.3    85  LEU85       0.0270
     46  CG        38.9640  113.1290    4.1760 C.3    85  LEU85       0.0019
     47  CD1       39.0920  114.2330    5.2120 C.3    85  LEU85       0.0001
     48  CD2       40.2570  113.0090    3.3790 C.3    85  LEU85       0.0001
     49  N         49.7330  105.9810   10.2550 N.3    95  GLN95      -0.1231
     50  CA        50.4240  107.2060   10.6300 C.3    95  GLN95       0.1698
     51  C         51.0750  107.2150   12.0280 C.2    95  GLN95       0.2592
     52  O         52.2870  107.0190   12.1390 O.2    95  GLN95      -0.2718
     53  CB        49.5320  108.4220   10.4170 C.3    95  GLN95       0.0381
     54  CG        50.3190  109.7050   10.3790 C.3    95  GLN95       0.0905
     55  CD        49.4690  110.8990   10.0280 C.2    95  GLN95       0.2608
     56  OE1       48.2910  110.7720    9.6910 O.2    95  GLN95      -0.2717
     57  NE2       50.0660  112.0740   10.1000 N.am   95  GLN95      -0.0878
     58  N         50.2810  107.4490   13.0700 N.am   96  MET96      -0.1979
     59  CA        50.7690  107.5410   14.4500 C.3    96  MET96       0.1605
     60  C         49.5370  107.7810   15.2910 C.2    96  MET96       0.2287
     61  O         48.5590  108.3050   14.7640 O.2    96  MET96      -0.2864
     62  CB        51.7060  108.7300   14.6240 C.3    96  MET96       0.0413
     63  CG        53.1970  108.4210   14.5620 C.3    96  MET96       0.0598
     64  SD        53.8820  107.5990   16.0270 S.3    96  MET96      -0.1393
     65  CE        55.6460  107.8590   15.7630 C.3    96  MET96       0.0692
     66  N         47.7770  109.8740   16.8710 N.3    98  PRO98      -0.2102
     67  CA        46.7800  110.8560   16.4080 C.3    98  PRO98       0.1504
     68  C         45.9860  110.5110   15.1270 C.2    98  PRO98       0.2576
     69  O         44.9760  109.8060   15.2220 O.2    98  PRO98      -0.2718
     70  CB        47.6150  112.1210   16.1850 C.3    98  PRO98       0.0282
     71  CG        48.7640  111.9800   17.1170 C.3    98  PRO98       0.0208
     72  CD        49.0860  110.5100   17.1230 C.3    98  PRO98       0.0893
     73  N         46.4430  110.9800   13.9620 N.am   99  GLU99      -0.1966
     74  CA        45.5110  111.2850   12.8620 C.3    99  GLU99       0.1733
     75  C         45.2480  110.3150   11.6820 C.2    99  GLU99       0.2617
     76  O         44.8100  110.7560   10.6180 O.2    99  GLU99      -0.2715
     77  CB        45.7570  112.7100   12.3350 C.3    99  GLU99       0.0429
     78  CG        45.3770  113.8160   13.3270 C.3    99  GLU99       0.1163
     79  CD        44.3640  114.8140   12.7670 C.2    99  GLU99       0.3649
     80  OE1       44.6870  116.0180   12.7070 O.co2  99  GLU99      -0.2457
     81  OE2       43.2430  114.4010   12.3970 O.co2  99  GLU99      -0.2457
     82  N         45.4880  109.0180   11.8660 N.am  100  THR100     -0.1937
     83  CA        44.9020  107.9720   10.9900 C.3   100  THR100      0.2028
     84  C         45.2740  107.8370    9.4870 C.2   100  THR100      0.2642
     85  O         44.7800  106.9230    8.8310 O.2   100  THR100     -0.2714
     86  CB        43.3380  107.9540   11.0700 C.3   100  THR100      0.1808
     87  OG1       42.7930  109.1690   10.5310 O.3   100  THR100     -0.2208
     88  CG2       42.8720  107.7840   12.5090 C.3   100  THR100      0.0379
     89  N         46.1090  108.7070    8.9250 N.am  101  ALA101     -0.1977
     90  CA        46.4430  108.5640    7.5060 C.3   101  ALA101      0.1597
     91  C         47.2980  107.3380    7.2210 C.2   101  ALA101      0.2287
     92  O         47.9020  106.7530    8.1260 O.2   101  ALA101     -0.2864
     93  CB        47.1320  109.7940    6.9770 C.3   101  ALA101      0.0319
@<TRIPOS>BOND
     1    35    34    2
     2    12    13    2
     3    12    11    1
     4     4     3    2
     5     3     2    1
     6    10    11    1
     7    11    14    1
     8    34    33    1
     9     1     2    1
    10     2     5    1
    11    27    26    2
    12    32    33    1
    13    33    36    1
    14    14    15    1
    15     5     6    1
    16    26    25    1
    17    15    16   ar
    18    15    17   ar
    19    36    37    1
    20    24    25    1
    21    16    18   ar
    22    48    46    1
    23     6     7    1
    24    20    17   ar
    25    20    22   ar
    26    17    19   ar
    27    25    28    1
    28    18    19   ar
    29    22    23   ar
    30    42    41    1
    31    42    43    1
    32    42    45    1
    33    19    21   ar
    34    46    45    1
    35    46    47    1
    36    43    44    2
    37    23    21   ar
    38    37    38    1
    39     7     8    2
    40     7     9   am
    41    28    29    1
    42    38    39    1
    43    29    31    1
    44    29    30    1
    45    93    90    1
    46    39    40    1
    47    91    90    1
    48    91    92    2
    49    90    89    1
    50    85    84    2
    51    89    84   am
    52    84    83    1
    53    56    55    2
    54    55    57   am
    55    55    54    1
    56    49    50    1
    57    54    53    1
    58    53    50    1
    59    87    86    1
    60    76    75    2
    61    50    51    1
    62    83    86    1
    63    83    82    1
    64    86    88    1
    65    75    82   am
    66    75    74    1
    67    51    52    2
    68    51    58   am
    69    77    74    1
    70    77    78    1
    71    81    79   ar
    72    80    79   ar
    73    79    78    1
    74    74    73    1
    75    58    59    1
    76    73    68   am
    77    59    62    1
    78    59    60    1
    79    63    62    1
    80    63    64    1
    81    61    60    2
    82    68    69    2
    83    68    67    1
    84    65    64    1
    85    70    67    1
    86    70    71    1
    87    67    66    1
    88    66    72    1
    89    71    72    1
