@<TRIPOS>MOLECULE
tmp/5e6yD02.pdb
 92 89 0 0 0
SMALL
GASTEIGER

@<TRIPOS>ATOM
      1  N         37.5900   62.6880   38.2960 N.3   366  ASP366     -0.1239
      2  CA        37.2190   62.5670   36.8950 C.3   366  ASP366      0.1674
      3  C         37.3240   63.8960   36.1660 C.2   366  ASP366      0.2266
      4  O         37.1840   63.9500   34.9490 O.2   366  ASP366     -0.2867
      5  CB        35.8640   61.8380   36.7010 C.3   366  ASP366      0.1410
      6  CG        34.6410   62.6740   37.1230 C.2   366  ASP366      0.3668
      7  OD1       34.7970   63.7410   37.7580 O.co2 366  ASP366     -0.2456
      8  OD2       33.5000   62.2370   36.8200 O.co2 366  ASP366     -0.2456
      9  N         40.6230   63.0570   34.5170 N.3   369  THR369     -0.1203
     10  CA        40.7300   61.8450   33.7140 C.3   369  THR369      0.1994
     11  C         39.8580   61.9370   32.4790 C.2   369  THR369      0.2617
     12  O         40.0700   61.2180   31.5210 O.2   369  THR369     -0.2717
     13  CB        40.3960   60.5540   34.5280 C.3   369  THR369      0.1784
     14  OG1       39.1220   60.6890   35.1580 O.3   369  THR369     -0.2211
     15  CG2       41.4420   60.3070   35.5890 C.3   369  THR369      0.0376
     16  N         38.8880   62.8410   32.5110 N.am  370  PHE370     -0.1975
     17  CA        37.9340   63.0030   31.4280 C.3   370  PHE370      0.1639
     18  C         38.6460   63.3150   30.1120 C.2   370  PHE370      0.2290
     19  O         38.2810   62.8040   29.0600 O.2   370  PHE370     -0.2864
     20  CB        36.9140   64.0950   31.7920 C.3   370  PHE370      0.0560
     21  CG        35.7900   64.2520   30.7990 C.ar  370  PHE370     -0.0200
     22  CD1       34.7990   63.2900   30.6920 C.ar  370  PHE370     -0.0042
     23  CD2       35.7090   65.3830   29.9830 C.ar  370  PHE370     -0.0042
     24  CE1       33.7490   63.4460   29.7760 C.ar  370  PHE370     -0.0003
     25  CE2       34.6630   65.5460   29.0670 C.ar  370  PHE370     -0.0003
     26  CZ        33.6840   64.5780   28.9680 C.ar  370  PHE370     -0.0000
     27  N         41.1990   62.3700   28.5820 N.3   372  ILE372     -0.1231
     28  CA        41.7130   61.3050   27.7230 C.3   372  ILE372      0.1692
     29  C         40.6040   60.7680   26.8410 C.2   372  ILE372      0.2591
     30  O         40.8650   60.3490   25.7160 O.2   372  ILE372     -0.2718
     31  CB        42.4110   60.2010   28.5110 C.3   372  ILE372      0.0266
     32  CG1       43.6840   60.7650   29.1350 C.3   372  ILE372      0.0019
     33  CG2       42.8260   59.0710   27.5980 C.3   372  ILE372      0.0020
     34  CD1       44.7030   61.1900   28.0960 C.3   372  ILE372      0.0001
     35  N         39.3610   60.8380   27.3250 N.am  373  LEU373     -0.1980
     36  CA        38.2010   60.4460   26.5160 C.3   373  LEU373      0.1596
     37  C         38.0660   61.1440   25.1510 C.2   373  LEU373      0.2287
     38  O         37.8190   60.4900   24.1580 O.2   373  LEU373     -0.2864
     39  CB        36.8930   60.5680   27.3080 C.3   373  LEU373      0.0297
     40  CG        36.7750   59.6090   28.4970 C.3   373  LEU373      0.0022
     41  CD1       35.3110   59.4550   28.8750 C.3   373  LEU373      0.0001
     42  CD2       37.4320   58.2500   28.2100 C.3   373  LEU373      0.0001
     43  N         41.4080   62.3980   21.3030 N.3   376  TYR376     -0.1241
     44  CA        41.6810   61.9590   19.9460 C.3   376  TYR376      0.1605
     45  C         40.6970   62.5130   18.9090 C.2   376  TYR376      0.2264
     46  O         40.7040   62.0920   17.7580 O.2   376  TYR376     -0.2867
     47  CB        41.8490   60.4250   19.9020 C.3   376  TYR376      0.0534
     48  CG        42.9400   60.0020   20.8560 C.ar  376  TYR376     -0.0201
     49  CD1       44.2830   60.0790   20.4920 C.ar  376  TYR376     -0.0009
     50  CD2       42.6340   59.5950   22.1580 C.ar  376  TYR376     -0.0009
     51  CE1       45.2870   59.7390   21.4020 C.ar  376  TYR376      0.0417
     52  CE2       43.6210   59.2500   23.0560 C.ar  376  TYR376      0.0417
     53  CZ        44.9360   59.3230   22.6860 C.ar  376  TYR376      0.1957
     54  OH        45.8980   58.9710   23.6100 O.3   376  TYR376     -0.2866
     55  N         47.2550   54.7920   30.9340 N.3   489  TRP489     -0.1241
     56  CA        47.1230   54.9040   32.3820 C.3   489  TRP489      0.1605
     57  C         47.8580   53.7280   33.0470 C.2   489  TRP489      0.2264
     58  O         47.7720   52.5910   32.5610 O.2   489  TRP489     -0.2867
     59  CB        45.6570   54.8900   32.8060 C.3   489  TRP489      0.0550
     60  CG        44.8650   56.1250   32.4700 C.ar  489  TRP489      0.0003
     61  CD1       43.8230   56.2180   31.5840 C.ar  489  TRP489      0.0946
     62  CD2       45.0150   57.4290   33.0440 C.ar  489  TRP489      0.0152
     63  NE1       43.3190   57.4920   31.5710 N.ar  489  TRP489     -0.2442
     64  CE2       44.0370   58.2610   32.4500 C.ar  489  TRP489      0.0810
     65  CE3       45.8720   57.9740   34.0080 C.ar  489  TRP489      0.0012
     66  CZ2       43.9000   59.6100   32.7830 C.ar  489  TRP489      0.0191
     67  CZ3       45.7470   59.3110   34.3300 C.ar  489  TRP489      0.0001
     68  CH2       44.7640   60.1150   33.7250 C.ar  489  TRP489      0.0015
     69  N         44.8370   54.7770   37.3590 N.3   492  VAL492     -0.1231
     70  CA        43.8340   55.7600   37.0140 C.3   492  VAL492      0.1692
     71  C         42.7350   55.8720   38.0500 C.2   492  VAL492      0.2592
     72  O         41.9010   56.7760   37.9780 O.2   492  VAL492     -0.2718
     73  CB        43.1900   55.4350   35.6700 C.3   492  VAL492      0.0266
     74  CG1       42.2390   54.2330   35.8180 C.3   492  VAL492      0.0020
     75  CG2       42.4570   56.6780   35.1000 C.3   492  VAL492      0.0020
     76  N         42.7300   54.9690   39.0240 N.am  493  ASP493     -0.1974
     77  CA        41.5720   54.8740   39.9190 C.3   493  ASP493      0.1709
     78  C         41.7710   55.3230   41.3690 C.2   493  ASP493      0.2293
     79  O         40.8140   55.3210   42.1310 O.2   493  ASP493     -0.2864
     80  CB        40.9260   53.4700   39.8560 C.3   493  ASP493      0.1436
     81  CG        39.6520   53.4520   38.9840 C.2   493  ASP493      0.3671
     82  OD1       38.6260   54.0310   39.4150 O.co2 493  ASP493     -0.2456
     83  OD2       39.6690   52.8710   37.8660 O.co2 493  ASP493     -0.2456
     84  N         41.3070   57.3920   43.6740 N.3   495  LYS495     -0.1245
     85  CA        40.5900   58.6070   43.9990 C.3   495  LYS495      0.1561
     86  C         40.9500   59.0990   45.4170 C.2   495  LYS495      0.2260
     87  O         41.2980   60.2840   45.5930 O.2   495  LYS495     -0.2867
     88  CB        39.0870   58.3990   43.8590 C.3   495  LYS495      0.0271
     89  CG        38.6190   57.9090   42.4890 C.3   495  LYS495      0.0035
     90  CD        37.1450   57.4880   42.5570 C.3   495  LYS495      0.0206
     91  CE        36.3860   57.7560   41.2690 C.3   495  LYS495      0.1093
     92  NZ        36.8600   56.9880   40.0810 N.3   495  LYS495     -0.1314
@<TRIPOS>BOND
     1    46    45    2
     2    45    44    1
     3    47    44    1
     4    47    48    1
     5    44    43    1
     6    49    48   ar
     7    49    51   ar
     8    48    50   ar
     9    51    53   ar
    10    50    52   ar
    11    53    52   ar
    12    53    54    1
    13    38    37    2
    14    37    36    1
    15    30    29    2
    16    36    39    1
    17    36    35    1
    18    29    35   am
    19    29    28    1
    20    39    40    1
    21    33    31    1
    22    28    31    1
    23    28    27    1
    24    34    32    1
    25    42    40    1
    26    40    41    1
    27    31    32    1
    28    26    25   ar
    29    26    24   ar
    30    19    18    2
    31    25    23   ar
    32    24    22   ar
    33    23    21   ar
    34    18    17    1
    35    22    21   ar
    36    21    20    1
    37    55    56    1
    38    17    20    1
    39    17    16    1
    40    12    11    2
    41    63    61   ar
    42    63    64   ar
    43    61    60   ar
    44    56    59    1
    45    56    57    1
    46    64    66   ar
    47    64    62   ar
    48    60    59    1
    49    60    62   ar
    50    11    16   am
    51    11    10    1
    52    58    57    2
    53    66    68   ar
    54    62    65   ar
    55    10     9    1
    56    10    13    1
    57    68    67   ar
    58    65    67   ar
    59    13    14    1
    60    13    15    1
    61     4     3    2
    62    75    73    1
    63    73    74    1
    64    73    70    1
    65     3     2    1
    66     5     2    1
    67     5     6    1
    68     8     6   ar
    69     2     1    1
    70    70    69    1
    71    70    71    1
    72     6     7   ar
    73    83    81   ar
    74    72    71    2
    75    71    76   am
    76    81    82   ar
    77    81    80    1
    78    76    77    1
    79    80    77    1
    80    77    78    1
    81    92    91    1
    82    91    90    1
    83    78    79    2
    84    89    90    1
    85    89    88    1
    86    84    85    1
    87    88    85    1
    88    85    86    1
    89    86    87    2
