@<TRIPOS>MOLECULE
tmp/5e6zB00.pdb
 92 89 0 0 0
SMALL
GASTEIGER

@<TRIPOS>ATOM
      1  N         57.6810   77.3990   77.0370 N.3   373  ASP373     -0.1239
      2  CA        58.7350   76.5290   76.5170 C.3   373  ASP373      0.1674
      3  C         58.7750   75.1270   77.1340 C.2   373  ASP373      0.2266
      4  O         59.2510   74.1890   76.4940 O.2   373  ASP373     -0.2867
      5  CB        60.1120   77.1980   76.6940 C.3   373  ASP373      0.1410
      6  CG        60.4930   77.3620   78.1620 C.2   373  ASP373      0.3668
      7  OD1       59.6560   77.8740   78.9400 O.co2 373  ASP373     -0.2456
      8  OD2       61.6180   76.9720   78.5490 O.co2 373  ASP373     -0.2456
      9  N         56.6400   73.1390   74.7730 N.3   376  THR376     -0.1203
     10  CA        56.9750   73.1390   73.3450 C.3   376  THR376      0.1994
     11  C         58.3460   72.5290   73.1050 C.2   376  THR376      0.2617
     12  O         58.6130   72.0470   72.0210 O.2   376  THR376     -0.2717
     13  CB        56.9310   74.5610   72.7420 C.3   376  THR376      0.1784
     14  OG1       57.8360   75.4060   73.4670 O.3   376  THR376     -0.2211
     15  CG2       55.4970   75.1530   72.8230 C.3   376  THR376      0.0376
     16  N         59.2040   72.5480   74.1200 N.am  377  PHE377     -0.1975
     17  CA        60.5910   72.0690   73.9730 C.3   377  PHE377      0.1639
     18  C         60.6750   70.6030   73.5730 C.2   377  PHE377      0.2290
     19  O         61.5720   70.2130   72.8200 O.2   377  PHE377     -0.2864
     20  CB        61.3840   72.2870   75.2570 C.3   377  PHE377      0.0560
     21  CG        62.8650   72.0300   75.1080 C.ar  377  PHE377     -0.0200
     22  CD1       63.5030   71.0800   75.9020 C.ar  377  PHE377     -0.0042
     23  CD2       63.6100   72.7310   74.1770 C.ar  377  PHE377     -0.0042
     24  CE1       64.8710   70.8470   75.7760 C.ar  377  PHE377     -0.0003
     25  CE2       64.9880   72.5010   74.0390 C.ar  377  PHE377     -0.0003
     26  CZ        65.6090   71.5590   74.8390 C.ar  377  PHE377     -0.0000
     27  N         59.2400   68.7310   71.4480 N.3   379  ILE379     -0.1231
     28  CA        59.2440   68.3960   70.0280 C.3   379  ILE379      0.1692
     29  C         60.6050   68.6260   69.3650 C.2   379  ILE379      0.2591
     30  O         60.9670   67.9390   68.4010 O.2   379  ILE379     -0.2718
     31  CB        58.0390   69.0630   69.2610 C.3   379  ILE379      0.0266
     32  CG1       58.3700   69.4170   67.8180 C.3   379  ILE379      0.0019
     33  CG2       57.4570   70.2100   70.0150 C.3   379  ILE379      0.0020
     34  CD1       58.2090   68.2490   66.8920 C.3   379  ILE379      0.0001
     35  N         61.3790   69.5530   69.9150 N.am  380  LEU380     -0.1980
     36  CA        62.6870   69.8900   69.3660 C.3   380  LEU380      0.1596
     37  C         63.6530   68.7050   69.3690 C.2   380  LEU380      0.2287
     38  O         64.4740   68.5610   68.4700 O.2   380  LEU380     -0.2864
     39  CB        63.2930   71.0620   70.1400 C.3   380  LEU380      0.0297
     40  CG        63.7800   72.2570   69.3240 C.3   380  LEU380      0.0022
     41  CD1       62.8580   72.5130   68.1380 C.3   380  LEU380      0.0001
     42  CD2       63.8700   73.4910   70.2140 C.3   380  LEU380      0.0001
     43  N         62.8650   63.6110   67.8940 N.3   383  TYR383     -0.1241
     44  CA        63.3020   62.7310   66.8140 C.3   383  TYR383      0.1605
     45  C         64.7450   62.2510   66.9610 C.2   383  TYR383      0.2264
     46  O         65.2970   61.6530   66.0350 O.2   383  TYR383     -0.2867
     47  CB        63.0620   63.4140   65.4490 C.3   383  TYR383      0.0534
     48  CG        61.6150   63.8630   65.3610 C.ar  383  TYR383     -0.0201
     49  CD1       60.6050   62.9570   65.0910 C.ar  383  TYR383     -0.0009
     50  CD2       61.2590   65.1740   65.6510 C.ar  383  TYR383     -0.0009
     51  CE1       59.2540   63.3660   65.0490 C.ar  383  TYR383      0.0417
     52  CE2       59.9360   65.5910   65.5880 C.ar  383  TYR383      0.0417
     53  CZ        58.9410   64.6780   65.3040 C.ar  383  TYR383      0.1957
     54  OH        57.6240   65.1110   65.3130 O.3   383  TYR383     -0.2866
     55  N         52.4440   71.6780   64.7690 N.3   496  TRP496     -0.1241
     56  CA        51.7820   72.7020   65.5840 C.3   496  TRP496      0.1605
     57  C         50.7360   73.4610   64.7640 C.2   496  TRP496      0.2264
     58  O         50.9760   73.7880   63.5970 O.2   496  TRP496     -0.2867
     59  CB        52.7940   73.7350   66.1150 C.3   496  TRP496      0.0550
     60  CG        53.7290   73.2480   67.1710 C.ar  496  TRP496      0.0003
     61  CD1       55.0730   73.0260   67.0310 C.ar  496  TRP496      0.0946
     62  CD2       53.4200   72.9580   68.5420 C.ar  496  TRP496      0.0152
     63  NE1       55.6150   72.6020   68.2260 N.ar  496  TRP496     -0.2442
     64  CE2       54.6150   72.5550   69.1780 C.ar  496  TRP496      0.0810
     65  CE3       52.2410   72.9860   69.3060 C.ar  496  TRP496      0.0012
     66  CZ2       54.6850   72.1950   70.5300 C.ar  496  TRP496      0.0191
     67  CZ3       52.3000   72.6310   70.6480 C.ar  496  TRP496      0.0001
     68  CH2       53.5170   72.2390   71.2470 C.ar  496  TRP496      0.0015
     69  N         51.3260   77.4240   68.4350 N.3   499  VAL499     -0.1231
     70  CA        52.5120   77.1690   69.2630 C.3   499  VAL499      0.1692
     71  C         52.8930   78.3880   70.1190 C.2   499  VAL499      0.2592
     72  O         53.6490   78.2680   71.0880 O.2   499  VAL499     -0.2718
     73  CB        53.7150   76.7520   68.3880 C.3   499  VAL499      0.0266
     74  CG1       54.3030   77.9820   67.6930 C.3   499  VAL499      0.0020
     75  CG2       54.7920   76.0090   69.2210 C.3   499  VAL499      0.0020
     76  N         52.3270   79.5450   69.7890 N.am  500  ASP500     -0.1974
     77  CA        52.7370   80.8040   70.4240 C.3   500  ASP500      0.1709
     78  C         51.6740   81.5390   71.2550 C.2   500  ASP500      0.2293
     79  O         51.8180   82.7400   71.5260 O.2   500  ASP500     -0.2864
     80  CB        53.2920   81.7650   69.3600 C.3   500  ASP500      0.1436
     81  CG        52.3320   81.9770   68.2120 C.2   500  ASP500      0.3671
     82  OD1       52.5720   82.9050   67.4070 O.co2 500  ASP500     -0.2456
     83  OD2       51.3340   81.2190   68.1090 O.co2 500  ASP500     -0.2456
     84  N         51.0790   82.1210   74.3300 N.3   502  LYS502     -0.1245
     85  CA        51.6210   82.1260   75.6660 C.3   502  LYS502      0.1561
     86  C         50.6840   82.8430   76.6140 C.2   502  LYS502      0.2260
     87  O         50.4430   82.3620   77.7180 O.2   502  LYS502     -0.2867
     88  CB        53.0010   82.7980   75.6550 C.3   502  LYS502      0.0271
     89  CG        53.9650   82.1730   74.6320 C.3   502  LYS502      0.0035
     90  CD        55.3300   82.8680   74.6520 C.3   502  LYS502      0.0206
     91  CE        56.2610   82.3110   73.5840 C.3   502  LYS502      0.1093
     92  NZ        57.6920   82.7570   73.8200 N.3   502  LYS502     -0.1314
@<TRIPOS>BOND
     1    58    57    2
     2    57    56    1
     3    55    56    1
     4    51    49   ar
     5    51    53   ar
     6    49    48   ar
     7    53    54    1
     8    53    52   ar
     9    48    47    1
    10    48    50   ar
    11    47    44    1
    12    56    59    1
    13    52    50   ar
    14    46    45    2
    15    59    60    1
    16    44    45    1
    17    44    43    1
    18    34    32    1
    19    61    60   ar
    20    61    63   ar
    21    60    62   ar
    22    82    81   ar
    23    74    73    1
    24    32    31    1
    25    83    81   ar
    26    41    40    1
    27    81    80    1
    28    63    64   ar
    29    73    75    1
    30    73    70    1
    31    30    29    2
    32    69    70    1
    33    38    37    2
    34    62    64   ar
    35    62    65   ar
    36    64    66   ar
    37    31    33    1
    38    31    28    1
    39    70    71    1
    40    65    67   ar
    41    40    39    1
    42    40    42    1
    43    80    77    1
    44    29    35   am
    45    29    28    1
    46    36    37    1
    47    36    35    1
    48    36    39    1
    49    76    71   am
    50    76    77    1
    51    28    27    1
    52    71    72    2
    53    77    78    1
    54    66    68   ar
    55    67    68   ar
    56    78    79    2
    57    12    11    2
    58    13    15    1
    59    13    10    1
    60    13    14    1
    61    19    18    2
    62    11    10    1
    63    11    16   am
    64    10     9    1
    65    18    17    1
    66    91    92    1
    67    91    90    1
    68    17    16    1
    69    17    20    1
    70    25    23   ar
    71    25    26   ar
    72    23    21   ar
    73    84    85    1
    74    89    90    1
    75    89    88    1
    76    26    24   ar
    77    21    20    1
    78    21    22   ar
    79    88    85    1
    80    85    86    1
    81    24    22   ar
    82     4     3    2
    83     2     5    1
    84     2     1    1
    85     2     3    1
    86    86    87    2
    87     5     6    1
    88     6     8   ar
    89     6     7   ar
