@<TRIPOS>MOLECULE
tmp/5e6zC01.pdb
 80 79 0 0 0
SMALL
GASTEIGER

@<TRIPOS>ATOM
      1  N         89.7630   70.0010   52.4300 N.3   396  ASP396     -0.1239
      2  CA        88.7580   68.9910   52.7650 C.3   396  ASP396      0.1674
      3  C         87.7870   68.8110   51.5940 C.2   396  ASP396      0.2266
      4  O         87.8630   69.5540   50.6130 O.2   396  ASP396     -0.2867
      5  CB        88.0220   69.3120   54.0790 C.3   396  ASP396      0.1410
      6  CG        87.4210   70.7110   54.1110 C.2   396  ASP396      0.3668
      7  OD1       87.3170   71.2670   55.2260 O.co2 396  ASP396     -0.2456
      8  OD2       87.0400   71.2510   53.0500 O.co2 396  ASP396     -0.2456
      9  N         84.6410   69.4940   50.8840 N.3   398  TRP398     -0.1227
     10  CA        83.9310   70.6840   50.4220 C.3   398  TRP398      0.1737
     11  C         84.8340   71.6020   49.5970 C.2   398  TRP398      0.2595
     12  O         84.4260   72.1080   48.5450 O.2   398  TRP398     -0.2718
     13  CB        83.3370   71.4700   51.5970 C.3   398  TRP398      0.0564
     14  CG        82.4510   72.6080   51.1520 C.ar  398  TRP398      0.0003
     15  CD1       81.0890   72.5900   51.0260 C.ar  398  TRP398      0.0946
     16  CD2       82.8690   73.9270   50.7650 C.ar  398  TRP398      0.0152
     17  NE1       80.6360   73.8120   50.5890 N.ar  398  TRP398     -0.2442
     18  CE2       81.7080   74.6500   50.4170 C.ar  398  TRP398      0.0810
     19  CE3       84.1100   74.5630   50.6730 C.ar  398  TRP398      0.0012
     20  CZ2       81.7520   75.9790   49.9900 C.ar  398  TRP398      0.0191
     21  CZ3       84.1540   75.8860   50.2460 C.ar  398  TRP398      0.0001
     22  CH2       82.9830   76.5780   49.9120 C.ar  398  TRP398      0.0015
     23  N         86.0540   71.8170   50.0860 N.am  399  GLN399     -0.1979
     24  CA        86.9980   72.7380   49.4490 C.3   399  GLN399      0.1601
     25  C         87.5860   72.1890   48.1510 C.2   399  GLN399      0.2287
     26  O         87.8590   72.9500   47.2170 O.2   399  GLN399     -0.2864
     27  CB        88.1260   73.1170   50.4140 C.3   399  GLN399      0.0394
     28  CG        87.6790   74.0300   51.5450 C.3   399  GLN399      0.0908
     29  CD        88.8470   74.6340   52.2930 C.2   399  GLN399      0.2608
     30  OE1       89.9960   74.5190   51.8670 O.2   399  GLN399     -0.2717
     31  NE2       88.5590   75.2920   53.4100 N.am  399  GLN399     -0.0878
     32  N         89.1160   80.3230   50.4010 N.3   513  PRO513     -0.2102
     33  CA        87.9200   79.9870   51.1860 C.3   513  PRO513      0.1504
     34  C         87.3300   81.1480   51.9890 C.2   513  PRO513      0.2576
     35  O         86.3480   80.9390   52.7090 O.2   513  PRO513     -0.2718
     36  CB        88.4260   78.9120   52.1530 C.3   513  PRO513      0.0282
     37  CG        89.6550   78.3680   51.5090 C.3   513  PRO513      0.0208
     38  CD        90.2840   79.5380   50.8290 C.3   513  PRO513      0.0893
     39  N         87.9100   82.3400   51.8790 N.am  514  VAL514     -0.1967
     40  CA        87.3900   83.5060   52.5920 C.3   514  VAL514      0.1712
     41  C         86.3770   84.2620   51.7390 C.2   514  VAL514      0.2458
     42  O         86.7310   84.8150   50.6960 O.2   514  VAL514     -0.2730
     43  CB        88.5210   84.4750   53.0120 C.3   514  VAL514      0.0289
     44  CG1       87.9500   85.7190   53.6830 C.3   514  VAL514      0.0023
     45  CG2       89.5230   83.7780   53.9310 C.3   514  VAL514      0.0023
     46  N         85.1070   84.2890   52.1800 N.am  515  PRO515     -0.2727
     47  CA        84.0780   85.0700   51.4810 C.3   515  PRO515      0.1402
     48  C         84.4340   86.5530   51.4940 C.2   515  PRO515      0.2269
     49  O         84.9430   87.0420   52.5030 O.2   515  PRO515     -0.2865
     50  CB        82.8180   84.8310   52.3240 C.3   515  PRO515      0.0296
     51  CG        83.0780   83.5580   53.0570 C.3   515  PRO515      0.0237
     52  CD        84.5570   83.5400   53.3240 C.3   515  PRO515      0.0939
     53  N         82.9280   90.2850   51.2080 N.3   517  HIS517     -0.1241
     54  CA        81.7610   91.1540   51.1660 C.3   517  HIS517      0.1621
     55  C         82.1960   92.5870   50.8880 C.2   517  HIS517      0.2264
     56  O         83.3290   92.9710   51.2040 O.2   517  HIS517     -0.2867
     57  CB        80.9820   91.0750   52.4830 C.3   517  HIS517      0.0745
     58  CG        80.7450   89.6750   52.9650 C.ar  517  HIS517      0.0817
     59  ND1       79.6430   88.9330   52.5940 N.ar  517  HIS517     -0.2268
     60  CD2       81.4670   88.8860   53.7960 C.ar  517  HIS517      0.1154
     61  CE1       79.7000   87.7450   53.1720 C.ar  517  HIS517      0.1986
     62  NE2       80.7970   87.6910   53.9070 N.ar  517  HIS517     -0.2212
     63  N         78.0820   76.5790   49.2010 N.3   543  SER543     -0.1217
     64  CA        77.5640   77.0870   50.4750 C.3   543  SER543      0.1889
     65  C         76.4340   78.0820   50.2780 C.2   543  SER543      0.2288
     66  O         75.8990   78.6220   51.2450 O.2   543  SER543     -0.2866
     67  CB        78.6780   77.7450   51.2840 C.3   543  SER543      0.2089
     68  OG        79.0010   79.0210   50.7580 O.3   543  SER543     -0.2183
     69  N         76.4790   81.1060   49.1510 N.3   545  ALA545     -0.1245
     70  CA        76.8250   82.5210   49.2730 C.3   545  ALA545      0.1562
     71  C         76.6290   83.2080   47.9200 C.2   545  ALA545      0.2260
     72  O         76.6900   82.5630   46.8700 O.2   545  ALA545     -0.2867
     73  CB        78.2600   82.6840   49.7500 C.3   545  ALA545      0.0290
     74  N         83.1430   82.0800   48.6400 N.3   571  PRO571     -0.2116
     75  CA        84.3920   81.3470   48.8860 C.3   571  PRO571      0.1372
     76  C         84.6540   80.2700   47.8350 C.2   571  PRO571      0.2244
     77  O         83.7230   79.5370   47.4790 O.2   571  PRO571     -0.2868
     78  CB        84.1420   80.6790   50.2480 C.3   571  PRO571      0.0268
     79  CG        82.6530   80.5830   50.3560 C.3   571  PRO571      0.0207
     80  CD        82.1400   81.8300   49.6940 C.3   571  PRO571      0.0892
@<TRIPOS>BOND
     1    72    71    2
     2    26    25    2
     3    77    76    2
     4    76    75    1
     5    71    70    1
     6    25    24    1
     7    12    11    2
     8    74    75    1
     9    74    80    1
    10    75    78    1
    11    69    70    1
    12    63    64    1
    13    70    73    1
    14    24    23    1
    15    24    27    1
    16    11    23   am
    17    11    10    1
    18    80    79    1
    19    22    20   ar
    20    22    21   ar
    21    20    18   ar
    22    21    19   ar
    23    78    79    1
    24    65    64    1
    25    65    66    2
    26    32    38    1
    27    32    33    1
    28    27    28    1
    29    18    17   ar
    30    18    16   ar
    31    10     9    1
    32    10    13    1
    33    64    67    1
    34    17    15   ar
    35     4     3    2
    36    19    16   ar
    37    42    41    2
    38    68    67    1
    39    16    14   ar
    40    38    37    1
    41    55    54    1
    42    55    56    2
    43    15    14   ar
    44    14    13    1
    45    54    53    1
    46    54    57    1
    47    33    34    1
    48    33    36    1
    49    47    48    1
    50    47    46    1
    51    47    50    1
    52    48    49    2
    53    37    36    1
    54    28    29    1
    55     3     2    1
    56    41    46   am
    57    41    40    1
    58    30    29    2
    59    39    34   am
    60    39    40    1
    61    34    35    2
    62    46    52    1
    63    29    31   am
    64    50    51    1
    65     1     2    1
    66    57    58    1
    67    40    43    1
    68    59    58   ar
    69    59    61   ar
    70     2     5    1
    71    58    60   ar
    72    43    44    1
    73    43    45    1
    74     8     6   ar
    75    51    52    1
    76    61    62   ar
    77    60    62   ar
    78     5     6    1
    79     6     7   ar
