@<TRIPOS>MOLECULE
tmp/5e70B00.pdb
 92 89 0 0 0
SMALL
GASTEIGER

@<TRIPOS>ATOM
      1  N         57.6580   77.3440   77.3520 N.3   377  ASP377     -0.1239
      2  CA        58.7590   76.5040   76.8260 C.3   377  ASP377      0.1674
      3  C         58.7870   75.0720   77.3740 C.2   377  ASP377      0.2266
      4  O         59.2170   74.1690   76.6870 O.2   377  ASP377     -0.2867
      5  CB        60.1310   77.1620   77.0620 C.3   377  ASP377      0.1410
      6  CG        60.4920   77.2930   78.5650 C.2   377  ASP377      0.3668
      7  OD1       59.6460   77.7620   79.3690 O.co2 377  ASP377     -0.2456
      8  OD2       61.6710   76.9790   78.9420 O.co2 377  ASP377     -0.2456
      9  N         56.6900   73.0990   75.0180 N.3   380  THR380     -0.1203
     10  CA        57.0500   73.1410   73.6130 C.3   380  THR380      0.1994
     11  C         58.4460   72.5070   73.3610 C.2   380  THR380      0.2617
     12  O         58.7410   72.0550   72.2420 O.2   380  THR380     -0.2717
     13  CB        57.0270   74.5960   73.0640 C.3   380  THR380      0.1784
     14  OG1       57.9710   75.4050   73.7700 O.3   380  THR380     -0.2211
     15  CG2       55.6540   75.2330   73.1940 C.3   380  THR380      0.0376
     16  N         59.2810   72.4260   74.4010 N.am  381  PHE381     -0.1975
     17  CA        60.6630   71.9760   74.1990 C.3   381  PHE381      0.1639
     18  C         60.7540   70.5180   73.7010 C.2   381  PHE381      0.2290
     19  O         61.6110   70.1750   72.8690 O.2   381  PHE381     -0.2864
     20  CB        61.4920   72.1810   75.4810 C.3   381  PHE381      0.0560
     21  CG        62.9880   71.8750   75.3160 C.ar  381  PHE381     -0.0200
     22  CD1       63.5960   70.8530   76.0590 C.ar  381  PHE381     -0.0042
     23  CD2       63.7690   72.6060   74.4650 C.ar  381  PHE381     -0.0042
     24  CE1       64.9740   70.5560   75.8990 C.ar  381  PHE381     -0.0003
     25  CE2       65.1690   72.3250   74.3090 C.ar  381  PHE381     -0.0003
     26  CZ        65.7540   71.3020   75.0280 C.ar  381  PHE381     -0.0000
     27  N         59.3560   68.7010   71.6340 N.3   383  ILE383     -0.1231
     28  CA        59.2450   68.4160   70.2440 C.3   383  ILE383      0.1692
     29  C         60.6290   68.5660   69.6190 C.2   383  ILE383      0.2591
     30  O         60.9920   67.7990   68.7310 O.2   383  ILE383     -0.2718
     31  CB        58.2220   69.3270   69.5710 C.3   383  ILE383      0.0266
     32  CG1       56.8230   68.9590   70.0650 C.3   383  ILE383      0.0019
     33  CG2       58.1850   69.0700   68.0470 C.3   383  ILE383      0.0020
     34  CD1       56.4660   67.5230   69.6630 C.3   383  ILE383      0.0001
     35  N         61.4260   69.4950   70.1380 N.am  384  LEU384     -0.1980
     36  CA        62.7010   69.7950   69.5430 C.3   384  LEU384      0.1596
     37  C         63.6420   68.5950   69.5570 C.2   384  LEU384      0.2287
     38  O         64.3390   68.3960   68.6130 O.2   384  LEU384     -0.2864
     39  CB        63.3230   70.9740   70.2800 C.3   384  LEU384      0.0297
     40  CG        63.7740   72.2230   69.5290 C.3   384  LEU384      0.0022
     41  CD1       63.1200   72.4800   68.1150 C.3   384  LEU384      0.0001
     42  CD2       63.5910   73.4010   70.4800 C.3   384  LEU384      0.0001
     43  N         62.8380   63.5390   67.9140 N.3   387  TYR387     -0.1241
     44  CA        63.2980   62.6480   66.8360 C.3   387  TYR387      0.1605
     45  C         64.7410   62.1700   67.0580 C.2   387  TYR387      0.2264
     46  O         65.3340   61.5410   66.1900 O.2   387  TYR387     -0.2867
     47  CB        63.0310   63.2960   65.4450 C.3   387  TYR387      0.0534
     48  CG        61.5750   63.7940   65.4010 C.ar  387  TYR387     -0.0201
     49  CD1       60.5120   62.8890   65.1940 C.ar  387  TYR387     -0.0009
     50  CD2       61.2550   65.1390   65.6500 C.ar  387  TYR387     -0.0009
     51  CE1       59.1820   63.2990   65.1970 C.ar  387  TYR387      0.0417
     52  CE2       59.9010   65.5800   65.6470 C.ar  387  TYR387      0.0417
     53  CZ        58.8870   64.6370   65.4260 C.ar  387  TYR387      0.1957
     54  OH        57.5590   65.0260   65.4210 O.3   387  TYR387     -0.2866
     55  N         52.3540   71.6490   65.1080 N.3   500  TRP500     -0.1241
     56  CA        51.7040   72.6940   65.8880 C.3   500  TRP500      0.1605
     57  C         50.6730   73.4440   65.0510 C.2   500  TRP500      0.2264
     58  O         50.9140   73.7700   63.8870 O.2   500  TRP500     -0.2867
     59  CB        52.7140   73.7390   66.3980 C.3   500  TRP500      0.0550
     60  CG        53.6720   73.2290   67.3700 C.ar  500  TRP500      0.0003
     61  CD1       55.0360   73.0000   67.1750 C.ar  500  TRP500      0.0946
     62  CD2       53.4000   72.9210   68.7490 C.ar  500  TRP500      0.0152
     63  NE1       55.5870   72.5330   68.3490 N.ar  500  TRP500     -0.2442
     64  CE2       54.6180   72.4940   69.3290 C.ar  500  TRP500      0.0810
     65  CE3       52.2440   72.9650   69.5430 C.ar  500  TRP500      0.0012
     66  CZ2       54.7050   72.0980   70.6550 C.ar  500  TRP500      0.0191
     67  CZ3       52.3260   72.5850   70.8830 C.ar  500  TRP500      0.0001
     68  CH2       53.5490   72.1470   71.4270 C.ar  500  TRP500      0.0015
     69  N         51.3710   77.3990   68.6910 N.3   503  VAL503     -0.1231
     70  CA        52.5440   77.1430   69.5180 C.3   503  VAL503      0.1692
     71  C         52.8700   78.3220   70.4360 C.2   503  VAL503      0.2592
     72  O         53.5870   78.1680   71.4210 O.2   503  VAL503     -0.2718
     73  CB        53.7510   76.7600   68.6320 C.3   503  VAL503      0.0266
     74  CG1       54.2890   77.9700   67.8390 C.3   503  VAL503      0.0020
     75  CG2       54.8390   76.0300   69.4380 C.3   503  VAL503      0.0020
     76  N         52.2870   79.4880   70.1600 N.am  504  ASP504     -0.1974
     77  CA        52.6950   80.6950   70.8750 C.3   504  ASP504      0.1709
     78  C         51.5660   81.4550   71.5820 C.2   504  ASP504      0.2293
     79  O         51.7010   82.6490   71.8430 O.2   504  ASP504     -0.2864
     80  CB        53.4100   81.6580   69.8960 C.3   504  ASP504      0.1436
     81  CG        52.5050   82.0450   68.7300 C.2   504  ASP504      0.3671
     82  OD1       52.9440   82.7940   67.8510 O.co2 504  ASP504     -0.2456
     83  OD2       51.3350   81.5780   68.6790 O.co2 504  ASP504     -0.2456
     84  N         50.9610   82.1240   74.6420 N.3   506  LYS506     -0.1245
     85  CA        51.5020   82.1600   75.9800 C.3   506  LYS506      0.1561
     86  C         50.5730   82.8730   76.9380 C.2   506  LYS506      0.2260
     87  O         50.3080   82.3580   78.0390 O.2   506  LYS506     -0.2867
     88  CB        52.8610   82.8680   75.9810 C.3   506  LYS506      0.0271
     89  CG        53.8710   82.1570   75.1450 C.3   506  LYS506      0.0035
     90  CD        55.1970   82.9020   75.1030 C.3   506  LYS506      0.0206
     91  CE        56.1890   82.1010   74.2450 C.3   506  LYS506      0.1093
     92  NZ        57.4780   82.8280   74.1000 N.3   506  LYS506     -0.1314
@<TRIPOS>BOND
     1    58    57    2
     2    57    56    1
     3    55    56    1
     4    49    51   ar
     5    49    48   ar
     6    51    53   ar
     7    48    47    1
     8    48    50   ar
     9    54    53    1
    10    53    52   ar
    11    47    44    1
    12    52    50   ar
    13    56    59    1
    14    46    45    2
    15    59    60    1
    16    44    45    1
    17    44    43    1
    18    61    60   ar
    19    61    63   ar
    20    60    62   ar
    21    74    73    1
    22    82    81   ar
    23    33    31    1
    24    41    40    1
    25    63    64   ar
    26    38    37    2
    27    73    75    1
    28    73    70    1
    29    83    81   ar
    30    69    70    1
    31    81    80    1
    32    30    29    2
    33    62    64   ar
    34    62    65   ar
    35    64    66   ar
    36    70    71    1
    37    40    39    1
    38    40    42    1
    39    65    67   ar
    40    36    37    1
    41    36    35    1
    42    36    39    1
    43    31    32    1
    44    31    28    1
    45    29    35   am
    46    29    28    1
    47    34    32    1
    48    80    77    1
    49    76    71   am
    50    76    77    1
    51    28    27    1
    52    71    72    2
    53    66    68   ar
    54    77    78    1
    55    67    68   ar
    56    78    79    2
    57    12    11    2
    58    19    18    2
    59    13    15    1
    60    13    10    1
    61    13    14    1
    62    11    10    1
    63    11    16   am
    64    10     9    1
    65    18    17    1
    66    92    91    1
    67    17    16    1
    68    17    20    1
    69    91    90    1
    70    25    23   ar
    71    25    26   ar
    72    23    21   ar
    73    84    85    1
    74    26    24   ar
    75    90    89    1
    76    89    88    1
    77    21    20    1
    78    21    22   ar
    79    24    22   ar
    80    85    88    1
    81    85    86    1
    82     4     3    2
    83     2     5    1
    84     2     1    1
    85     2     3    1
    86    86    87    2
    87     5     6    1
    88     6     8   ar
    89     6     7   ar
