@<TRIPOS>MOLECULE
tmp/5e72A00.pdb
 190 185 0 0 0
SMALL
GASTEIGER

@<TRIPOS>ATOM
      1  N         -6.0590  -11.8710   11.8030 N.3   163  ILE163     -0.1231
      2  CA        -7.3980  -12.0080   12.3620 C.3   163  ILE163      0.1692
      3  C         -8.4160  -11.0320   11.7430 C.2   163  ILE163      0.2593
      4  O         -9.5340  -10.8690   12.2390 O.2   163  ILE163     -0.2718
      5  CB        -7.3500  -11.8500   13.9290 C.3   163  ILE163      0.0266
      6  CG1       -6.6600  -10.5290   14.3980 C.3   163  ILE163      0.0019
      7  CG2       -6.6450  -13.0810   14.5240 C.3   163  ILE163      0.0020
      8  CD1       -7.5550   -9.2530   14.6100 C.3   163  ILE163      0.0001
      9  N         -8.0430  -10.4160   10.6280 N.am  164  SER164     -0.1938
     10  CA        -8.9330   -9.4730    9.9580 C.3   164  SER164      0.2055
     11  C         -9.7130  -10.1170    8.8070 C.2   164  SER164      0.2642
     12  O         -9.2920  -11.1230    8.2390 O.2   164  SER164     -0.2714
     13  CB        -8.1380   -8.2780    9.4260 C.3   164  SER164      0.2130
     14  OG        -7.6310   -7.4680   10.4740 O.3   164  SER164     -0.2179
     15  N        -10.8570   -9.5200    8.4850 N.am  165  LEU165     -0.1977
     16  CA       -11.5960   -9.8020    7.2570 C.3   165  LEU165      0.1596
     17  C        -10.7670   -9.3390    6.0710 C.2   165  LEU165      0.2287
     18  O         -9.8220   -8.5960    6.2620 O.2   165  LEU165     -0.2864
     19  CB       -12.9250   -9.0610    7.2760 C.3   165  LEU165      0.0297
     20  CG       -13.8040   -9.3810    8.4740 C.3   165  LEU165      0.0022
     21  CD1      -14.8710   -8.3240    8.6390 C.3   165  LEU165      0.0001
     22  CD2      -14.4230  -10.7600    8.2890 C.3   165  LEU165      0.0001
     23  N        -14.2070   -5.7040    4.7830 N.3   170  SER170     -0.1217
     24  CA       -14.2400   -4.7070    5.8580 C.3   170  SER170      0.1889
     25  C        -14.8350   -3.3910    5.3580 C.2   170  SER170      0.2288
     26  O        -15.7160   -2.7990    5.9960 O.2   170  SER170     -0.2866
     27  CB       -12.8300   -4.4650    6.4310 C.3   170  SER170      0.2089
     28  OG       -12.3350   -5.6220    7.0940 O.3   170  SER170     -0.2183
     29  N        -16.4350    0.3550   16.1890 N.3   185  ASP185     -0.1225
     30  CA       -16.1570   -1.0810   16.1830 C.3   185  ASP185      0.1790
     31  C        -15.8030   -1.4790   17.6070 C.2   185  ASP185      0.2440
     32  O        -14.6960   -1.1940   18.0500 O.2   185  ASP185     -0.2733
     33  CB       -15.0030   -1.4280   15.2340 C.3   185  ASP185      0.1423
     34  CG       -14.7400   -2.9330   15.1510 C.2   185  ASP185      0.3668
     35  OD1      -15.2240   -3.6820   16.0250 O.co2 185  ASP185     -0.2456
     36  OD2      -14.0580   -3.3780   14.2000 O.co2 185  ASP185     -0.2456
     37  N        -16.7370   -2.1330   18.3240 N.am  186  PRO186     -0.2718
     38  CA       -16.5000   -2.4740   19.7350 C.3   186  PRO186      0.1535
     39  C        -15.7570   -3.7940   19.9670 C.2   186  PRO186      0.2599
     40  O        -15.5640   -4.1830   21.1190 O.2   186  PRO186     -0.2715
     41  CB       -17.9170   -2.5420   20.3160 C.3   186  PRO186      0.0310
     42  CG       -18.7750   -3.0270   19.1580 C.3   186  PRO186      0.0237
     43  CD       -18.1090   -2.4650   17.8880 C.3   186  PRO186      0.0939
     44  N        -15.3610   -4.4700   18.8920 N.am  187  PHE187     -0.1960
     45  CA       -14.4610   -5.6250   18.9610 C.3   187  PHE187      0.1771
     46  C        -13.3130   -5.3940   17.9960 C.2   187  PHE187      0.2619
     47  O        -13.1230   -6.1900   17.0900 O.2   187  PHE187     -0.2715
     48  CB       -15.1610   -6.9420   18.5730 C.3   187  PHE187      0.0574
     49  CG       -16.3290   -7.3410   19.4500 C.ar  187  PHE187     -0.0200
     50  CD1      -16.1320   -7.9900   20.6620 C.ar  187  PHE187     -0.0042
     51  CD2      -17.6320   -7.1380   19.0160 C.ar  187  PHE187     -0.0042
     52  CE1      -17.2110   -8.3910   21.4370 C.ar  187  PHE187     -0.0003
     53  CE2      -18.7190   -7.5320   19.7970 C.ar  187  PHE187     -0.0003
     54  CZ       -18.5030   -8.1590   21.0110 C.ar  187  PHE187     -0.0000
     55  N        -12.5630   -4.3090   18.1450 N.am  188  MET188     -0.1963
     56  CA       -11.8200   -3.7840   16.9950 C.3   188  MET188      0.1736
     57  C        -10.5830   -4.5700   16.5750 C.2   188  MET188      0.2617
     58  O        -10.1420   -4.4500   15.4250 O.2   188  MET188     -0.2715
     59  CB       -11.4120   -2.3360   17.2540 C.3   188  MET188      0.0427
     60  CG       -10.3110   -2.2070   18.2700 C.3   188  MET188      0.0599
     61  SD        -9.8410   -0.4850   18.4150 S.3   188  MET188     -0.1393
     62  CE        -8.7190   -0.5960   19.8180 C.3   188  MET188      0.0692
     63  N        -10.0310   -5.3740   17.4820 N.am  189  GLY189     -0.1955
     64  CA        -8.8510   -6.1720   17.2020 C.3   189  GLY189      0.1869
     65  C         -7.6820   -5.3360   16.6890 C.2   189  GLY189      0.2309
     66  O         -7.3560   -4.3100   17.2800 O.2   189  GLY189     -0.2863
     67  N         -8.8110   -3.6260   11.5380 N.3   192  GLY192     -0.1210
     68  CA        -9.0910   -3.7770   10.1090 C.3   192  GLY192      0.1956
     69  C        -10.2930   -2.9950    9.5910 C.2   192  GLY192      0.2611
     70  O        -10.2280   -2.3500    8.5420 O.2   192  GLY192     -0.2717
     71  N        -11.4030   -3.0380   10.3280 N.am  193  ILE193     -0.1979
     72  CA       -12.5980   -2.3110    9.9110 C.3   193  ILE193      0.1595
     73  C        -12.3970   -0.8150   10.1090 C.2   193  ILE193      0.2287
     74  O        -12.8080   -0.0050    9.2740 O.2   193  ILE193     -0.2864
     75  CB       -13.8420   -2.8110   10.6810 C.3   193  ILE193      0.0276
     76  CG1      -14.2580   -4.1720   10.1120 C.3   193  ILE193      0.0022
     77  CG2      -14.9880   -1.8090   10.6150 C.3   193  ILE193      0.0022
     78  CD1      -15.3760   -4.8610   10.9060 C.3   193  ILE193      0.0001
     79  N        -13.2600   -0.2070   20.5410 N.3   207  VAL207     -0.1231
     80  CA       -13.0810   -0.8200   21.8550 C.3   207  VAL207      0.1692
     81  C        -12.4170   -2.1780   21.6780 C.2   207  VAL207      0.2592
     82  O        -12.6560   -2.8620   20.6910 O.2   207  VAL207     -0.2718
     83  CB       -14.4200   -1.0110   22.6130 C.3   207  VAL207      0.0266
     84  CG1      -14.1600   -1.5500   24.0300 C.3   207  VAL207      0.0020
     85  CG2      -15.2130    0.2910   22.6820 C.3   207  VAL207      0.0020
     86  N        -11.5620   -2.5660   22.6180 N.am  208  ASP208     -0.1960
     87  CA       -11.1340   -3.9570   22.6960 C.3   208  ASP208      0.1840
     88  C        -10.8490   -4.2620   24.1490 C.2   208  ASP208      0.2622
     89  O        -10.3890   -3.3780   24.8700 O.2   208  ASP208     -0.2715
     90  CB        -9.8990   -4.2350   21.8430 C.3   208  ASP208      0.1450
     91  CG        -9.7620   -5.7080   21.4850 C.2   208  ASP208      0.3671
     92  OD1       -9.3600   -6.5050   22.3570 O.co2 208  ASP208     -0.2456
     93  OD2      -10.0610   -6.0870   20.3290 O.co2 208  ASP208     -0.2456
     94  N        -11.1240   -5.4970   24.5590 N.am  209  ILE209     -0.1963
     95  CA       -10.8790   -5.9320   25.9400 C.3   209  ILE209      0.1727
     96  C         -9.3970   -6.1800   26.2440 C.2   209  ILE209      0.2616
     97  O         -9.0100   -6.2820   27.4240 O.2   209  ILE209     -0.2715
     98  CB       -11.6860   -7.2180   26.2570 C.3   209  ILE209      0.0290
     99  CG1      -11.8380   -7.4100   27.7700 C.3   209  ILE209      0.0022
    100  CG2      -11.0750   -8.4280   25.5680 C.3   209  ILE209      0.0023
    101  CD1      -12.9290   -6.5710   28.3430 C.3   209  ILE209      0.0001
    102  N         -8.5670   -6.2690   25.2040 N.am  210  ARG210     -0.1977
    103  CA        -7.1400   -6.5460   25.3830 C.3   210  ARG210      0.1597
    104  C         -6.3040   -5.2910   25.1490 C.2   210  ARG210      0.2287
    105  O         -6.3970   -4.6530   24.1060 O.2   210  ARG210     -0.2864
    106  CB        -6.6550   -7.6670   24.4430 C.3   210  ARG210      0.0334
    107  CG        -7.3550   -9.0290   24.5740 C.3   210  ARG210      0.0492
    108  CD        -7.0250   -9.7940   25.8580 C.3   210  ARG210      0.2205
    109  NE        -5.5990   -9.8300   26.1940 N.pl3 210  ARG210     -0.0865
    110  CZ        -5.0970  -10.5070   27.2300 C.cat 210  ARG210      0.5346
    111  NH1       -5.9000  -11.2220   28.0120 N.pl3 210  ARG210      0.1354
    112  NH2       -3.7960  -10.4830   27.4880 N.pl3 210  ARG210      0.1354
    113  N         -4.3400   -5.0200   21.9290 N.3   213  MET213     -0.1245
    114  CA        -5.1090   -4.6790   20.7380 C.3   213  MET213      0.1570
    115  C         -5.3910   -3.1840   20.6960 C.2   213  MET213      0.2261
    116  O         -5.3600   -2.5610   19.6350 O.2   213  MET213     -0.2867
    117  CB        -6.4240   -5.4630   20.6850 C.3   213  MET213      0.0387
    118  CG        -6.2810   -6.9410   21.0450 C.3   213  MET213      0.0595
    119  SD        -4.9960   -7.7690   20.1170 S.3   213  MET213     -0.1393
    120  CE        -5.6240   -7.4040   18.5230 C.3   213  MET213      0.0692
    121  N        -11.8110   -1.7990   27.0740 N.3   234  GLY234     -0.1210
    122  CA       -13.0880   -2.0730   27.7010 C.3   234  GLY234      0.1956
    123  C        -13.8810   -3.2030   27.0760 C.2   234  GLY234      0.2612
    124  O        -13.3720   -3.9460   26.2370 O.2   234  GLY234     -0.2717
    125  N        -15.1500   -3.2880   27.4680 N.am  235  ASP235     -0.1959
    126  CA       -16.0230   -4.4240   27.1720 C.3   235  ASP235      0.1840
    127  C        -17.1910   -4.0030   26.2700 C.2   235  ASP235      0.2621
    128  O        -17.9680   -3.1070   26.6120 O.2   235  ASP235     -0.2715
    129  CB       -16.5310   -5.0150   28.4990 C.3   235  ASP235      0.1450
    130  CG       -17.1790   -6.3770   28.3470 C.2   235  ASP235      0.3671
    131  OD1      -17.7710   -6.6650   27.2860 O.co2 235  ASP235     -0.2456
    132  OD2      -17.1330   -7.1600   29.3250 O.co2 235  ASP235     -0.2456
    133  N        -17.3160   -4.6700   25.1200 N.am  236  ALA236     -0.1977
    134  CA       -18.3530   -4.3670   24.1440 C.3   236  ALA236      0.1597
    135  C        -19.7760   -4.5090   24.6920 C.2   236  ALA236      0.2287
    136  O        -20.7240   -4.0010   24.0960 O.2   236  ALA236     -0.2864
    137  CB       -18.1810   -5.2660   22.9140 C.3   236  ALA236      0.0319
    138  N        -16.4160   -7.3780   13.5420 N.3   254  ASP254     -0.1225
    139  CA       -16.2980   -8.8270   13.4680 C.3   254  ASP254      0.1790
    140  C        -15.9350   -9.3450   14.8600 C.2   254  ASP254      0.2440
    141  O        -14.8020   -9.2030   15.2950 O.2   254  ASP254     -0.2733
    142  CB       -15.2440   -9.2310   12.4270 C.3   254  ASP254      0.1423
    143  CG       -15.1330  -10.7250   12.2770 C.2   254  ASP254      0.3668
    144  OD1      -16.1850  -11.3880   12.3460 O.co2 254  ASP254     -0.2456
    145  OD2      -14.0040  -11.2380   12.1170 O.co2 254  ASP254     -0.2456
    146  N        -16.9020   -9.9330   15.5740 N.am  255  PRO255     -0.2718
    147  CA       -16.6620  -10.3560   16.9620 C.3   255  PRO255      0.1520
    148  C        -15.7900  -11.6220   17.0600 C.2   255  PRO255      0.2440
    149  O        -15.6030  -12.3270   16.0710 O.2   255  PRO255     -0.2731
    150  CB       -18.0790  -10.6230   17.4770 C.3   255  PRO255      0.0310
    151  CG       -18.8000  -11.1290   16.2530 C.3   255  PRO255      0.0237
    152  CD       -18.2700  -10.2560   15.1330 C.3   255  PRO255      0.0939
    153  N        -15.2610  -11.9210   18.2550 N.am  256  PRO256     -0.2716
    154  CA       -14.5340  -13.1830   18.4160 C.3   256  PRO256      0.1536
    155  C        -15.4320  -14.3610   18.0840 C.2   256  PRO256      0.2598
    156  O        -16.6320  -14.2850   18.3420 O.2   256  PRO256     -0.2715
    157  CB       -14.1660  -13.1970   19.9110 C.3   256  PRO256      0.0310
    158  CG       -15.1380  -12.2610   20.5380 C.3   256  PRO256      0.0237
    159  CD       -15.3860  -11.1900   19.5260 C.3   256  PRO256      0.0939
    160  N        -14.8740  -15.4110   17.4920 N.am  257  TYR257     -0.1974
    161  CA       -15.6110  -16.6520   17.3190 C.3   257  TYR257      0.1639
    162  C        -15.1570  -17.6510   18.3950 C.2   257  TYR257      0.2290
    163  O        -15.8320  -18.6490   18.6480 O.2   257  TYR257     -0.2864
    164  CB       -15.4070  -17.2440   15.9200 C.3   257  TYR257      0.0560
    165  CG       -15.6940  -16.3040   14.7490 C.ar  257  TYR257     -0.0198
    166  CD1      -16.5600  -15.2200   14.8810 C.ar  257  TYR257     -0.0009
    167  CD2      -15.1080  -16.5240   13.5040 C.ar  257  TYR257     -0.0009
    168  CE1      -16.8150  -14.3670   13.8050 C.ar  257  TYR257      0.0417
    169  CE2      -15.3530  -15.6740   12.4250 C.ar  257  TYR257      0.0417
    170  CZ       -16.2170  -14.6030   12.5820 C.ar  257  TYR257      0.1957
    171  OH       -16.4600  -13.7590   11.5110 O.3   257  TYR257     -0.2866
    172  N        -16.5060  -15.6230   28.8660 N.3   258  ARG258     -0.1245
    173  CA       -17.9460  -15.8470   28.7780 C.3   258  ARG258      0.1563
    174  C        -18.2210  -16.9920   27.8100 C.2   258  ARG258      0.2260
    175  O        -17.3200  -17.4490   27.0960 O.2   258  ARG258     -0.2867
    176  CB       -18.6690  -14.5660   28.3250 C.3   258  ARG258      0.0307
    177  CG       -20.2050  -14.6480   28.3210 C.3   258  ARG258      0.0489
    178  CD       -20.8740  -13.3260   28.0140 C.3   258  ARG258      0.2205
    179  NE       -20.7130  -12.3260   29.0460 N.pl3 258  ARG258     -0.0865
    180  CZ       -19.8470  -11.3230   28.9780 C.cat 258  ARG258      0.5346
    181  NH1      -19.0410  -11.2100   27.9340 N.pl3 258  ARG258      0.1354
    182  NH2      -19.7720  -10.4450   29.9760 N.pl3 258  ARG258      0.1354
    183  N        -22.1780  -13.6140   25.1390 N.3   263  LEU263     -0.1245
    184  CA       -21.4630  -12.4260   24.6540 C.3   263  LEU263      0.1561
    185  C        -22.1810  -11.7730   23.4770 C.2   263  LEU263      0.2260
    186  O        -22.3660  -10.5540   23.4460 O.2   263  LEU263     -0.2867
    187  CB       -20.0330  -12.7870   24.2500 C.3   263  LEU263      0.0270
    188  CG       -19.2820  -11.6700   23.5140 C.3   263  LEU263      0.0019
    189  CD1      -19.0430  -10.4730   24.4210 C.3   263  LEU263      0.0001
    190  CD2      -17.9740  -12.1890   22.9280 C.3   263  LEU263      0.0001
@<TRIPOS>BOND
     1    23    24    1
     2    25    24    1
     3    25    26    2
     4    24    27    1
     5    17    18    2
     6    17    16    1
     7    27    28    1
     8    16    19    1
     9    16    15    1
    10    19    20    1
    11    12    11    2
    12    22    20    1
    13    20    21    1
    14    15    11   am
    15    70    69    2
    16    11    10    1
    17    74    73    2
    18    13    10    1
    19    13    14    1
    20    69    68    1
    21    69    71   am
    22    72    73    1
    23    72    71    1
    24    72    75    1
    25    10     9    1
    26    68    67    1
    27    76    75    1
    28    76    78    1
    29    77    75    1
    30     9     3   am
    31   171   170    1
    32     3     4    2
    33     3     2    1
    34     1     2    1
    35   145   143   ar
    36   143   144   ar
    37   143   142    1
    38     2     5    1
    39   169   170   ar
    40   169   167   ar
    41   142   139    1
    42   170   168   ar
    43   139   138    1
    44   139   140    1
    45   167   165   ar
    46   168   166   ar
    47     5     6    1
    48     5     7    1
    49    36    34   ar
    50     6     8    1
    51   165   166   ar
    52   165   164    1
    53   140   141    2
    54   140   146   am
    55   152   146    1
    56   152   151    1
    57    34    33    1
    58    34    35   ar
    59    33    30    1
    60    58    57    2
    61   146   147    1
    62   164   161    1
    63   149   148    2
    64    30    29    1
    65    30    31    1
    66   151   150    1
    67    57    56    1
    68    57    63   am
    69    65    64    1
    70    65    66    2
    71   147   148    1
    72   147   150    1
    73    56    59    1
    74    56    55    1
    75   148   153   am
    76    47    46    2
    77    64    63    1
    78    59    60    1
    79   161   160    1
    80   161   162    1
    81   160   155   am
    82    31    32    2
    83    31    37   am
    84    43    37    1
    85    43    42    1
    86    46    55   am
    87    46    45    1
    88   155   156    2
    89   155   154    1
    90   153   154    1
    91   153   159    1
    92    60    61    1
    93    37    38    1
    94   162   163    2
    95    61    62    1
    96   154   157    1
    97   120   119    1
    98    48    45    1
    99    48    49    1
   100    44    45    1
   101    44    39   am
   102    51    49   ar
   103    51    53   ar
   104    42    41    1
   105    49    50   ar
   106   159   158    1
   107   116   115    2
   108    38    39    1
   109    38    41    1
   110    53    54   ar
   111   157   158    1
   112    39    40    2
   113   119   118    1
   114    93    91   ar
   115    79    80    1
   116    50    52   ar
   117   117   114    1
   118   117   118    1
   119    82    81    2
   120   115   114    1
   121   114   113    1
   122    54    52   ar
   123    91    90    1
   124    91    92   ar
   125    81    80    1
   126    81    86   am
   127    90    87    1
   128    80    83    1
   129    83    85    1
   130    83    84    1
   131    86    87    1
   132    87    88    1
   133   137   134    1
   134   190   188    1
   135   186   185    2
   136   185   184    1
   137   188   187    1
   138   188   189    1
   139   136   135    2
   140   105   104    2
   141   134   135    1
   142   134   133    1
   143    88    94   am
   144    88    89    2
   145   187   184    1
   146   106   107    1
   147   106   103    1
   148    94    95    1
   149   107   108    1
   150   184   183    1
   151   133   127   am
   152   104   103    1
   153   102   103    1
   154   102    96   am
   155   100    98    1
   156   108   109    1
   157    95    96    1
   158    95    98    1
   159   109   110    2
   160   124   123    2
   161    96    97    2
   162    98    99    1
   163   127   128    2
   164   127   126    1
   165   121   122    1
   166   123   125   am
   167   123   122    1
   168   175   174    2
   169   126   125    1
   170   126   129    1
   171   110   112    1
   172   110   111    1
   173   131   130   ar
   174    99   101    1
   175   174   173    1
   176   181   180    1
   177   178   177    1
   178   178   179    1
   179   177   176    1
   180   176   173    1
   181   130   129    1
   182   130   132   ar
   183   173   172    1
   184   180   179    2
   185   180   182    1
