@<TRIPOS>MOLECULE
tmp/5e73A00.pdb
 129 129 0 0 0
SMALL
GASTEIGER

@<TRIPOS>ATOM
      1  N        -29.7830  -18.5880    3.2120 N.3    32  TRP32      -0.1228
      2  CA       -30.7660  -17.7890    2.4690 C.3    32  TRP32       0.1722
      3  C        -30.2520  -16.4620    1.8730 C.2    32  TRP32       0.2437
      4  O        -30.6770  -16.1100    0.7660 O.2    32  TRP32      -0.2733
      5  CB       -32.0250  -17.5050    3.3410 C.3    32  TRP32       0.0563
      6  CG       -31.7850  -16.8320    4.6840 C.ar   32  TRP32       0.0003
      7  CD1      -31.6220  -17.4460    5.9010 C.ar   32  TRP32       0.0946
      8  CD2      -31.7190  -15.4230    4.9380 C.ar   32  TRP32       0.0152
      9  NE1      -31.4380  -16.5050    6.8870 N.ar   32  TRP32      -0.2442
     10  CE2      -31.4900  -15.2550    6.3230 C.ar   32  TRP32       0.0810
     11  CE3      -31.8170  -14.2860    4.1280 C.ar   32  TRP32       0.0012
     12  CZ2      -31.3580  -13.9950    6.9130 C.ar   32  TRP32       0.0191
     13  CZ3      -31.6820  -13.0340    4.7150 C.ar   32  TRP32       0.0001
     14  CH2      -31.4570  -12.8990    6.0940 C.ar   32  TRP32       0.0015
     15  N        -29.3290  -15.7380    2.5500 N.am   33  PRO33      -0.2718
     16  CA       -28.9000  -14.4950    1.8820 C.3    33  PRO33       0.1535
     17  C        -28.0500  -14.7170    0.6330 C.2    33  PRO33       0.2599
     18  O        -27.8240  -13.7610   -0.1250 O.2    33  PRO33      -0.2715
     19  CB       -28.0460  -13.7940    2.9370 C.3    33  PRO33       0.0310
     20  CG       -28.3800  -14.4940    4.2710 C.3    33  PRO33       0.0237
     21  CD       -28.6660  -15.8980    3.8640 C.3    33  PRO33       0.0939
     22  N        -27.5810  -15.9500    0.4440 N.am   34  PHE34      -0.1960
     23  CA       -26.5460  -16.2630   -0.5410 C.3    34  PHE34       0.1771
     24  C        -27.0360  -17.1850   -1.6550 C.2    34  PHE34       0.2619
     25  O        -26.2490  -17.6160   -2.4800 O.2    34  PHE34      -0.2715
     26  CB       -25.3360  -16.8980    0.1760 C.3    34  PHE34       0.0574
     27  CG       -24.9420  -16.1540    1.4280 C.ar   34  PHE34      -0.0200
     28  CD1      -24.4820  -14.8520    1.3460 C.ar   34  PHE34      -0.0042
     29  CD2      -25.0920  -16.7330    2.6870 C.ar   34  PHE34      -0.0042
     30  CE1      -24.1570  -14.1370    2.4920 C.ar   34  PHE34      -0.0003
     31  CE2      -24.7640  -16.0200    3.8440 C.ar   34  PHE34      -0.0003
     32  CZ       -24.2960  -14.7250    3.7450 C.ar   34  PHE34      -0.0000
     33  N        -28.3330  -17.4790   -1.6830 N.am   35  LEU35      -0.1963
     34  CA       -28.8440  -18.4770   -2.6240 C.3    35  LEU35       0.1728
     35  C        -28.9950  -17.9090   -4.0330 C.2    35  LEU35       0.2616
     36  O        -28.9530  -18.6570   -5.0080 O.2    35  LEU35      -0.2715
     37  CB       -30.1810  -19.0380   -2.1430 C.3    35  LEU35       0.0311
     38  CG       -30.0570  -19.8530   -0.8470 C.3    35  LEU35       0.0022
     39  CD1      -31.4170  -20.4020   -0.4280 C.3    35  LEU35       0.0001
     40  CD2      -29.0460  -20.9800   -1.0240 C.3    35  LEU35       0.0001
     41  N        -29.1740  -16.5920   -4.1280 N.am   36  LEU36      -0.1964
     42  CA       -29.3780  -15.9110   -5.4170 C.3    36  LEU36       0.1713
     43  C        -28.5140  -14.6590   -5.4490 C.2    36  LEU36       0.2458
     44  O        -28.0900  -14.1750   -4.4090 O.2    36  LEU36      -0.2730
     45  CB       -30.8590  -15.5480   -5.6190 C.3    36  LEU36       0.0310
     46  CG       -31.8550  -16.6960   -5.7910 C.3    36  LEU36       0.0022
     47  CD1      -33.2830  -16.1800   -5.8360 C.3    36  LEU36       0.0001
     48  CD2      -31.5310  -17.4780   -7.0590 C.3    36  LEU36       0.0001
     49  N        -28.2510  -14.1130   -6.6400 N.am   37  PRO37      -0.2716
     50  CA       -27.4520  -12.8820   -6.6610 C.3    37  PRO37       0.1536
     51  C        -28.1450  -11.7260   -5.9410 C.2    37  PRO37       0.2598
     52  O        -29.3790  -11.6270   -5.9640 O.2    37  PRO37      -0.2715
     53  CB       -27.3350  -12.5580   -8.1510 C.3    37  PRO37       0.0310
     54  CG       -27.5740  -13.8800   -8.8530 C.3    37  PRO37       0.0237
     55  CD       -28.5670  -14.6090   -7.9920 C.3    37  PRO37       0.0939
     56  N        -27.3580  -10.8600   -5.3220 N.am   38  VAL38      -0.1964
     57  CA       -27.8980   -9.6140   -4.7830 C.3    38  VAL38       0.1727
     58  C        -28.5170   -8.8250   -5.9190 C.2    38  VAL38       0.2616
     59  O        -27.9260   -8.7340   -7.0050 O.2    38  VAL38      -0.2715
     60  CB       -26.8070   -8.7790   -4.0940 C.3    38  VAL38       0.0290
     61  CG1      -27.3640   -7.4130   -3.6520 C.3    38  VAL38       0.0023
     62  CG2      -26.2190   -9.5480   -2.9160 C.3    38  VAL38       0.0023
     63  N        -29.7120   -8.2750   -5.6940 N.am   39  ASN39      -0.1972
     64  CA       -30.3920   -7.5300   -6.7450 C.3    39  ASN39       0.1688
     65  C        -29.7610   -6.1490   -6.9120 C.2    39  ASN39       0.2292
     66  O        -29.9810   -5.2420   -6.0980 O.2    39  ASN39      -0.2864
     67  CB       -31.8870   -7.4140   -6.4420 C.3    39  ASN39       0.1181
     68  CG       -32.6870   -6.8670   -7.6210 C.2    39  ASN39       0.2629
     69  OD1      -32.2240   -5.9990   -8.3630 O.2    39  ASN39      -0.2716
     70  ND2      -33.8940   -7.3770   -7.7950 N.am   39  ASN39      -0.0877
     71  N        -30.8350   -2.7770   -4.6230 N.3    43  VAL43      -0.1245
     72  CA       -30.0100   -2.5400   -3.4420 C.3    43  VAL43       0.1561
     73  C        -29.0080   -1.4110   -3.6940 C.2    43  VAL43       0.2260
     74  O        -27.9710   -1.6160   -4.3320 O.2    43  VAL43      -0.2867
     75  CB       -29.2600   -3.8060   -3.0040 C.3    43  VAL43       0.0252
     76  CG1      -28.4750   -3.5300   -1.7290 C.3    43  VAL43       0.0019
     77  CG2      -30.2380   -4.9460   -2.7820 C.3    43  VAL43       0.0019
     78  N        -24.7100   -1.3590   -3.8140 N.3    46  TYR46      -0.1241
     79  CA       -24.0880   -2.6690   -3.9930 C.3    46  TYR46       0.1605
     80  C        -23.2790   -2.7820   -5.2840 C.2    46  TYR46       0.2264
     81  O        -22.1330   -3.2280   -5.2590 O.2    46  TYR46      -0.2867
     82  CB       -25.1260   -3.7940   -3.9480 C.3    46  TYR46       0.0534
     83  CG       -24.4770   -5.0910   -3.5350 C.ar   46  TYR46      -0.0201
     84  CD1      -23.9650   -5.9710   -4.4830 C.ar   46  TYR46      -0.0009
     85  CD2      -24.3310   -5.4150   -2.1900 C.ar   46  TYR46      -0.0009
     86  CE1      -23.3310   -7.1430   -4.1060 C.ar   46  TYR46       0.0417
     87  CE2      -23.7060   -6.5960   -1.8030 C.ar   46  TYR46       0.0417
     88  CZ       -23.2100   -7.4550   -2.7720 C.ar   46  TYR46       0.1957
     89  OH       -22.5770   -8.6230   -2.4140 O.3    46  TYR46      -0.2866
     90  N        -18.0380  -14.7870   -1.7380 N.3    81  VAL81      -0.1245
     91  CA       -19.3900  -14.5950   -1.2120 C.3    81  VAL81       0.1561
     92  C        -19.3480  -13.9880    0.1880 C.2    81  VAL81       0.2260
     93  O        -20.0460  -13.0140    0.4770 O.2    81  VAL81      -0.2867
     94  CB       -20.1640  -15.9180   -1.1480 C.3    81  VAL81       0.0252
     95  CG1      -21.5730  -15.7140   -0.5240 C.3    81  VAL81       0.0019
     96  CG2      -20.2880  -16.4980   -2.5530 C.3    81  VAL81       0.0019
     97  N        -20.0810  -10.1710    1.6650 N.3    85  CYS85      -0.1235
     98  CA       -21.0790  -10.0300    2.7220 C.3    85  CYS85       0.1677
     99  C        -20.5390   -9.1710    3.8570 C.2    85  CYS85       0.2270
    100  O        -21.2420   -8.3100    4.3930 O.2    85  CYS85      -0.2867
    101  CB       -21.5010  -11.4100    3.2470 C.3    85  CYS85       0.0956
    102  SG       -22.8060  -11.3690    4.5320 S.3    85  CYS85      -0.0801
    103  N        -20.3170   -5.3730    2.9640 N.3    88  PHE88      -0.1227
    104  CA       -21.5670   -4.6340    2.8320 C.3    88  PHE88       0.1736
    105  C        -22.4630   -4.6650    4.0750 C.2    88  PHE88       0.2595
    106  O        -23.3190   -3.7980    4.2600 O.2    88  PHE88      -0.2718
    107  CB       -22.3480   -5.1740    1.6370 C.3    88  PHE88       0.0547
    108  CG       -23.2560   -4.1560    1.0060 C.ar   88  PHE88      -0.0202
    109  CD1      -22.7410   -3.1760    0.1710 C.ar   88  PHE88      -0.0042
    110  CD2      -24.6210   -4.1820    1.2390 C.ar   88  PHE88      -0.0042
    111  CE1      -23.5710   -2.2350   -0.4160 C.ar   88  PHE88      -0.0003
    112  CE2      -25.4600   -3.2400    0.6460 C.ar   88  PHE88      -0.0003
    113  CZ       -24.9320   -2.2730   -0.1840 C.ar   88  PHE88      -0.0000
    114  N        -22.2820   -5.6670    4.9200 N.am   89  ASN89      -0.1974
    115  CA       -23.2060   -5.8830    6.0240 C.3    89  ASN89       0.1688
    116  C        -22.5410   -5.7260    7.3770 C.2    89  ASN89       0.2292
    117  O        -21.3970   -6.1360    7.5680 O.2    89  ASN89      -0.2864
    118  CB       -23.8430   -7.2730    5.9220 C.3    89  ASN89       0.1181
    119  CG       -24.6920   -7.4400    4.6700 C.2    89  ASN89       0.2629
    120  OD1      -25.8540   -7.0400    4.6380 O.2    89  ASN89      -0.2716
    121  ND2      -24.1170   -8.0460    3.6360 N.am   89  ASN89      -0.0877
    122  N        -27.9980  -10.8140    8.0360 N.3    95  ILE95      -0.1245
    123  CA       -27.1940  -11.2250    6.8970 C.3    95  ILE95       0.1561
    124  C        -25.7180  -11.2890    7.2780 C.2    95  ILE95       0.2260
    125  O        -25.0150  -12.2440    6.9080 O.2    95  ILE95      -0.2867
    126  CB       -27.3970  -10.2720    5.7000 C.3    95  ILE95       0.0252
    127  CG1      -28.8400  -10.3880    5.1960 C.3    95  ILE95       0.0019
    128  CG2      -26.3930  -10.5800    4.5800 C.3    95  ILE95       0.0019
    129  CD1      -29.1410   -9.5620    3.9620 C.3    95  ILE95       0.0001
@<TRIPOS>BOND
     1    54    53    1
     2    54    55    1
     3    69    68    2
     4    53    50    1
     5    55    49    1
     6    70    68   am
     7    68    67    1
     8    48    46    1
     9    59    58    2
    10    65    64    1
    11    65    66    2
    12    64    67    1
    13    64    63    1
    14    50    49    1
    15    50    51    1
    16    49    43   am
    17    52    51    2
    18    51    56   am
    19    58    63   am
    20    58    57    1
    21    47    46    1
    22    46    45    1
    23    45    42    1
    24    43    42    1
    25    43    44    2
    26    42    41    1
    27    56    57    1
    28    80    81    2
    29    80    79    1
    30    36    35    2
    31    57    60    1
    32    71    72    1
    33    84    86   ar
    34    84    83   ar
    35    74    73    2
    36    41    35   am
    37    86    88   ar
    38    60    61    1
    39    60    62    1
    40    35    34    1
    41    79    82    1
    42    79    78    1
    43    82    83    1
    44    73    72    1
    45    83    85   ar
    46    72    75    1
    47    75    77    1
    48    75    76    1
    49    88    89    1
    50    88    87   ar
    51    34    37    1
    52    34    33    1
    53    96    94    1
    54    25    24    2
    55    85    87   ar
    56    37    38    1
    57    90    91    1
    58    33    24   am
    59    24    23    1
    60    91    94    1
    61    91    92    1
    62    94    95    1
    63    40    38    1
    64    38    39    1
    65    23    26    1
    66    23    22    1
    67   111   113   ar
    68   111   109   ar
    69   113   112   ar
    70    18    17    2
    71   109   108   ar
    72    26    27    1
    73    92    93    2
    74    22    17   am
    75    17    16    1
    76   112   110   ar
    77     4     3    2
    78   108   110   ar
    79   108   107    1
    80    28    27   ar
    81    28    30   ar
    82    27    29   ar
    83   107   104    1
    84    97    98    1
    85     3     2    1
    86     3    15   am
    87    16    15    1
    88    16    19    1
    89     2     1    1
    90     2     5    1
    91    30    32   ar
    92    15    21    1
    93    29    31   ar
    94    98   101    1
    95    98    99    1
    96   104   103    1
    97   104   105    1
    98    19    20    1
    99   101   102    1
   100     5     6    1
   101   121   119   am
   102    32    31   ar
   103    99   100    2
   104    21    20    1
   105   129   127    1
   106   105   106    2
   107   105   114   am
   108    11    13   ar
   109    11     8   ar
   110   128   126    1
   111   120   119    2
   112   119   118    1
   113     6     8   ar
   114     6     7   ar
   115    13    14   ar
   116   114   115    1
   117     8    10   ar
   118   127   126    1
   119   126   123    1
   120     7     9   ar
   121   118   115    1
   122   115   116    1
   123    14    12   ar
   124    10     9   ar
   125    10    12   ar
   126   123   124    1
   127   123   122    1
   128   125   124    2
   129   116   117    2
