@<TRIPOS>MOLECULE
tmp/5e74A00.pdb
 137 137 0 0 0
SMALL
GASTEIGER

@<TRIPOS>ATOM
      1  N        -29.2270  -18.3720    2.7560 N.3    32  TRP32      -0.1228
      2  CA       -30.1310  -17.4970    2.0020 C.3    32  TRP32       0.1722
      3  C        -29.5410  -16.1570    1.4780 C.2    32  TRP32       0.2437
      4  O        -29.9210  -15.7230    0.3860 O.2    32  TRP32      -0.2733
      5  CB       -31.4030  -17.2190    2.8290 C.3    32  TRP32       0.0563
      6  CG       -31.1740  -16.6200    4.1950 C.ar   32  TRP32       0.0003
      7  CD1      -30.9940  -17.2930    5.3710 C.ar   32  TRP32       0.0946
      8  CD2      -31.1080  -15.2230    4.5080 C.ar   32  TRP32       0.0152
      9  NE1      -30.8180  -16.3950    6.4000 N.ar   32  TRP32      -0.2442
     10  CE2      -30.8820  -15.1280    5.9000 C.ar   32  TRP32       0.0810
     11  CE3      -31.2010  -14.0540    3.7560 C.ar   32  TRP32       0.0012
     12  CZ2      -30.7480  -13.8890    6.5420 C.ar   32  TRP32       0.0191
     13  CZ3      -31.0770  -12.8270    4.4010 C.ar   32  TRP32       0.0001
     14  CH2      -30.8500  -12.7570    5.7790 C.ar   32  TRP32       0.0015
     15  N        -28.5970  -15.5120    2.2070 N.am   33  PRO33      -0.2718
     16  CA       -28.0660  -14.2800    1.6080 C.3    33  PRO33       0.1535
     17  C        -27.1810  -14.4970    0.3750 C.2    33  PRO33       0.2599
     18  O        -26.8420  -13.5250   -0.2910 O.2    33  PRO33      -0.2715
     19  CB       -27.2170  -13.6730    2.7420 C.3    33  PRO33       0.0310
     20  CG       -27.6850  -14.3570    3.9960 C.3    33  PRO33       0.0237
     21  CD       -28.0130  -15.7480    3.5430 C.3    33  PRO33       0.0939
     22  N        -26.8090  -15.7440    0.0970 N.am   34  PHE34      -0.1960
     23  CA       -25.7310  -16.0430   -0.8400 C.3    34  PHE34       0.1771
     24  C        -26.2040  -16.8930   -2.0080 C.2    34  PHE34       0.2619
     25  O        -25.3960  -17.2950   -2.8340 O.2    34  PHE34      -0.2715
     26  CB       -24.5860  -16.7650   -0.1040 C.3    34  PHE34       0.0574
     27  CG       -24.1910  -16.0870    1.1790 C.ar   34  PHE34      -0.0200
     28  CD1      -23.6550  -14.8170    1.1470 C.ar   34  PHE34      -0.0042
     29  CD2      -24.3810  -16.7110    2.4110 C.ar   34  PHE34      -0.0042
     30  CE1      -23.3060  -14.1490    2.3260 C.ar   34  PHE34      -0.0003
     31  CE2      -24.0240  -16.0450    3.6110 C.ar   34  PHE34      -0.0003
     32  CZ       -23.4880  -14.7660    3.5530 C.ar   34  PHE34      -0.0000
     33  N        -27.4940  -17.2180   -2.0420 N.am   35  LEU35      -0.1963
     34  CA       -27.9850  -18.1960   -3.0110 C.3    35  LEU35       0.1728
     35  C        -28.0920  -17.5930   -4.3940 C.2    35  LEU35       0.2616
     36  O        -27.9850  -18.3120   -5.3880 O.2    35  LEU35      -0.2715
     37  CB       -29.3440  -18.7450   -2.5860 C.3    35  LEU35       0.0311
     38  CG       -29.3050  -19.6790   -1.3680 C.3    35  LEU35       0.0022
     39  CD1      -30.7050  -20.0610   -0.9190 C.3    35  LEU35       0.0001
     40  CD2      -28.4810  -20.9200   -1.7210 C.3    35  LEU35       0.0001
     41  N        -28.3220  -16.2850   -4.4510 N.am   36  LEU36      -0.1964
     42  CA       -28.5040  -15.5780   -5.7380 C.3    36  LEU36       0.1713
     43  C        -27.6300  -14.3360   -5.7820 C.2    36  LEU36       0.2458
     44  O        -27.2290  -13.8410   -4.7280 O.2    36  LEU36      -0.2730
     45  CB       -29.9750  -15.1920   -5.9290 C.3    36  LEU36       0.0310
     46  CG       -30.9730  -16.3470   -6.0860 C.3    36  LEU36       0.0022
     47  CD1      -32.3850  -15.7870   -6.2110 C.3    36  LEU36       0.0001
     48  CD2      -30.6300  -17.1960   -7.2990 C.3    36  LEU36       0.0001
     49  N        -27.3490  -13.8040   -6.9900 N.am   37  PRO37      -0.2716
     50  CA       -26.5410  -12.5820   -7.0610 C.3    37  PRO37       0.1536
     51  C        -27.2050  -11.4310   -6.3240 C.2    37  PRO37       0.2598
     52  O        -28.4370  -11.3230   -6.3290 O.2    37  PRO37      -0.2715
     53  CB       -26.4630  -12.2840   -8.5750 C.3    37  PRO37       0.0310
     54  CG       -26.7480  -13.5490   -9.2230 C.3    37  PRO37       0.0237
     55  CD       -27.6770  -14.3230   -8.3310 C.3    37  PRO37       0.0939
     56  N        -26.4090  -10.5930   -5.6720 N.am   38  VAL38      -0.1964
     57  CA       -26.9570   -9.3700   -5.0960 C.3    38  VAL38       0.1727
     58  C        -27.5360   -8.5340   -6.2210 C.2    38  VAL38       0.2616
     59  O        -26.9300   -8.4260   -7.2900 O.2    38  VAL38      -0.2715
     60  CB       -25.8960   -8.5780   -4.3170 C.3    38  VAL38       0.0290
     61  CG1      -26.4610   -7.2190   -3.8330 C.3    38  VAL38       0.0023
     62  CG2      -25.3880   -9.4110   -3.1290 C.3    38  VAL38       0.0023
     63  N        -28.7240   -7.9760   -6.0040 N.am   39  ASN39      -0.1972
     64  CA       -29.3900   -7.2190   -7.0610 C.3    39  ASN39       0.1688
     65  C        -28.7650   -5.8370   -7.1880 C.2    39  ASN39       0.2292
     66  O        -28.9830   -4.9690   -6.3420 O.2    39  ASN39      -0.2864
     67  CB       -30.8950   -7.1180   -6.7850 C.3    39  ASN39       0.1181
     68  CG       -31.6680   -6.5200   -7.9450 C.2    39  ASN39       0.2629
     69  OD1      -31.1900   -5.6160   -8.6260 O.2    39  ASN39      -0.2716
     70  ND2      -32.8690   -7.0310   -8.1790 N.am   39  ASN39      -0.0877
     71  N        -31.0550   -2.7990   -7.2180 N.3    42  LEU42      -0.1231
     72  CA       -31.8850   -2.5110   -6.0510 C.3    42  LEU42       0.1693
     73  C        -31.0820   -2.2610   -4.7790 C.2    42  LEU42       0.2591
     74  O        -31.6290   -1.7900   -3.7860 O.2    42  LEU42      -0.2718
     75  CB       -32.8790   -3.6470   -5.8160 C.3    42  LEU42       0.0284
     76  CG       -33.8890   -3.8640   -6.9460 C.3    42  LEU42       0.0019
     77  CD1      -34.9380   -4.8900   -6.5430 C.3    42  LEU42       0.0001
     78  CD2      -34.5420   -2.5520   -7.3580 C.3    42  LEU42       0.0001
     79  N        -29.7900   -2.5660   -4.8010 N.am   43  VAL43      -0.1980
     80  CA       -28.9610   -2.3370   -3.6210 C.3    43  VAL43       0.1595
     81  C        -27.9440   -1.2120   -3.8590 C.2    43  VAL43       0.2287
     82  O        -26.9170   -1.4180   -4.5060 O.2    43  VAL43      -0.2864
     83  CB       -28.2220   -3.6210   -3.2040 C.3    43  VAL43       0.0276
     84  CG1      -27.3690   -3.3630   -1.9680 C.3    43  VAL43       0.0022
     85  CG2      -29.2210   -4.7450   -2.9490 C.3    43  VAL43       0.0022
     86  N        -23.6360   -1.2770   -3.9440 N.3    46  TYR46      -0.1241
     87  CA       -23.0390   -2.6030   -4.0980 C.3    46  TYR46       0.1605
     88  C        -22.1980   -2.7280   -5.3630 C.2    46  TYR46       0.2264
     89  O        -21.0630   -3.2020   -5.3000 O.2    46  TYR46      -0.2867
     90  CB       -24.1030   -3.6930   -4.0730 C.3    46  TYR46       0.0534
     91  CG       -23.5010   -5.0160   -3.6620 C.ar   46  TYR46      -0.0201
     92  CD1      -23.0060   -5.9110   -4.6080 C.ar   46  TYR46      -0.0009
     93  CD2      -23.3830   -5.3500   -2.3200 C.ar   46  TYR46      -0.0009
     94  CE1      -22.4210   -7.1190   -4.2220 C.ar   46  TYR46       0.0417
     95  CE2      -22.8080   -6.5620   -1.9270 C.ar   46  TYR46       0.0417
     96  CZ       -22.3230   -7.4330   -2.8840 C.ar   46  TYR46       0.1957
     97  OH       -21.7520   -8.6280   -2.4900 O.3    46  TYR46      -0.2866
     98  N        -17.2010  -14.9290   -1.8700 N.3    81  VAL81      -0.1245
     99  CA       -18.5580  -14.6950   -1.3750 C.3    81  VAL81       0.1561
    100  C        -18.5200  -14.1260    0.0540 C.2    81  VAL81       0.2260
    101  O        -19.1860  -13.1380    0.3650 O.2    81  VAL81      -0.2867
    102  CB       -19.4070  -15.9670   -1.3880 C.3    81  VAL81       0.0252
    103  CG1      -20.7730  -15.7060   -0.7430 C.3    81  VAL81       0.0019
    104  CG2      -19.5730  -16.4940   -2.8390 C.3    81  VAL81       0.0019
    105  N        -19.1510  -10.2790    1.5900 N.3    85  CYS85      -0.1235
    106  CA       -20.1400  -10.1330    2.6460 C.3    85  CYS85       0.1677
    107  C        -19.5750   -9.3250    3.8140 C.2    85  CYS85       0.2270
    108  O        -20.2610   -8.4650    4.3690 O.2    85  CYS85      -0.2867
    109  CB       -20.6140  -11.5140    3.1240 C.3    85  CYS85       0.0956
    110  SG       -21.8610  -11.4880    4.4390 S.3    85  CYS85      -0.0801
    111  N        -19.3140   -5.5370    2.9910 N.3    88  PHE88      -0.1227
    112  CA       -20.5360   -4.7500    2.8300 C.3    88  PHE88       0.1736
    113  C        -21.4750   -4.8230    4.0200 C.2    88  PHE88       0.2595
    114  O        -22.4550   -4.0730    4.0880 O.2    88  PHE88      -0.2718
    115  CB       -21.2970   -5.2000    1.5780 C.3    88  PHE88       0.0547
    116  CG       -22.1520   -4.1170    0.9560 C.ar   88  PHE88      -0.0202
    117  CD1      -21.5780   -3.1360    0.1660 C.ar   88  PHE88      -0.0042
    118  CD2      -23.5280   -4.0950    1.1450 C.ar   88  PHE88      -0.0042
    119  CE1      -22.3560   -2.1450   -0.4320 C.ar   88  PHE88      -0.0003
    120  CE2      -24.3030   -3.1090    0.5640 C.ar   88  PHE88      -0.0003
    121  CZ       -23.7230   -2.1370   -0.2260 C.ar   88  PHE88      -0.0000
    122  N        -21.2000   -5.7310    4.9510 N.am   89  ASN89      -0.1974
    123  CA       -22.1090   -5.9310    6.0670 C.3    89  ASN89       0.1688
    124  C        -21.4030   -5.7640    7.4000 C.2    89  ASN89       0.2292
    125  O        -20.2610   -6.1900    7.5750 O.2    89  ASN89      -0.2864
    126  CB       -22.7550   -7.3270    5.9790 C.3    89  ASN89       0.1181
    127  CG       -23.6550   -7.4860    4.7570 C.2    89  ASN89       0.2629
    128  OD1      -24.8100   -7.0710    4.7660 O.2    89  ASN89      -0.2716
    129  ND2      -23.1290   -8.1150    3.7070 N.am   89  ASN89      -0.0877
    130  N        -27.0130  -10.8220    8.2230 N.3    95  ILE95      -0.1245
    131  CA       -26.2030  -11.2430    7.0860 C.3    95  ILE95       0.1561
    132  C        -24.7200  -11.3050    7.4470 C.2    95  ILE95       0.2260
    133  O        -24.0030  -12.2010    6.9880 O.2    95  ILE95      -0.2867
    134  CB       -26.4250  -10.3060    5.8750 C.3    95  ILE95       0.0252
    135  CG1      -27.8500  -10.4890    5.3540 C.3    95  ILE95       0.0019
    136  CG2      -25.4050  -10.5680    4.7780 C.3    95  ILE95       0.0019
    137  CD1      -28.2200   -9.5580    4.2130 C.3    95  ILE95       0.0001
@<TRIPOS>BOND
     1    54    53    1
     2    54    55    1
     3    69    68    2
     4    53    50    1
     5    55    49    1
     6    70    68   am
     7    68    67    1
     8    78    76    1
     9    48    46    1
    10    59    58    2
    11    71    72    1
    12    65    64    1
    13    65    66    2
    14    64    67    1
    15    64    63    1
    16    50    49    1
    17    50    51    1
    18    49    43   am
    19    76    77    1
    20    76    75    1
    21    52    51    2
    22    51    56   am
    23    58    63   am
    24    58    57    1
    25    47    46    1
    26    46    45    1
    27    72    75    1
    28    72    73    1
    29    45    42    1
    30    43    42    1
    31    43    44    2
    32    42    41    1
    33    56    57    1
    34    36    35    2
    35    88    89    2
    36    88    87    1
    37    57    60    1
    38    79    73   am
    39    79    80    1
    40    73    74    2
    41    92    94   ar
    42    92    91   ar
    43    82    81    2
    44    41    35   am
    45    35    34    1
    46    60    61    1
    47    60    62    1
    48    94    96   ar
    49    87    90    1
    50    87    86    1
    51    90    91    1
    52    81    80    1
    53    91    93   ar
    54    80    83    1
    55    83    85    1
    56    83    84    1
    57    34    37    1
    58    34    33    1
    59    96    97    1
    60    96    95   ar
    61   104   102    1
    62    25    24    2
    63    37    38    1
    64    93    95   ar
    65    33    24   am
    66    24    23    1
    67    98    99    1
    68    40    38    1
    69   102    99    1
    70   102   103    1
    71    99   100    1
    72    38    39    1
    73    23    26    1
    74    23    22    1
    75   119   121   ar
    76   119   117   ar
    77    18    17    2
    78   121   120   ar
    79    26    27    1
    80   100   101    2
    81    22    17   am
    82   117   116   ar
    83    17    16    1
    84     4     3    2
    85   120   118   ar
    86   116   118   ar
    87   116   115    1
    88    28    27   ar
    89    28    30   ar
    90    27    29   ar
    91     3     2    1
    92     3    15   am
    93   115   112    1
    94   105   106    1
    95    16    15    1
    96    16    19    1
    97     2     1    1
    98     2     5    1
    99    15    21    1
   100    30    32   ar
   101    29    31   ar
   102   106   109    1
   103   106   107    1
   104    19    20    1
   105     5     6    1
   106   112   111    1
   107   112   113    1
   108   109   110    1
   109    21    20    1
   110    32    31   ar
   111   129   127   am
   112    11    13   ar
   113    11     8   ar
   114   107   108    2
   115   113   114    2
   116   113   122   am
   117     6     8   ar
   118     6     7   ar
   119   137   135    1
   120    13    14   ar
   121     8    10   ar
   122   127   128    2
   123   127   126    1
   124   136   134    1
   125   122   123    1
   126   135   134    1
   127     7     9   ar
   128    14    12   ar
   129   134   131    1
   130    10     9   ar
   131    10    12   ar
   132   126   123    1
   133   123   124    1
   134   133   132    2
   135   131   132    1
   136   131   130    1
   137   124   125    2
