@<TRIPOS>MOLECULE
tmp/5e75A02.pdb
 88 87 0 0 0
SMALL
GASTEIGER

@<TRIPOS>ATOM
      1  N         16.5430   46.9170   33.4170 N.3    35  ARG35      -0.1245
      2  CA        15.6240   45.8330   33.1270 C.3    35  ARG35       0.1563
      3  C         15.5520   44.8230   34.2730 C.2    35  ARG35       0.2260
      4  O         14.5450   44.1450   34.4340 O.2    35  ARG35      -0.2867
      5  CB        16.0150   45.1460   31.8220 C.3    35  ARG35       0.0307
      6  CG        14.9090   44.2820   31.2220 C.3    35  ARG35       0.0489
      7  CD        15.1540   44.1380   29.7590 C.3    35  ARG35       0.2205
      8  NE        14.2140   43.2700   29.0630 N.pl3  35  ARG35      -0.0865
      9  CZ        13.0120   43.6280   28.6310 C.cat  35  ARG35       0.5346
     10  NH1       12.5380   44.8410   28.8780 N.pl3  35  ARG35       0.1354
     11  NH2       12.2860   42.7630   27.9450 N.pl3  35  ARG35       0.1354
     12  N          8.6730   46.5820   30.9550 N.3    51  PHE51      -0.1227
     13  CA         8.4490   45.6540   29.8430 C.3    51  PHE51       0.1736
     14  C          7.5250   46.2200   28.7660 C.2    51  PHE51       0.2595
     15  O          6.5760   45.5660   28.3220 O.2    51  PHE51      -0.2718
     16  CB         7.9800   44.2760   30.3330 C.3    51  PHE51       0.0547
     17  CG         9.0280   43.5300   31.1010 C.ar   51  PHE51      -0.0202
     18  CD1        9.9470   42.7310   30.4410 C.ar   51  PHE51      -0.0042
     19  CD2        9.1160   43.6480   32.4710 C.ar   51  PHE51      -0.0042
     20  CE1       10.9290   42.0600   31.1330 C.ar   51  PHE51      -0.0003
     21  CE2       10.0850   42.9670   33.1900 C.ar   51  PHE51      -0.0003
     22  CZ        11.0060   42.1770   32.5170 C.ar   51  PHE51      -0.0000
     23  N          7.8280   47.4380   28.3370 N.am   52  GLN52      -0.1965
     24  CA         7.0740   48.0830   27.2720 C.3    52  GLN52       0.1733
     25  C          7.9870   48.6470   26.1780 C.2    52  GLN52       0.2616
     26  O          7.6710   49.6360   25.5320 O.2    52  GLN52      -0.2715
     27  CB         6.1890   49.1740   27.8610 C.3    52  GLN52       0.0408
     28  CG         5.1770   48.6390   28.8670 C.3    52  GLN52       0.0908
     29  CD         4.4450   49.7370   29.5940 C.2    52  GLN52       0.2608
     30  OE1        4.8670   50.1780   30.6570 O.2    52  GLN52      -0.2717
     31  NE2        3.3380   50.1910   29.0180 N.am   52  GLN52      -0.0878
     32  N          9.1120   47.9820   25.9460 N.am   53  VAL53      -0.1963
     33  CA        10.0650   48.4250   24.9320 C.3    53  VAL53       0.1727
     34  C          9.5330   48.1690   23.5190 C.2    53  VAL53       0.2616
     35  O          8.9440   47.1260   23.2490 O.2    53  VAL53      -0.2715
     36  CB        11.4210   47.7150   25.1010 C.3    53  VAL53       0.0290
     37  CG1       12.4420   48.2210   24.0660 C.3    53  VAL53       0.0023
     38  CG2       11.9610   47.9190   26.4940 C.3    53  VAL53       0.0023
     39  N          9.7260   49.1410   22.6330 N.am   54  THR54      -0.1951
     40  CA         9.3660   48.9820   21.2260 C.3    54  THR54       0.1897
     41  C         10.6190   48.7510   20.3930 C.2    54  THR54       0.2313
     42  O         11.7370   49.0600   20.8100 O.2    54  THR54      -0.2863
     43  CB         8.6440   50.2070   20.6560 C.3    54  THR54       0.1794
     44  OG1        9.5920   51.2510   20.4060 O.3    54  THR54      -0.2208
     45  CG2        7.5740   50.7120   21.6070 C.3    54  THR54       0.0378
     46  N          6.7190   36.0210   26.5040 N.3   478  GLU478     -0.1231
     47  CA         7.0050   36.7520   25.2760 C.3   478  GLU478      0.1699
     48  C          7.6520   38.1170   25.5290 C.2   478  GLU478      0.2592
     49  O          8.2470   38.6970   24.6240 O.2   478  GLU478     -0.2718
     50  CB         5.7280   36.9540   24.4420 C.3   478  GLU478      0.0402
     51  CG         5.1110   35.6860   23.8440 C.3   478  GLU478      0.1161
     52  CD         4.5520   34.7000   24.8770 C.2   478  GLU478      0.3649
     53  OE1        4.0470   35.1130   25.9630 O.co2 478  GLU478     -0.2457
     54  OE2        4.6220   33.4840   24.5860 O.co2 478  GLU478     -0.2457
     55  N          7.5660   38.6210   26.7560 N.am  479  ASP479     -0.1974
     56  CA         8.1260   39.9260   27.0900 C.3   479  ASP479      0.1709
     57  C          9.6160   39.9190   27.4000 C.2   479  ASP479      0.2293
     58  O         10.2600   40.9700   27.3730 O.2   479  ASP479     -0.2864
     59  CB         7.3980   40.5300   28.2970 C.3   479  ASP479      0.1436
     60  CG         5.9460   40.8520   28.0040 C.2   479  ASP479      0.3671
     61  OD1        5.6990   41.7300   27.1570 O.co2 479  ASP479     -0.2456
     62  OD2        5.0460   40.2400   28.6340 O.co2 479  ASP479     -0.2456
     63  N         12.6870   38.3770   26.2230 N.3   481  PHE481     -0.1227
     64  CA        13.6800   38.6900   25.2080 C.3   481  PHE481      0.1736
     65  C         13.2200   39.9040   24.4160 C.2   481  PHE481      0.2595
     66  O         12.0350   40.0550   24.1030 O.2   481  PHE481     -0.2718
     67  CB        13.9280   37.4660   24.3320 C.3   481  PHE481      0.0547
     68  CG        14.6980   36.3770   25.0370 C.ar  481  PHE481     -0.0202
     69  CD1       14.0830   35.4620   25.8800 C.ar  481  PHE481     -0.0042
     70  CD2       16.0660   36.3030   24.8760 C.ar  481  PHE481     -0.0042
     71  CE1       14.8300   34.4860   26.5180 C.ar  481  PHE481     -0.0003
     72  CE2       16.8040   35.3430   25.4850 C.ar  481  PHE481     -0.0003
     73  CZ        16.1920   34.4300   26.3270 C.ar  481  PHE481     -0.0000
     74  N         14.1600   40.7950   24.1230 N.am  482  LEU482     -0.1966
     75  CA        13.8680   42.0500   23.4440 C.3   482  LEU482      0.1713
     76  C         13.7530   41.8690   21.9310 C.2   482  LEU482      0.2458
     77  O         14.2890   40.9310   21.3770 O.2   482  LEU482     -0.2730
     78  CB        14.9590   43.0630   23.7900 C.3   482  LEU482      0.0310
     79  CG        14.7870   43.5970   25.2240 C.3   482  LEU482      0.0022
     80  CD1       16.0640   44.1580   25.8470 C.3   482  LEU482      0.0001
     81  CD2       13.6870   44.6420   25.2560 C.3   482  LEU482      0.0001
     82  N         13.0150   42.7660   21.2560 N.am  483  PRO483     -0.2727
     83  CA        12.8710   42.6710   19.8040 C.3   483  PRO483      0.1402
     84  C         14.1560   43.0760   19.0960 C.2   483  PRO483      0.2269
     85  O         14.9650   43.8280   19.6460 O.2   483  PRO483     -0.2865
     86  CB        11.7450   43.6600   19.4950 C.3   483  PRO483      0.0296
     87  CG        11.7650   44.6250   20.6010 C.3   483  PRO483      0.0237
     88  CD        12.2680   43.8950   21.8230 C.3   483  PRO483      0.0939
@<TRIPOS>BOND
     1    84    85    2
     2    84    83    1
     3    86    83    1
     4    86    87    1
     5    83    82    1
     6    41    42    2
     7    41    40    1
     8    44    43    1
     9    87    88    1
    10    43    40    1
    11    43    45    1
    12    40    39    1
    13    82    88    1
    14    82    76   am
    15    77    76    2
    16    76    75    1
    17    39    34   am
    18    35    34    2
    19    75    78    1
    20    75    74    1
    21    34    33    1
    22    78    79    1
    23    51    50    1
    24    51    52    1
    25    37    36    1
    26    66    65    2
    27    74    65   am
    28    67    68    1
    29    67    64    1
    30    65    64    1
    31    50    47    1
    32    54    52   ar
    33    49    48    2
    34    70    68   ar
    35    70    72   ar
    36    52    53   ar
    37    33    36    1
    38    33    32    1
    39    68    69   ar
    40    36    38    1
    41    64    63    1
    42    79    81    1
    43    79    80    1
    44    47    48    1
    45    47    46    1
    46    72    73   ar
    47    48    55   am
    48    26    25    2
    49    69    71   ar
    50    32    25   am
    51    25    24    1
    52    73    71   ar
    53    55    56    1
    54    56    57    1
    55    56    59    1
    56    61    60   ar
    57    24    27    1
    58    24    23    1
    59    58    57    2
    60    27    28    1
    61    11     9    1
    62    60    59    1
    63    60    62   ar
    64    15    14    2
    65    23    14   am
    66     9    10    1
    67     9     8    2
    68    14    13    1
    69    28    29    1
    70    31    29   am
    71     8     7    1
    72    29    30    2
    73     7     6    1
    74    13    16    1
    75    13    12    1
    76    16    17    1
    77    18    17   ar
    78    18    20   ar
    79    17    19   ar
    80    20    22   ar
    81     6     5    1
    82     5     2    1
    83    19    21   ar
    84    22    21   ar
    85     2     1    1
    86     2     3    1
    87     3     4    2
