@<TRIPOS>MOLECULE
tmp/5e7dC00.pdb
 111 106 0 0 0
SMALL
GASTEIGER

@<TRIPOS>ATOM
      1  N         27.9570   46.1860  -17.4710 N.3    31  ILE31      -0.1231
      2  CA        28.5010   44.9190  -17.9850 C.3    31  ILE31       0.1692
      3  C         28.9110   44.9690  -19.4890 C.2    31  ILE31       0.2592
      4  O         29.7570   44.1850  -19.9480 O.2    31  ILE31      -0.2718
      5  CB        27.5050   43.7550  -17.7090 C.3    31  ILE31       0.0266
      6  CG1       28.1780   42.3900  -17.8160 C.3    31  ILE31       0.0019
      7  CG2       26.2340   43.8570  -18.6090 C.3    31  ILE31       0.0020
      8  CD1       29.1540   42.1140  -16.6800 C.3    31  ILE31       0.0001
      9  N         28.3160   45.8920  -20.2470 N.am   32  PHE32      -0.1976
     10  CA        28.4710   45.9240  -21.6760 C.3    32  PHE32       0.1639
     11  C         29.6370   46.7780  -22.1180 C.2    32  PHE32       0.2290
     12  O         29.9610   46.7760  -23.2850 O.2    32  PHE32      -0.2864
     13  CB        27.1740   46.4180  -22.3310 C.3    32  PHE32       0.0560
     14  CG        25.9870   45.5220  -22.0820 C.ar   32  PHE32      -0.0200
     15  CD1       25.9000   44.2770  -22.6660 C.ar   32  PHE32      -0.0042
     16  CD2       24.9480   45.9360  -21.2750 C.ar   32  PHE32      -0.0042
     17  CE1       24.7960   43.4590  -22.4450 C.ar   32  PHE32      -0.0003
     18  CE2       23.8450   45.1090  -21.0410 C.ar   32  PHE32      -0.0003
     19  CZ        23.7710   43.8800  -21.6220 C.ar   32  PHE32      -0.0000
     20  N         33.9020   43.5440  -22.8890 N.3    35  LEU35      -0.1231
     21  CA        33.9580   42.0800  -22.7610 C.3    35  LEU35       0.1678
     22  C         35.2460   41.6600  -22.0630 C.2    35  LEU35       0.2434
     23  O         36.2810   42.3070  -22.2000 O.2    35  LEU35      -0.2733
     24  CB        33.9190   41.4040  -24.1390 C.3    35  LEU35       0.0284
     25  CG        32.5820   41.2780  -24.8640 C.3    35  LEU35       0.0019
     26  CD1       32.8520   40.9100  -26.3280 C.3    35  LEU35       0.0001
     27  CD2       31.7480   40.2180  -24.2120 C.3    35  LEU35       0.0001
     28  N         35.1840   40.5670  -21.3130 N.am   36  PRO36      -0.2729
     29  CA        36.4250   40.0000  -20.8500 C.3    36  PRO36       0.1401
     30  C         37.2670   39.5080  -22.0390 C.2    36  PRO36       0.2269
     31  O         36.7420   39.3330  -23.1350 O.2    36  PRO36      -0.2865
     32  CB        35.9750   38.8430  -19.9200 C.3    36  PRO36       0.0296
     33  CG        34.5140   38.9690  -19.7430 C.3    36  PRO36       0.0237
     34  CD        33.9810   39.8540  -20.8130 C.3    36  PRO36       0.0939
     35  N         37.4000   34.5690  -20.6950 N.3    41  LEU41      -0.1245
     36  CA        36.0820   33.9740  -20.9570 C.3    41  LEU41       0.1561
     37  C         36.0370   33.2810  -22.3400 C.2    41  LEU41       0.2260
     38  O         35.3460   33.7430  -23.2560 O.2    41  LEU41      -0.2867
     39  CB        35.0090   35.0590  -20.8510 C.3    41  LEU41       0.0270
     40  CG        33.5830   34.5620  -20.6160 C.3    41  LEU41       0.0019
     41  CD1       33.4590   33.9200  -19.2030 C.3    41  LEU41       0.0001
     42  CD2       32.6390   35.6990  -20.7170 C.3    41  LEU41       0.0001
     43  N         32.7630   32.4010  -24.3690 N.3    44  TYR44      -0.1241
     44  CA        31.9950   33.4570  -25.0550 C.3    44  TYR44       0.1605
     45  C         32.3820   33.5030  -26.5230 C.2    44  TYR44       0.2264
     46  O         31.5490   33.6440  -27.4200 O.2    44  TYR44      -0.2867
     47  CB        32.2410   34.8350  -24.4250 C.3    44  TYR44       0.0534
     48  CG        31.3710   35.9440  -24.9760 C.ar   44  TYR44      -0.0201
     49  CD1       31.7570   36.7050  -26.0960 C.ar   44  TYR44      -0.0009
     50  CD2       30.1400   36.2300  -24.3890 C.ar   44  TYR44      -0.0009
     51  CE1       30.9010   37.6990  -26.6140 C.ar   44  TYR44       0.0417
     52  CE2       29.3020   37.2310  -24.8870 C.ar   44  TYR44       0.0417
     53  CZ        29.6820   37.9550  -25.9970 C.ar   44  TYR44       0.1957
     54  OH        28.8310   38.9580  -26.4490 O.3    44  TYR44      -0.2866
     55  N         31.5100   42.3000  -29.8110 N.3    52  MET52      -0.1230
     56  CA        31.2600   43.7320  -29.7530 C.3    52  MET52       0.1702
     57  C         31.0540   44.1530  -28.2750 C.2    52  MET52       0.2592
     58  O         30.4390   43.4270  -27.5100 O.2    52  MET52      -0.2718
     59  CB        30.0160   44.0430  -30.5790 C.3    52  MET52       0.0401
     60  CG        29.6930   45.5060  -30.7560 C.3    52  MET52       0.0596
     61  SD        30.9700   46.4730  -31.6020 S.3    52  MET52      -0.1393
     62  CE        30.8400   45.7480  -33.2530 C.3    52  MET52       0.0692
     63  N         31.6300   45.2970  -27.8790 N.am   53  ASP53      -0.1974
     64  CA        31.2850   45.9760  -26.6020 C.3    53  ASP53       0.1709
     65  C         31.2210   47.5090  -26.8050 C.2    53  ASP53       0.2293
     66  O         31.4930   48.0040  -27.9020 O.2    53  ASP53      -0.2864
     67  CB        32.2500   45.5820  -25.4900 C.3    53  ASP53       0.1436
     68  CG        33.6680   45.8480  -25.8490 C.2    53  ASP53       0.3671
     69  OD1       34.5220   45.0250  -25.4550 O.co2  53  ASP53      -0.2456
     70  OD2       33.9330   46.8880  -26.5240 O.co2  53  ASP53      -0.2456
     71  N         25.6790   43.8740  -30.5250 N.3    79  MET79      -0.1245
     72  CA        26.0750   43.6360  -29.1210 C.3    79  MET79       0.1570
     73  C         24.9300   43.0710  -28.2780 C.2    79  MET79       0.2261
     74  O         25.1180   42.1200  -27.5050 O.2    79  MET79      -0.2867
     75  CB        26.5870   44.9400  -28.5070 C.3    79  MET79       0.0387
     76  CG        27.0740   44.7980  -27.0750 C.3    79  MET79       0.0595
     77  SD        27.6110   46.3710  -26.4140 S.3    79  MET79      -0.1393
     78  CE        25.9910   47.1100  -26.1620 C.3    79  MET79       0.0692
     79  N         24.5390   39.3090  -26.6110 N.3    83  ALA83      -0.1245
     80  CA        24.2280   39.1620  -25.1900 C.3    83  ALA83       0.1562
     81  C         23.0940   38.1930  -24.9990 C.2    83  ALA83       0.2260
     82  O         23.2110   37.3000  -24.1510 O.2    83  ALA83      -0.2867
     83  CB        23.9080   40.5410  -24.5260 C.3    83  ALA83       0.0290
     84  N         24.2950   34.5150  -25.7530 N.3    86  TYR86      -0.1227
     85  CA        25.1850   33.9180  -24.7720 C.3    86  TYR86       0.1736
     86  C         24.4970   33.6470  -23.4170 C.2    86  TYR86       0.2595
     87  O         24.6350   32.5510  -22.8340 O.2    86  TYR86      -0.2718
     88  CB        26.4490   34.7850  -24.6110 C.3    86  TYR86       0.0548
     89  CG        27.4460   34.2070  -23.6650 C.ar   86  TYR86      -0.0200
     90  CD1       28.2530   33.1400  -24.0330 C.ar   86  TYR86      -0.0009
     91  CD2       27.5780   34.7270  -22.3830 C.ar   86  TYR86      -0.0009
     92  CE1       29.1400   32.5910  -23.1340 C.ar   86  TYR86       0.0417
     93  CE2       28.4510   34.1850  -21.4820 C.ar   86  TYR86       0.0417
     94  CZ        29.2490   33.1430  -21.8660 C.ar   86  TYR86       0.1957
     95  OH        30.1420   32.6770  -20.9370 O.3    86  TYR86      -0.2866
     96  N         23.7360   34.6210  -22.9380 N.am   87  ASN87      -0.1974
     97  CA        23.1690   34.5550  -21.6090 C.3    87  ASN87       0.1688
     98  C         21.8080   33.9250  -21.6510 C.2    87  ASN87       0.2292
     99  O         21.1310   33.9780  -22.6630 O.2    87  ASN87      -0.2864
    100  CB        23.1150   35.9470  -20.9760 C.3    87  ASN87       0.1181
    101  CG        24.4750   36.6160  -20.9550 C.2    87  ASN87       0.2629
    102  OD1       25.2790   36.3790  -20.0620 O.2    87  ASN87      -0.2716
    103  ND2       24.7450   37.4310  -21.9580 N.am   87  ASN87      -0.0877
    104  N         21.7580   39.8900  -17.1760 N.3    93  ILE93      -0.1245
    105  CA        22.4800   40.4200  -18.3380 C.3    93  ILE93       0.1561
    106  C         21.5750   40.4330  -19.5820 C.2    93  ILE93       0.2260
    107  O         21.5430   41.4280  -20.3170 O.2    93  ILE93      -0.2867
    108  CB        23.8360   39.7400  -18.6070 C.3    93  ILE93       0.0252
    109  CG1       24.7750   39.9310  -17.3950 C.3    93  ILE93       0.0019
    110  CG2       24.4460   40.3800  -19.8710 C.3    93  ILE93       0.0019
    111  CD1       26.0810   39.0450  -17.4200 C.3    93  ILE93       0.0001
@<TRIPOS>BOND
     1    62    61    1
     2    61    60    1
     3    60    59    1
     4    59    56    1
     5    71    72    1
     6    55    56    1
     7    56    57    1
     8    72    75    1
     9    72    73    1
    10    75    76    1
    11    73    74    2
    12    57    63   am
    13    57    58    2
    14    66    65    2
    15    63    64    1
    16    46    45    2
    17    76    77    1
    18    65    64    1
    19    51    49   ar
    20    51    53   ar
    21    79    80    1
    22    64    67    1
    23    70    68   ar
    24    45    44    1
    25    54    53    1
    26    77    78    1
    27    26    25    1
    28    49    48   ar
    29    53    52   ar
    30    68    67    1
    31    68    69   ar
    32    84    85    1
    33    80    81    1
    34    80    83    1
    35    44    47    1
    36    44    43    1
    37    81    82    2
    38    48    47    1
    39    48    50   ar
    40    52    50   ar
    41    25    27    1
    42    25    24    1
    43    85    88    1
    44    85    86    1
    45    88    89    1
    46    24    21    1
    47    90    89   ar
    48    90    92   ar
    49    89    91   ar
    50    86    96   am
    51    86    87    2
    52    12    11    2
    53    38    37    2
    54    31    30    2
    55    92    94   ar
    56    96    97    1
    57    20    21    1
    58    21    22    1
    59    15    17   ar
    60    15    14   ar
    61    99    98    2
    62    17    19   ar
    63    91    93   ar
    64    37    36    1
    65    13    14    1
    66    13    10    1
    67    23    22    2
    68    11    10    1
    69    14    16   ar
    70    22    28   am
    71    30    29    1
    72   103   101   am
    73    94    93   ar
    74    94    95    1
    75    10     9    1
    76    98    97    1
    77    19    18   ar
    78    97   100    1
    79    28    29    1
    80    28    34    1
    81    16    18   ar
    82   100   101    1
    83    36    39    1
    84    36    35    1
    85   101   102    2
    86    39    40    1
    87    29    32    1
    88    34    33    1
    89    42    40    1
    90    40    41    1
    91   107   106    2
    92     9     3   am
    93     4     3    2
    94    32    33    1
    95   110   108    1
    96   106   105    1
    97     3     2    1
    98     7     5    1
    99   108   105    1
   100   108   109    1
   101   105   104    1
   102     2     5    1
   103     2     1    1
   104     6     5    1
   105     6     8    1
   106   111   109    1
