@<TRIPOS>MOLECULE
tmp/5e7jA00.pdb
 140 133 0 0 0
SMALL
GASTEIGER

@<TRIPOS>ATOM
      1  N         -5.1600   89.6600   -5.7440 N.3    22  GLY22      -0.1225
      2  CA        -5.5110   90.9970   -6.1860 C.3    22  GLY22       0.1811
      3  C         -6.5120   91.6830   -5.2750 C.2    22  GLY22       0.2280
      4  O         -7.1850   92.6310   -5.6800 O.2    22  GLY22      -0.2866
      5  N         -5.8310  105.9040    8.4240 N.3    39  PHE39      -0.1241
      6  CA        -6.1990  104.8600    9.3770 C.3    39  PHE39       0.1605
      7  C         -5.6220  105.1290   10.7650 C.2    39  PHE39       0.2264
      8  O         -6.1130  104.5990   11.7630 O.2    39  PHE39      -0.2867
      9  CB        -5.7310  103.4870    8.8870 C.3    39  PHE39       0.0534
     10  CG        -6.5130  102.9580    7.7200 C.ar   39  PHE39      -0.0203
     11  CD1       -7.8680  102.6920    7.8400 C.ar   39  PHE39      -0.0042
     12  CD2       -5.8910  102.7130    6.5050 C.ar   39  PHE39      -0.0042
     13  CE1       -8.5900  102.2010    6.7690 C.ar   39  PHE39      -0.0003
     14  CE2       -6.6060  102.2220    5.4300 C.ar   39  PHE39      -0.0003
     15  CZ        -7.9560  101.9640    5.5610 C.ar   39  PHE39      -0.0000
     16  N         -2.1840   95.7310    2.2880 N.3    56  ARG56      -0.1231
     17  CA        -1.6770   96.8340    1.4710 C.3    56  ARG56       0.1694
     18  C         -2.6700   97.9830    1.2910 C.2    56  ARG56       0.2592
     19  O         -2.5960   98.7220    0.3100 O.2    56  ARG56      -0.2718
     20  CB        -1.2420   96.3260    0.0930 C.3    56  ARG56       0.0321
     21  CG        -0.0130   95.4400    0.1120 C.3    56  ARG56       0.0489
     22  CD         0.5160   95.2290   -1.2940 C.3    56  ARG56       0.2205
     23  NE        -0.4470   94.5360   -2.1460 N.pl3  56  ARG56      -0.0865
     24  CZ        -0.5550   93.2140   -2.2350 C.cat  56  ARG56       0.5346
     25  NH1        0.2430   92.4300   -1.5220 N.pl3  56  ARG56       0.1354
     26  NH2       -1.4610   92.6740   -3.0390 N.pl3  56  ARG56       0.1354
     27  N         -3.5950   98.1410    2.2310 N.am   57  TYR57      -0.1962
     28  CA        -4.4650   99.3110    2.2190 C.3    57  TYR57       0.1771
     29  C         -3.6670  100.5240    2.6880 C.2    57  TYR57       0.2620
     30  O         -3.1670  100.5500    3.8130 O.2    57  TYR57      -0.2715
     31  CB        -5.6970   99.1010    3.1020 C.3    57  TYR57       0.0574
     32  CG        -6.6310   98.0080    2.6250 C.ar   57  TYR57      -0.0198
     33  CD1       -6.5970   97.5570    1.3120 C.ar   57  TYR57      -0.0009
     34  CD2       -7.5520   97.4310    3.4920 C.ar   57  TYR57      -0.0009
     35  CE1       -7.4510   96.5600    0.8770 C.ar   57  TYR57       0.0417
     36  CE2       -8.4100   96.4350    3.0650 C.ar   57  TYR57       0.0417
     37  CZ        -8.3550   96.0030    1.7580 C.ar   57  TYR57       0.1957
     38  OH        -9.2080   95.0110    1.3340 O.3    57  TYR57      -0.2866
     39  N         -3.5390  101.5220    1.8210 N.am   58  THR58      -0.1937
     40  CA        -2.7060  102.6820    2.1160 C.3    58  THR58       0.2028
     41  C         -3.5320  103.8670    2.6030 C.2    58  THR58       0.2642
     42  O         -3.0290  104.7350    3.3160 O.2    58  THR58      -0.2714
     43  CB        -1.8930  103.1180    0.8820 C.3    58  THR58       0.1808
     44  OG1       -2.7810  103.5890   -0.1390 O.3    58  THR58      -0.2208
     45  CG2       -1.0760  101.9530    0.3430 C.3    58  THR58       0.0379
     46  N         -4.8010  103.8990    2.2140 N.am   59  ARG59      -0.1977
     47  CA        -5.6780  105.0060    2.5720 C.3    59  ARG59       0.1597
     48  C         -7.1290  104.5410    2.6200 C.2    59  ARG59       0.2287
     49  O         -7.5530  103.7340    1.7940 O.2    59  ARG59      -0.2864
     50  CB        -5.5040  106.1600    1.5780 C.3    59  ARG59       0.0334
     51  CG        -6.7980  106.7620    1.0520 C.3    59  ARG59       0.0492
     52  CD        -6.5190  107.6890   -0.1190 C.3    59  ARG59       0.2205
     53  NE        -5.9600  106.9630   -1.2560 N.pl3  59  ARG59      -0.0865
     54  CZ        -5.1680  107.5050   -2.1740 C.cat  59  ARG59       0.5346
     55  NH1       -4.8340  108.7860   -2.0940 N.pl3  59  ARG59       0.1354
     56  NH2       -4.7070  106.7650   -3.1740 N.pl3  59  ARG59       0.1354
     57  N        -11.0670  104.3300    2.0960 N.3    61  THR61      -0.1218
     58  CA       -12.0200  104.7320    1.0690 C.3    61  THR61       0.1862
     59  C        -12.9710  105.7750    1.6570 C.2    61  THR61       0.2287
     60  O        -13.0220  105.9350    2.8780 O.2    61  THR61      -0.2866
     61  CB       -12.8180  103.5220    0.5380 C.3    61  THR61       0.1770
     62  OG1      -13.7050  103.0450    1.5570 O.3    61  THR61      -0.2211
     63  CG2      -11.8760  102.4020    0.1140 C.3    61  THR61       0.0375
     64  N        -15.1120  104.4880    4.3330 N.3    64  GLN64      -0.1245
     65  CA       -14.3290  104.1160    5.5050 C.3    64  GLN64       0.1566
     66  C        -13.9110  105.3450    6.2990 C.2    64  GLN64       0.2260
     67  O        -13.7590  105.2820    7.5180 O.2    64  GLN64      -0.2867
     68  CB       -13.1000  103.3090    5.0950 C.3    64  GLN64       0.0367
     69  CG       -13.4310  101.9340    4.5450 C.3    64  GLN64       0.0905
     70  CD       -12.2660  101.3000    3.8180 C.2    64  GLN64       0.2608
     71  OE1      -11.1900  101.8890    3.7160 O.2    64  GLN64      -0.2717
     72  NE2      -12.4750  100.0940    3.3030 N.am   64  GLN64      -0.0878
     73  N        -21.3620   98.3750   -3.8130 N.3    83  THR83      -0.1203
     74  CA       -20.2550   97.4430   -3.8870 C.3    83  THR83       0.1994
     75  C        -19.0140   98.0330   -4.5600 C.2    83  THR83       0.2618
     76  O        -19.1310   98.7310   -5.5580 O.2    83  THR83      -0.2717
     77  CB       -20.7030   96.2010   -4.6310 C.3    83  THR83       0.1784
     78  OG1      -21.9630   95.7910   -4.0960 O.3    83  THR83      -0.2211
     79  CG2      -19.7020   95.0900   -4.4300 C.3    83  THR83       0.0376
     80  N        -17.8310   97.7590   -4.0100 N.am   84  GLY84      -0.1942
     81  CA       -16.6020   98.3310   -4.5390 C.3    84  GLY84       0.2014
     82  C        -16.2290   99.6070   -3.8110 C.2    84  GLY84       0.2640
     83  O        -15.2250  100.2390   -4.1270 O.2    84  GLY84      -0.2714
     84  N        -17.0430   99.9880   -2.8320 N.am   85  SER85      -0.1935
     85  CA       -16.7680  101.1890   -2.0560 C.3    85  SER85       0.2055
     86  C        -15.8890  100.8830   -0.8470 C.2    85  SER85       0.2644
     87  O        -15.3950  101.7970   -0.1940 O.2    85  SER85      -0.2714
     88  CB       -18.0700  101.8530   -1.6050 C.3    85  SER85       0.2130
     89  OG       -18.8090  101.0030   -0.7460 O.3    85  SER85      -0.2179
     90  N        -15.6890   99.6000   -0.5550 N.am   86  GLY86      -0.1939
     91  CA       -14.8740   99.1940    0.5780 C.3    86  GLY86       0.2014
     92  C        -15.6530   99.1520    1.8800 C.2    86  GLY86       0.2639
     93  O        -15.0960   99.3780    2.9570 O.2    86  GLY86      -0.2714
     94  N        -16.9430   98.8490    1.7860 N.am   87  LYS87      -0.1963
     95  CA       -17.8080   98.8530    2.9600 C.3    87  LYS87       0.1728
     96  C        -17.5700   97.6490    3.8710 C.2    87  LYS87       0.2617
     97  O        -17.8510   97.7150    5.0670 O.2    87  LYS87      -0.2715
     98  CB       -19.2780   98.9080    2.5390 C.3    87  LYS87       0.0311
     99  CG       -19.7210   97.7570    1.6600 C.3    87  LYS87       0.0038
    100  CD       -21.0940   98.0220    1.0660 C.3    87  LYS87       0.0206
    101  CE       -21.4700   96.9480    0.0610 C.3    87  LYS87       0.1093
    102  NZ       -22.7500   96.2880    0.4210 N.3    87  LYS87      -0.1314
    103  N        -17.0550   96.5560    3.3130 N.am   88  THR88      -0.1937
    104  CA       -16.7580   95.3670    4.1100 C.3    88  THR88       0.2028
    105  C        -15.7220   95.6820    5.1830 C.2    88  THR88       0.2642
    106  O        -15.9370   95.4160    6.3680 O.2    88  THR88      -0.2714
    107  CB       -16.2380   94.2040    3.2420 C.3    88  THR88       0.1808
    108  OG1      -17.1700   93.9320    2.1880 O.3    88  THR88      -0.2208
    109  CG2      -16.0540   92.9550    4.0870 C.3    88  THR88       0.0379
    110  N        -14.6000   96.2580    4.7630 N.am   89  ALA89      -0.1977
    111  CA       -13.5460   96.6490    5.6900 C.3    89  ALA89       0.1597
    112  C        -14.0120   97.7890    6.5880 C.2    89  ALA89       0.2287
    113  O        -13.4780   97.9890    7.6780 O.2    89  ALA89      -0.2864
    114  CB       -12.2900   97.0520    4.9300 C.3    89  ALA89       0.0319
    115  N        -21.6080   86.5900   -1.2110 N.3   127  LEU127     -0.1245
    116  CA       -21.2670   87.7500   -0.3920 C.3   127  LEU127      0.1561
    117  C        -20.7760   87.3040    0.9820 C.2   127  LEU127      0.2260
    118  O        -19.8500   87.8930    1.5450 O.2   127  LEU127     -0.2867
    119  CB       -22.4610   88.6930   -0.2470 C.3   127  LEU127      0.0270
    120  CG       -22.1940   89.9660    0.5620 C.3   127  LEU127      0.0019
    121  CD1      -21.1800   90.8630   -0.1350 C.3   127  LEU127      0.0001
    122  CD2      -23.4790   90.7240    0.8280 C.3   127  LEU127      0.0001
    123  N        -12.3800   88.4780    4.0760 N.3   134  GLU134     -0.1245
    124  CA       -11.8540   89.7550    4.5380 C.3   134  GLU134      0.1567
    125  C        -11.6370   89.7100    6.0460 C.2   134  GLU134      0.2260
    126  O        -10.6780   90.2820    6.5620 O.2   134  GLU134     -0.2867
    127  CB       -12.8030   90.8970    4.1650 C.3   134  GLU134      0.0388
    128  CG       -12.2080   92.2920    4.3130 C.3   134  GLU134      0.1160
    129  CD       -11.4840   92.7630    3.0620 C.2   134  GLU134      0.3649
    130  OE1      -11.1120   91.9100    2.2290 O.co2 134  GLU134     -0.2457
    131  OE2      -11.2910   93.9890    2.9100 O.co2 134  GLU134     -0.2457
    132  N         -8.3850   87.9390    7.0420 N.3   137  LYS137     -0.1245
    133  CA        -7.2480   88.8350    6.8610 C.3   137  LYS137      0.1561
    134  C         -7.0100   89.7250    8.0770 C.2   137  LYS137      0.2260
    135  O         -5.8670   89.9720    8.4600 O.2   137  LYS137     -0.2867
    136  CB        -7.4520   89.7110    5.6240 C.3   137  LYS137      0.0271
    137  CG        -7.3770   88.9670    4.3010 C.3   137  LYS137      0.0035
    138  CD        -7.5120   89.9330    3.1340 C.3   137  LYS137      0.0206
    139  CE        -7.3680   89.2190    1.8010 C.3   137  LYS137      0.1093
    140  NZ        -7.5080   90.1630    0.6580 N.3   137  LYS137     -0.1314
@<TRIPOS>BOND
     1     2     1    1
     2     2     3    1
     3     4     3    2
     4    76    75    2
     5    77    79    1
     6    77    78    1
     7    77    74    1
     8    75    80   am
     9    75    74    1
    10    81    80    1
    11    81    82    1
    12    83    82    2
    13    74    73    1
    14    82    84   am
    15    56    54    1
    16    26    24    1
    17    84    85    1
    18    24    23    2
    19    24    25    1
    20    54    55    1
    21    54    53    2
    22    23    22    1
    23    85    88    1
    24    85    86    1
    25    88    89    1
    26    22    21    1
    27    53    52    1
    28   115   116    1
    29    86    90   am
    30    86    87    2
    31    90    91    1
    32   116   119    1
    33   116   117    1
    34   119   120    1
    35    44    43    1
    36   121   120    1
    37    52    51    1
    38   101   102    1
    39   101   100    1
    40    20    21    1
    41    20    17    1
    42    63    61    1
    43    19    18    2
    44    45    43    1
    45    61    58    1
    46    61    62    1
    47   120   122    1
    48    91    92    1
    49   140   139    1
    50    35    33   ar
    51    35    37   ar
    52    43    40    1
    53   117   118    2
    54    51    50    1
    55   100    99    1
    56    58    59    1
    57    58    57    1
    58    18    17    1
    59    18    27   am
    60    33    32   ar
    61    38    37    1
    62    17    16    1
    63    50    47    1
    64    59    60    2
    65    99    98    1
    66    37    36   ar
    67    94    92   am
    68    94    95    1
    69    49    48    2
    70   139   138    1
    71    39    40    1
    72    39    29   am
    73    92    93    2
    74    40    41    1
    75   108   107    1
    76    46    47    1
    77    46    41   am
    78    28    27    1
    79    28    29    1
    80    28    31    1
    81   130   129   ar
    82    98    95    1
    83    47    48    1
    84    41    42    2
    85    32    31    1
    86    32    34   ar
    87    29    30    2
    88   131   129   ar
    89    95    96    1
    90   129   128    1
    91    36    34   ar
    92   138   137    1
    93   107   109    1
    94   107   104    1
    95    72    70   am
    96   103    96   am
    97   103   104    1
    98    71    70    2
    99    70    69    1
   100    96    97    2
   101   123   124    1
   102   104   105    1
   103   127   128    1
   104   127   124    1
   105   137   136    1
   106    64    65    1
   107   124   125    1
   108    69    68    1
   109   110   105   am
   110   110   111    1
   111   114   111    1
   112    68    65    1
   113   105   106    2
   114    14    15   ar
   115    14    12   ar
   116    65    66    1
   117    15    13   ar
   118   136   133    1
   119   111   112    1
   120   125   126    2
   121    66    67    2
   122    12    10   ar
   123   112   113    2
   124    13    11   ar
   125   133   132    1
   126   133   134    1
   127    10    11   ar
   128    10     9    1
   129   134   135    2
   130     5     6    1
   131     9     6    1
   132     6     7    1
   133     7     8    2
