@<TRIPOS>MOLECULE
tmp/5e7mA00.pdb
 169 163 0 0 0
SMALL
GASTEIGER

@<TRIPOS>ATOM
      1  N        -48.1190   -6.8860    5.1660 N.3    37  PHE37      -0.1241
      2  CA       -47.7130   -6.0890    6.2760 C.3    37  PHE37       0.1605
      3  C        -48.5300   -6.4050    7.5230 C.2    37  PHE37       0.2264
      4  O        -48.1200   -6.1360    8.6570 O.2    37  PHE37      -0.2867
      5  CB       -47.9000   -4.6830    5.8460 C.3    37  PHE37       0.0534
      6  CG       -46.9680   -4.2600    4.7830 C.ar   37  PHE37      -0.0203
      7  CD1      -45.6060   -4.3380    4.9700 C.ar   37  PHE37      -0.0042
      8  CD2      -47.4570   -3.7310    3.6050 C.ar   37  PHE37      -0.0042
      9  CE1      -44.7440   -3.8840    4.0060 C.ar   37  PHE37      -0.0003
     10  CE2      -46.6040   -3.2720    2.6370 C.ar   37  PHE37      -0.0003
     11  CZ       -45.2460   -3.3500    2.8310 C.ar   37  PHE37      -0.0000
     12  N        -48.6760    4.4380   -0.4100 N.3    54  ARG54      -0.1231
     13  CA       -48.9620    3.6700   -1.6430 C.3    54  ARG54       0.1694
     14  C        -48.5160    2.1850   -1.5490 C.2    54  ARG54       0.2592
     15  O        -48.9690    1.3590   -2.3330 O.2    54  ARG54      -0.2718
     16  CB       -48.3590    4.4040   -2.8880 C.3    54  ARG54       0.0321
     17  CG       -47.7110    3.5700   -4.0250 C.3    54  ARG54       0.0489
     18  CD       -48.6790    2.7980   -4.9700 C.3    54  ARG54       0.2205
     19  NE       -47.9480    1.8110   -5.7910 N.pl3  54  ARG54      -0.0865
     20  CZ       -48.0630    0.4800   -5.6880 C.cat  54  ARG54       0.5346
     21  NH1      -48.8890   -0.0610   -4.7980 N.pl3  54  ARG54       0.1354
     22  NH2      -47.3470   -0.3210   -6.4750 N.pl3  54  ARG54       0.1354
     23  N        -47.7080    1.8010   -0.5650 N.am   55  TYR55      -0.1962
     24  CA       -47.2430    0.4080   -0.5410 C.3    55  TYR55       0.1771
     25  C        -48.4130   -0.5750   -0.3760 C.2    55  TYR55       0.2620
     26  O        -49.2630   -0.4160    0.5030 O.2    55  TYR55      -0.2715
     27  CB       -46.1930    0.2080    0.5490 C.3    55  TYR55       0.0574
     28  CG       -44.9540    1.0300    0.3040 C.ar   55  TYR55      -0.0198
     29  CD1      -44.6690    1.5500   -0.9600 C.ar   55  TYR55      -0.0009
     30  CD2      -44.0700    1.2890    1.3280 C.ar   55  TYR55      -0.0009
     31  CE1      -43.5410    2.3180   -1.1750 C.ar   55  TYR55       0.0417
     32  CE2      -42.9420    2.0420    1.1200 C.ar   55  TYR55       0.0417
     33  CZ       -42.6790    2.5530   -0.1310 C.ar   55  TYR55       0.1957
     34  OH       -41.5520    3.3090   -0.3370 O.3    55  TYR55      -0.2866
     35  N        -48.4830   -1.5580   -1.2750 N.am   56  THR56      -0.1937
     36  CA       -49.5760   -2.5360   -1.2710 C.3    56  THR56       0.2028
     37  C        -49.1440   -3.8870   -0.6950 C.2    56  THR56       0.2642
     38  O        -49.7050   -4.3690    0.2880 O.2    56  THR56      -0.2714
     39  CB       -50.1550   -2.7680   -2.6890 C.3    56  THR56       0.1808
     40  OG1      -50.5620   -1.5210   -3.2710 O.3    56  THR56      -0.2208
     41  CG2      -51.3550   -3.7000   -2.6170 C.3    56  THR56       0.0379
     42  N        -48.1500   -4.4990   -1.3270 N.am   57  ARG57      -0.1963
     43  CA       -47.5120   -5.7060   -0.8140 C.3    57  ARG57       0.1714
     44  C        -46.0530   -5.3290   -0.6010 C.2    57  ARG57       0.2458
     45  O        -45.4830   -4.5730   -1.3960 O.2    57  ARG57      -0.2730
     46  CB       -47.7140   -6.8810   -1.8030 C.3    57  ARG57       0.0347
     47  CG       -46.5400   -7.8720   -2.1200 C.3    57  ARG57       0.0492
     48  CD       -45.8470   -8.5920   -0.9170 C.3    57  ARG57       0.2205
     49  NE       -44.6070   -9.2720   -1.3360 N.pl3  57  ARG57      -0.0865
     50  CZ       -43.4960   -9.3830   -0.6070 C.cat  57  ARG57       0.5346
     51  NH1      -43.4330   -8.8470    0.5940 N.pl3  57  ARG57       0.1354
     52  NH2      -42.4370  -10.0070   -1.1050 N.pl3  57  ARG57       0.1354
     53  N        -45.4530   -5.8200    0.4910 N.am   58  PRO58      -0.2716
     54  CA       -44.0160   -5.5720    0.7550 C.3    58  PRO58       0.1536
     55  C        -43.1750   -6.0590   -0.4450 C.2    58  PRO58       0.2599
     56  O        -43.7370   -6.5770   -1.3900 O.2    58  PRO58      -0.2715
     57  CB       -43.7430   -6.3850    2.0320 C.3    58  PRO58       0.0310
     58  CG       -45.0870   -7.0380    2.4280 C.3    58  PRO58       0.0237
     59  CD       -46.1620   -6.4110    1.6350 C.3    58  PRO58       0.0939
     60  N        -41.8640   -5.8910   -0.4720 N.am   59  THR59      -0.1951
     61  CA       -41.1440   -6.4310   -1.6270 C.3    59  THR59       0.1897
     62  C        -40.4640   -7.7320   -1.2170 C.2    59  THR59       0.2313
     63  O        -40.3850   -8.0200   -0.0260 O.2    59  THR59      -0.2863
     64  CB       -40.1370   -5.4220   -2.1920 C.3    59  THR59       0.1794
     65  OG1      -39.0430   -5.2640   -1.2820 O.3    59  THR59      -0.2208
     66  CG2      -40.8220   -4.0840   -2.4230 C.3    59  THR59       0.0378
     67  N        -38.1970   -6.9120    1.2930 N.3    62  GLN62      -0.1245
     68  CA       -38.9440   -6.3800    2.4300 C.3    62  GLN62       0.1566
     69  C        -39.6250   -7.4630    3.2340 C.2    62  GLN62       0.2260
     70  O        -39.9740   -7.2840    4.3830 O.2    62  GLN62      -0.2867
     71  CB       -39.9850   -5.3760    1.9550 C.3    62  GLN62       0.0367
     72  CG       -39.3920   -4.0220    1.7230 C.3    62  GLN62       0.0905
     73  CD       -40.2460   -3.1230    0.8680 C.2    62  GLN62       0.2608
     74  OE1      -41.4390   -3.3670    0.6660 O.2    62  GLN62      -0.2717
     75  NE2      -39.6340   -2.0680    0.3580 N.am   62  GLN62      -0.0878
     76  N        -30.6750   -2.8560   -6.8870 N.3    81  THR81      -0.1203
     77  CA       -31.4250   -1.7340   -6.4370 C.3    81  THR81       0.1994
     78  C        -32.7720   -1.6370   -7.1100 C.2    81  THR81       0.2618
     79  O        -32.9790   -2.1690   -8.2030 O.2    81  THR81      -0.2717
     80  CB       -30.7330   -0.4990   -6.7510 C.3    81  THR81       0.1784
     81  OG1      -30.9770   -0.2170   -8.1190 O.3    81  THR81      -0.2211
     82  CG2      -29.2890   -0.6870   -6.5240 C.3    81  THR81       0.0376
     83  N        -33.6310   -0.8300   -6.5090 N.am   82  GLY82      -0.1942
     84  CA       -35.0200   -0.7770   -6.8550 C.3    82  GLY82       0.2014
     85  C        -35.7410   -1.9290   -6.1820 C.2    82  GLY82       0.2640
     86  O        -36.9020   -2.1610   -6.4800 O.2    82  GLY82      -0.2714
     87  N        -35.0770   -2.6480   -5.2750 N.am   83  SER83      -0.1935
     88  CA       -35.7020   -3.8040   -4.6270 C.3    83  SER83       0.2055
     89  C        -36.5010   -3.4770   -3.3670 C.2    83  SER83       0.2644
     90  O        -37.1250   -4.3610   -2.7780 O.2    83  SER83      -0.2714
     91  CB       -34.6510   -4.8420   -4.2670 C.3    83  SER83       0.2130
     92  OG       -35.2790   -5.9480   -3.6550 O.3    83  SER83      -0.2179
     93  N        -36.4640   -2.2170   -2.9470 N.am   84  GLY84      -0.1939
     94  CA       -37.1970   -1.7760   -1.7760 C.3    84  GLY84       0.2014
     95  C        -36.4820   -2.1200   -0.4890 C.2    84  GLY84       0.2639
     96  O        -37.1180   -2.4360    0.5140 O.2    84  GLY84      -0.2714
     97  N        -35.1520   -2.0530   -0.5060 N.am   85  LYS85      -0.1963
     98  CA       -34.3840   -2.3990    0.6810 C.3    85  LYS85       0.1728
     99  C        -34.5260   -1.3270    1.7590 C.2    85  LYS85       0.2617
    100  O        -34.4560   -1.6310    2.9410 O.2    85  LYS85      -0.2715
    101  CB       -32.9040   -2.6220    0.3490 C.3    85  LYS85       0.0311
    102  CG       -32.6090   -2.8990   -1.1130 C.3    85  LYS85       0.0038
    103  CD       -31.1390   -3.2520   -1.3380 C.3    85  LYS85       0.0206
    104  CE       -30.6390   -2.7210   -2.6770 C.3    85  LYS85       0.1093
    105  NZ       -30.0810   -1.3460   -2.5540 N.3    85  LYS85      -0.1314
    106  N        -34.7540   -0.0820    1.3510 N.am   86  THR86      -0.1937
    107  CA       -34.8480    1.0270    2.3010 C.3    86  THR86       0.2028
    108  C        -35.9870    0.8260    3.3070 C.2    86  THR86       0.2642
    109  O        -35.7810    0.8620    4.5250 O.2    86  THR86      -0.2714
    110  CB       -35.0450    2.3740    1.5750 C.3    86  THR86       0.1808
    111  OG1      -33.8700    2.7000    0.8160 O.3    86  THR86      -0.2208
    112  CG2      -35.3030    3.4730    2.5690 C.3    86  THR86       0.0379
    113  N        -37.1890    0.5970    2.7980 N.am   87  ALA87      -0.1977
    114  CA       -38.3290    0.3790    3.6710 C.3    87  ALA87       0.1597
    115  C        -38.1910   -0.9290    4.4260 C.2    87  ALA87       0.2287
    116  O        -38.8430   -1.1270    5.4480 O.2    87  ALA87      -0.2864
    117  CB       -39.6100    0.3900    2.8760 C.3    87  ALA87       0.0319
    118  N        -28.3940    8.8910   -1.9000 N.3   127  LEU127     -0.1245
    119  CA       -29.0170    7.7990   -1.1720 C.3   127  LEU127      0.1561
    120  C        -29.4050    8.2230    0.2410 C.2   127  LEU127      0.2260
    121  O        -30.4530    7.8090    0.7550 O.2   127  LEU127     -0.2867
    122  CB       -28.0960    6.5940   -1.1210 C.3   127  LEU127      0.0270
    123  CG       -28.7830    5.3800   -0.5010 C.3   127  LEU127      0.0019
    124  CD1      -30.0560    5.0470   -1.2530 C.3   127  LEU127      0.0001
    125  CD2      -27.8510    4.1940   -0.4910 C.3   127  LEU127      0.0001
    126  N        -32.5330   10.0770    0.0610 N.3   130  GLN130     -0.1245
    127  CA       -33.5780    9.1020   -0.2420 C.3   130  GLN130      0.1566
    128  C        -34.0670    8.3830    1.0070 C.2   130  GLN130      0.2260
    129  O        -35.2740    8.3010    1.2560 O.2   130  GLN130     -0.2867
    130  CB       -33.0800    8.0760   -1.2600 C.3   130  GLN130      0.0367
    131  CG       -32.9960    8.5890   -2.6750 C.3   130  GLN130      0.0905
    132  CD       -32.7490    7.4780   -3.6800 C.2   130  GLN130      0.2608
    133  OE1      -32.9190    6.2930   -3.3770 O.2   130  GLN130     -0.2717
    134  NE2      -32.3460    7.8580   -4.8860 N.am  130  GLN130     -0.0878
    135  N        -37.9330    8.8690    2.9750 N.3   134  GLU134     -0.1245
    136  CA       -38.8740    7.8320    3.3390 C.3   134  GLU134      0.1567
    137  C        -38.9630    7.6670    4.8550 C.2   134  GLU134      0.2260
    138  O        -39.9780    7.2000    5.3790 O.2   134  GLU134     -0.2867
    139  CB       -38.5090    6.5110    2.6770 C.3   134  GLU134      0.0388
    140  CG       -39.7060    5.6170    2.6020 C.3   134  GLU134      0.1160
    141  CD       -39.6490    4.6240    1.4770 C.2   134  GLU134      0.3649
    142  OE1      -39.1410    4.9780    0.3910 O.co2 134  GLU134     -0.2457
    143  OE2      -40.1300    3.4870    1.6770 O.co2 134  GLU134     -0.2457
    144  N        -41.7400    9.8520    5.7990 N.3   137  LYS137     -0.1245
    145  CA       -43.0150    9.2210    5.4610 C.3   137  LYS137      0.1561
    146  C        -43.4790    8.2900    6.5720 C.2   137  LYS137      0.2260
    147  O        -44.6540    8.2710    6.9360 O.2   137  LYS137     -0.2867
    148  CB       -42.9080    8.4270    4.1530 C.3   137  LYS137      0.0271
    149  CG       -42.7210    9.2620    2.8980 C.3   137  LYS137      0.0035
    150  CD       -42.6070    8.3750    1.6690 C.3   137  LYS137      0.0206
    151  CE       -42.3160    9.2030    0.4260 C.3   137  LYS137      0.1093
    152  NZ       -42.0270    8.3510   -0.7630 N.3   137  LYS137     -0.1314
    153  N        -26.3130    0.8010    4.7730 N.3   196  ASP196     -0.1225
    154  CA       -26.9420    0.6440    3.4610 C.3   196  ASP196      0.1805
    155  C        -25.8830    0.7970    2.3810 C.2   196  ASP196      0.2597
    156  O        -25.0310    1.6830    2.4780 O.2   196  ASP196     -0.2718
    157  CB       -28.0760    1.6560    3.2530 C.3   196  ASP196      0.1424
    158  CG       -29.0670    1.2130    2.1810 C.2   196  ASP196      0.3668
    159  OD1      -28.8390    0.1410    1.5780 O.co2 196  ASP196     -0.2456
    160  OD2      -30.0630    1.9340    1.9340 O.co2 196  ASP196     -0.2456
    161  N        -25.9260   -0.0760    1.3730 N.am  197  GLU197     -0.1979
    162  CA       -24.9670   -0.0400    0.2740 C.3   197  GLU197      0.1602
    163  C        -23.5270   -0.1590    0.7930 C.2   197  GLU197      0.2287
    164  O        -22.6550    0.6270    0.4150 O.2   197  GLU197     -0.2864
    165  CB       -25.1410    1.2480   -0.5370 C.3   197  GLU197      0.0415
    166  CG       -25.3350    1.0470   -2.0280 C.3   197  GLU197      0.1163
    167  CD       -26.1580    2.1500   -2.6860 C.2   197  GLU197      0.3649
    168  OE1      -25.5880    3.2110   -3.0280 O.co2 197  GLU197     -0.2457
    169  OE2      -27.3780    1.9470   -2.8750 O.co2 197  GLU197     -0.2457
@<TRIPOS>BOND
     1    79    78    2
     2    81    80    1
     3    78    83   am
     4    78    77    1
     5    76    77    1
     6    84    83    1
     7    84    85    1
     8    80    82    1
     9    80    77    1
    10    86    85    2
    11    22    20    1
    12    85    87   am
    13    19    20    2
    14    19    18    1
    15    20    21    1
    16    87    88    1
    17    18    17    1
    18   134   132   am
    19    88    91    1
    20    88    89    1
    21    91    92    1
    22    17    16    1
    23   132   133    2
    24   132   131    1
    25    89    93   am
    26    89    90    2
    27    40    39    1
    28   168   167   ar
    29    93    94    1
    30    16    13    1
    31   169   167   ar
    32    39    41    1
    33    39    36    1
    34   167   166    1
    35   104   105    1
    36   104   103    1
    37   131   130    1
    38    66    64    1
    39    15    14    2
    40    64    61    1
    41    64    65    1
    42    47    46    1
    43    47    48    1
    44   166   165    1
    45   118   119    1
    46    46    43    1
    47    94    95    1
    48    13    14    1
    49    13    12    1
    50    61    62    1
    51    61    60    1
    52    14    23   am
    53    45    44    2
    54    56    55    2
    55   103   102    1
    56    49    48    1
    57    49    50    2
    58    42    43    1
    59    42    37   am
    60    35    36    1
    61    35    25   am
    62    36    37    1
    63   130   127    1
    64   124   123    1
    65    62    63    2
    66    31    29   ar
    67    31    33   ar
    68   119   122    1
    69   119   120    1
    70   122   123    1
    71   102   101    1
    72    52    50    1
    73    29    28   ar
    74    43    44    1
    75   152   151    1
    76    37    38    2
    77    50    51    1
    78    44    53   am
    79    23    24    1
    80    24    25    1
    81    24    27    1
    82   165   162    1
    83    97    95   am
    84    97    98    1
    85   123   125    1
    86    95    96    2
    87    60    55   am
    88    55    54    1
    89    25    26    2
    90    34    33    1
    91   127   126    1
    92   127   128    1
    93    33    32   ar
    94   120   121    2
    95   162   163    1
    96   162   161    1
    97    28    27    1
    98    28    30   ar
    99   101    98    1
   100    75    73   am
   101   142   141   ar
   102   164   163    2
   103   151   150    1
   104    53    54    1
   105    53    59    1
   106    74    73    2
   107    98    99    1
   108    54    57    1
   109   111   110    1
   110    73    72    1
   111   128   129    2
   112    32    30   ar
   113    67    68    1
   114   106    99   am
   115   106   107    1
   116   161   155   am
   117   141   143   ar
   118   141   140    1
   119   110   107    1
   120   110   112    1
   121   159   158   ar
   122    59    58    1
   123   150   149    1
   124    72    71    1
   125    99   100    2
   126   160   158   ar
   127    71    68    1
   128    57    58    1
   129   158   157    1
   130   107   108    1
   131   155   156    2
   132   155   154    1
   133    68    69    1
   134   140   139    1
   135    10    11   ar
   136    10     8   ar
   137   139   136    1
   138   113   108   am
   139   113   114    1
   140    11     9   ar
   141   117   114    1
   142   149   148    1
   143   135   136    1
   144    69    70    2
   145   157   154    1
   146   108   109    2
   147   136   137    1
   148   154   153    1
   149     8     6   ar
   150   114   115    1
   151     9     7   ar
   152   148   145    1
   153   115   116    2
   154     6     7   ar
   155     6     5    1
   156   137   138    2
   157     1     2    1
   158   145   144    1
   159   145   146    1
   160     5     2    1
   161     2     3    1
   162   146   147    2
   163     3     4    2
