@<TRIPOS>MOLECULE
tmp/5e7nA00.pdb
 139 128 0 0 0
SMALL
GASTEIGER

@<TRIPOS>ATOM
      1  N         -5.1180  -18.6930   19.7210 N.3    36  ILE36      -0.1231
      2  CA        -4.9550  -18.2890   21.1140 C.3    36  ILE36       0.1692
      3  C         -5.1790  -19.5230   21.9590 C.2    36  ILE36       0.2593
      4  O         -5.9320  -20.4120   21.5670 O.2    36  ILE36      -0.2718
      5  CB        -5.9900  -17.2120   21.5220 C.3    36  ILE36       0.0266
      6  CG1       -5.8170  -15.9510   20.6770 C.3    36  ILE36       0.0019
      7  CG2       -5.8770  -16.8590   23.0040 C.3    36  ILE36       0.0020
      8  CD1       -6.5790  -15.9920   19.3830 C.3    36  ILE36       0.0001
      9  N         -4.5320  -19.5870   23.1160 N.am   37  THR37      -0.1939
     10  CA        -4.7490  -20.6930   24.0380 C.3    37  THR37       0.2028
     11  C         -6.1740  -20.6350   24.5840 C.2    37  THR37       0.2642
     12  O         -6.5750  -19.6350   25.1810 O.2    37  THR37      -0.2714
     13  CB        -3.7410  -20.6590   25.2090 C.3    37  THR37       0.1808
     14  OG1       -2.4060  -20.7030   24.6890 O.3    37  THR37      -0.2208
     15  CG2       -3.9500  -21.8410   26.1490 C.3    37  THR37       0.0379
     16  N         -6.9330  -21.7070   24.3630 N.am   38  THR38      -0.1950
     17  CA        -8.3070  -21.8040   24.8470 C.3    38  THR38       0.1897
     18  C         -8.5290  -23.1280   25.5700 C.2    38  THR38       0.2313
     19  O         -7.7410  -24.0630   25.4290 O.2    38  THR38      -0.2863
     20  CB        -9.3260  -21.7110   23.6930 C.3    38  THR38       0.1794
     21  OG1       -9.1170  -22.7930   22.7760 O.3    38  THR38      -0.2208
     22  CG2       -9.1940  -20.3870   22.9570 C.3    38  THR38       0.0378
     23  N         -9.8070  -19.9060   18.9970 N.3    44  ARG44      -0.1245
     24  CA        -9.8940  -18.5080   18.6180 C.3    44  ARG44       0.1563
     25  C         -8.6050  -18.1170   17.9150 C.2    44  ARG44       0.2260
     26  O         -7.5250  -18.6210   18.2580 O.2    44  ARG44      -0.2867
     27  CB       -10.1170  -17.6170   19.8390 C.3    44  ARG44       0.0307
     28  CG       -11.3830  -17.9180   20.6400 C.3    44  ARG44       0.0489
     29  CD       -12.6470  -17.8960   19.7950 C.3    44  ARG44       0.2205
     30  NE       -12.8860  -16.6180   19.1230 N.pl3  44  ARG44      -0.0865
     31  CZ       -13.5960  -15.6100   19.6280 C.cat  44  ARG44       0.5346
     32  NH1      -14.1390  -15.7010   20.8340 N.pl3  44  ARG44       0.1354
     33  NH2      -13.7580  -14.5000   18.9210 N.pl3  44  ARG44       0.1354
     34  N         -6.0510  -14.9960   16.5530 N.3    46  ARG46      -0.1245
     35  CA        -5.5670  -13.6190   16.6540 C.3    46  ARG46       0.1563
     36  C         -4.8070  -13.3010   15.3750 C.2    46  ARG46       0.2260
     37  O         -4.0910  -14.1640   14.8420 O.2    46  ARG46      -0.2867
     38  CB        -4.6470  -13.4840   17.8740 C.3    46  ARG46       0.0307
     39  CG        -3.9590  -12.1430   18.0460 C.3    46  ARG46       0.0489
     40  CD        -3.1100  -12.1430   19.3230 C.3    46  ARG46       0.2205
     41  NE        -2.4750  -10.8480   19.5640 N.pl3  46  ARG46      -0.0865
     42  CZ        -1.8790  -10.5030   20.6980 C.cat  46  ARG46       0.5346
     43  NH1       -1.8470  -11.3470   21.7220 N.pl3  46  ARG46       0.1354
     44  NH2       -1.3250   -9.3030   20.8160 N.pl3  46  ARG46       0.1354
     45  N         -3.7540   -6.7430   17.7420 N.3    58  SER58      -0.1202
     46  CA        -4.8930   -7.0190   18.6160 C.3    58  SER58       0.2020
     47  C         -6.2070   -7.2740   17.8750 C.2    58  SER58       0.2619
     48  O         -7.2820   -6.9490   18.3620 O.2    58  SER58      -0.2717
     49  CB        -5.0580   -5.8800   19.6200 C.3    58  SER58       0.2103
     50  OG        -5.0060   -4.6340   18.9580 O.3    58  SER58      -0.2182
     51  N         -6.1240   -7.8970   16.7110 N.am   59  PHE59      -0.1961
     52  CA        -7.3120   -8.3410   16.0050 C.3    59  PHE59       0.1771
     53  C         -7.6510   -9.7640   16.4020 C.2    59  PHE59       0.2619
     54  O         -6.7620  -10.6070   16.5440 O.2    59  PHE59      -0.2715
     55  CB        -7.0840   -8.3060   14.5000 C.3    59  PHE59       0.0574
     56  CG        -6.9910   -6.9270   13.9280 C.ar   59  PHE59      -0.0200
     57  CD1       -8.1270   -6.2450   13.5370 C.ar   59  PHE59      -0.0042
     58  CD2       -5.7600   -6.3130   13.7610 C.ar   59  PHE59      -0.0042
     59  CE1       -8.0380   -4.9800   12.9830 C.ar   59  PHE59      -0.0003
     60  CE2       -5.6750   -5.0480   13.2160 C.ar   59  PHE59      -0.0003
     61  CZ        -6.8090   -4.3820   12.8330 C.ar   59  PHE59      -0.0000
     62  N         -8.9460  -10.0140   16.5850 N.am   60  MET60      -0.1977
     63  CA        -9.4560  -11.3610   16.8300 C.3    60  MET60       0.1605
     64  C        -10.5750  -11.6680   15.8560 C.2    60  MET60       0.2287
     65  O        -11.4340  -10.8290   15.5940 O.2    60  MET60      -0.2864
     66  CB        -9.9740  -11.5390   18.2550 C.3    60  MET60       0.0413
     67  CG       -10.3070  -13.0020   18.5720 C.3    60  MET60       0.0598
     68  SD       -10.8300  -13.3130   20.2670 S.3    60  MET60      -0.1393
     69  CE        -9.3680  -12.8050   21.1690 C.3    60  MET60       0.0692
     70  N        -14.0120  -13.2670   14.8750 N.3    62  ALA62      -0.1231
     71  CA       -15.2320  -13.8040   15.4620 C.3    62  ALA62       0.1694
     72  C        -15.2690  -15.2980   15.1530 C.2    62  ALA62       0.2592
     73  O        -14.8210  -15.7220   14.0980 O.2    62  ALA62      -0.2718
     74  CB       -16.4590  -13.1020   14.8990 C.3    62  ALA62       0.0304
     75  N        -15.7850  -16.0920   16.0840 N.am   63  THR63      -0.1953
     76  CA       -15.7730  -17.5420   15.9200 C.3    63  THR63       0.1897
     77  C        -16.4920  -17.9700   14.6490 C.2    63  THR63       0.2313
     78  O        -16.1130  -18.9630   14.0310 O.2    63  THR63      -0.2863
     79  CB       -16.4010  -18.2690   17.1290 C.3    63  THR63       0.1794
     80  OG1      -17.7790  -17.9000   17.2650 O.3    63  THR63      -0.2208
     81  CG2      -15.6530  -17.9180   18.3920 C.3    63  THR63       0.0378
     82  N        -16.0970   -4.7050   15.6360 N.3    86  ILE86      -0.1245
     83  CA       -16.3430   -3.9470   16.8490 C.3    86  ILE86       0.1561
     84  C        -15.0590   -3.9100   17.6560 C.2    86  ILE86       0.2260
     85  O        -14.1480   -4.7060   17.4280 O.2    86  ILE86      -0.2867
     86  CB       -17.4940   -4.5420   17.6680 C.3    86  ILE86       0.0252
     87  CG1      -17.1550   -5.9540   18.1250 C.3    86  ILE86       0.0019
     88  CG2      -18.7830   -4.5510   16.8560 C.3    86  ILE86       0.0019
     89  CD1      -16.7530   -6.0420   19.5630 C.3    86  ILE86       0.0001
     90  N        -13.5630   -3.9950   21.5670 N.3    88  ASN88      -0.1240
     91  CA       -13.8610   -4.3100   22.9440 C.3    88  ASN88       0.1653
     92  C        -12.6770   -3.9710   23.8170 C.2    88  ASN88       0.2266
     93  O        -11.5320   -4.1900   23.4350 O.2    88  ASN88      -0.2867
     94  CB       -14.1790   -5.7920   23.0830 C.3    88  ASN88       0.1155
     95  CG       -14.7500   -6.1140   24.4250 C.2    88  ASN88       0.2627
     96  OD1      -15.6770   -5.4440   24.8790 O.2    88  ASN88      -0.2716
     97  ND2      -14.1860   -7.1080   25.0960 N.am   88  ASN88      -0.0877
     98  N        -10.6730   -4.5160   27.3590 N.3    90  LEU90      -0.1245
     99  CA       -10.4610   -5.4550   28.4470 C.3    90  LEU90       0.1561
    100  C        -10.2930   -4.7150   29.7580 C.2    90  LEU90       0.2260
    101  O        -10.0790   -3.4970   29.7890 O.2    90  LEU90      -0.2867
    102  CB        -9.2150   -6.2870   28.1600 C.3    90  LEU90       0.0270
    103  CG        -9.1930   -7.0370   26.8300 C.3    90  LEU90       0.0019
    104  CD1       -7.9430   -7.8950   26.7730 C.3    90  LEU90       0.0001
    105  CD2      -10.4440   -7.8860   26.6360 C.3    90  LEU90       0.0001
    106  N         -6.4580   -2.7220   27.5400 N.3    94  ARG94      -0.1245
    107  CA        -6.1190   -3.0920   26.1770 C.3    94  ARG94       0.1563
    108  C         -7.3840   -3.1950   25.3530 C.2    94  ARG94       0.2260
    109  O         -8.4300   -3.6190   25.8430 O.2    94  ARG94      -0.2867
    110  CB        -5.3630   -4.4230   26.1350 C.3    94  ARG94       0.0307
    111  CG        -3.9510   -4.3600   26.6900 C.3    94  ARG94       0.0489
    112  CD        -3.2710   -5.7200   26.6020 C.3    94  ARG94       0.2205
    113  NE        -3.8630   -6.6870   27.5240 N.pl3  94  ARG94      -0.0865
    114  CZ        -3.5630   -7.9820   27.5510 C.cat  94  ARG94       0.5346
    115  NH1       -4.1560   -8.7800   28.4290 N.pl3  94  ARG94       0.1354
    116  NH2       -2.6760   -8.4840   26.7020 N.pl3  94  ARG94       0.1354
    117  N         -9.2310   -4.7180   21.8520 N.3    96  VAL96      -0.1245
    118  CA        -9.1830   -5.7590   20.8530 C.3    96  VAL96       0.1561
    119  C        -10.2250   -5.4470   19.7920 C.2    96  VAL96       0.2260
    120  O        -11.3410   -5.0080   20.0830 O.2    96  VAL96      -0.2867
    121  CB        -9.4050   -7.1400   21.4860 C.3    96  VAL96       0.0252
    122  CG1       -8.3290   -7.4150   22.5240 C.3    96  VAL96       0.0019
    123  CG2      -10.7690   -7.2320   22.1230 C.3    96  VAL96       0.0019
    124  N        -12.5520   -6.9810   17.1250 N.3    98  ILE98      -0.1245
    125  CA       -13.1700   -8.2380   16.7280 C.3    98  ILE98       0.1561
    126  C        -13.7080   -8.1180   15.3080 C.2    98  ILE98       0.2260
    127  O        -14.5810   -7.2900   15.0270 O.2    98  ILE98      -0.2867
    128  CB       -14.3170   -8.6420   17.6730 C.3    98  ILE98       0.0252
    129  CG1      -13.9480   -8.3720   19.1400 C.3    98  ILE98       0.0019
    130  CG2      -14.6770  -10.1110   17.4470 C.3    98  ILE98       0.0019
    131  CD1      -12.7800   -9.1910   19.6530 C.3    98  ILE98       0.0001
    132  N        -15.9240   -9.2330   12.4680 N.3   100  MET100     -0.1245
    133  CA       -17.2030   -9.9340   12.4240 C.3   100  MET100      0.1570
    134  C        -17.5790  -10.3920   11.0160 C.2   100  MET100      0.2261
    135  O        -18.1510  -11.4750   10.8330 O.2   100  MET100     -0.2867
    136  CB       -18.3080   -9.0260   12.9560 C.3   100  MET100      0.0387
    137  CG       -18.0670   -8.5060   14.3650 C.3   100  MET100      0.0595
    138  SD       -17.9540   -9.7970   15.6070 S.3   100  MET100     -0.1393
    139  CE       -19.5530  -10.5850   15.4460 C.3   100  MET100      0.0692
@<TRIPOS>BOND
     1   135   134    2
     2   134   133    1
     3   133   132    1
     4   133   136    1
     5    61    59   ar
     6    61    60   ar
     7   136   137    1
     8    59    57   ar
     9    60    58   ar
    10    57    56   ar
    11    58    56   ar
    12    56    55    1
    13    78    77    2
    14    73    72    2
    15   137   138    1
    16    55    52    1
    17    77    76    1
    18    37    36    2
    19    70    71    1
    20    74    71    1
    21   127   126    2
    22    72    71    1
    23    72    75   am
    24   126   125    1
    25    36    35    1
    26   139   138    1
    27    65    64    2
    28    82    83    1
    29    64    63    1
    30    76    75    1
    31    76    79    1
    32    52    53    1
    33    52    51    1
    34    53    54    2
    35    53    62   am
    36    34    35    1
    37    62    63    1
    38    35    38    1
    39    51    47   am
    40   125   124    1
    41   125   128    1
    42    63    66    1
    43    83    84    1
    44    83    86    1
    45    88    86    1
    46    79    80    1
    47    79    81    1
    48    85    84    2
    49   130   128    1
    50    86    87    1
    51   128   129    1
    52    45    46    1
    53    38    39    1
    54    47    48    2
    55    47    46    1
    56    25    26    2
    57    25    24    1
    58    39    40    1
    59    87    89    1
    60    66    67    1
    61    67    68    1
    62    46    49    1
    63    24    23    1
    64    24    27    1
    65    33    31    1
    66    50    49    1
    67    30    31    2
    68    30    29    1
    69   129   131    1
    70    40    41    1
    71     8     6    1
    72    41    42    2
    73    31    32    1
    74     1     2    1
    75   119   120    2
    76   119   118    1
    77    29    28    1
    78    27    28    1
    79    68    69    1
    80     6     5    1
    81    42    44    1
    82    42    43    1
    83   118   121    1
    84   118   117    1
    85     2     5    1
    86     2     3    1
    87   121   123    1
    88   121   122    1
    89     5     7    1
    90     4     3    2
    91    90    91    1
    92     3     9   am
    93    21    20    1
    94    91    94    1
    95    91    92    1
    96    22    20    1
    97    94    95    1
    98     9    10    1
    99    93    92    2
   100    20    17    1
   101    10    11    1
   102    10    13    1
   103    16    11   am
   104    16    17    1
   105    95    96    2
   106    95    97   am
   107    11    12    2
   108    14    13    1
   109    17    18    1
   110    13    15    1
   111   108   109    2
   112   108   107    1
   113    19    18    2
   114   110   107    1
   115   110   111    1
   116   107   106    1
   117   112   111    1
   118   112   113    1
   119   105   103    1
   120   116   114    1
   121   104   103    1
   122   103   102    1
   123    98    99    1
   124   113   114    2
   125   114   115    1
   126   102    99    1
   127    99   100    1
   128   100   101    2
