@<TRIPOS>MOLECULE
tmp/5e7pA02.pdb
 131 126 0 0 0
SMALL
GASTEIGER

@<TRIPOS>ATOM
      1  N         48.6020   60.5940   76.1120 N.3   246  SER246     -0.1202
      2  CA        50.0240   60.4310   75.8290 C.3   246  SER246      0.2020
      3  C         50.8390   60.0640   77.0680 C.2   246  SER246      0.2619
      4  O         50.3020   59.9470   78.1670 O.2   246  SER246     -0.2717
      5  CB        50.5920   61.6850   75.1640 C.3   246  SER246      0.2103
      6  OG        50.3470   62.8390   75.9460 O.3   246  SER246     -0.2182
      7  N         52.1390   59.8730   76.8750 N.am  247  GLY247     -0.1942
      8  CA        53.0120   59.4050   77.9340 C.3   247  GLY247      0.1998
      9  C         53.9660   58.3480   77.4090 C.2   247  GLY247      0.2480
     10  O         53.7790   57.8400   76.3040 O.2   247  GLY247     -0.2729
     11  N         54.9880   58.0020   78.2070 N.am  248  PRO248     -0.2726
     12  CA        56.0670   57.0820   77.8240 C.3   248  PRO248      0.1402
     13  C         55.5710   55.7740   77.2030 C.2   248  PRO248      0.2269
     14  O         54.4820   55.3000   77.5240 O.2   248  PRO248     -0.2865
     15  CB        56.7640   56.7970   79.1560 C.3   248  PRO248      0.0296
     16  CG        56.5040   58.0120   79.9710 C.3   248  PRO248      0.0237
     17  CD        55.1180   58.4440   79.6060 C.3   248  PRO248      0.0939
     18  N         52.4390   57.8030   72.2230 N.3   345  ALA345     -0.1231
     19  CA        53.5240   58.0980   73.1510 C.3   345  ALA345      0.1694
     20  C         53.8760   59.5800   73.1210 C.2   345  ALA345      0.2592
     21  O         53.8530   60.2490   74.1510 O.2   345  ALA345     -0.2718
     22  CB        54.7450   57.2460   72.8400 C.3   345  ALA345      0.0304
     23  N         54.1780   60.0890   71.9320 N.am  346  VAL346     -0.1966
     24  CA        54.4870   61.5010   71.7490 C.3   346  VAL346      0.1712
     25  C         53.3750   62.1850   70.9510 C.2   346  VAL346      0.2458
     26  O         53.1470   61.8500   69.7870 O.2   346  VAL346     -0.2730
     27  CB        55.8330   61.6810   71.0240 C.3   346  VAL346      0.0289
     28  CG1       56.1730   63.1550   70.8820 C.3   346  VAL346      0.0023
     29  CG2       56.9310   60.9450   71.7680 C.3   346  VAL346      0.0023
     30  N         52.6870   63.1550   71.5770 N.am  347  PRO347     -0.2727
     31  CA        51.4950   63.8080   71.0170 C.3   347  PRO347      0.1402
     32  C         51.7710   64.5180   69.6960 C.2   347  PRO347      0.2269
     33  O         50.9360   64.4780   68.7920 O.2   347  PRO347     -0.2865
     34  CB        51.1170   64.8410   72.0880 C.3   347  PRO347      0.0296
     35  CG        51.8200   64.4130   73.3190 C.3   347  PRO347      0.0237
     36  CD        53.0810   63.7540   72.8610 C.3   347  PRO347      0.0939
     37  N         48.2610   63.5040   79.7980 N.3   365  GLY365     -0.1210
     38  CA        49.6150   62.9810   79.8260 C.3   365  GLY365      0.1956
     39  C         49.8790   62.0750   81.0130 C.2   365  GLY365      0.2612
     40  O         49.7000   62.4790   82.1610 O.2   365  GLY365     -0.2717
     41  N         50.3070   60.8470   80.7370 N.am  366  LEU366     -0.1965
     42  CA        50.6400   59.8920   81.7910 C.3   366  LEU366      0.1728
     43  C         52.1010   60.0200   82.2140 C.2   366  LEU366      0.2617
     44  O         52.9200   60.5960   81.4960 O.2   366  LEU366     -0.2715
     45  CB        50.3370   58.4590   81.3420 C.3   366  LEU366      0.0311
     46  CG        48.9620   57.9040   81.7280 C.3   366  LEU366      0.0022
     47  CD1       47.8570   58.8780   81.3660 C.3   366  LEU366      0.0001
     48  CD2       48.7170   56.5530   81.0740 C.3   366  LEU366      0.0001
     49  N         52.4200   59.4730   83.3820 N.am  367  SER367     -0.1936
     50  CA        53.7540   59.6070   83.9510 C.3   367  SER367      0.2055
     51  C         54.4110   58.2580   84.2410 C.2   367  SER367      0.2642
     52  O         53.7260   57.2570   84.4450 O.2   367  SER367     -0.2714
     53  CB        53.6830   60.4310   85.2340 C.3   367  SER367      0.2130
     54  OG        54.9210   60.4060   85.9170 O.3   367  SER367     -0.2179
     55  N         55.7430   58.2410   84.2500 N.am  368  LEU368     -0.1977
     56  CA        56.5090   57.0730   84.6750 C.3   368  LEU368      0.1596
     57  C         56.2010   56.7610   86.1310 C.2   368  LEU368      0.2287
     58  O         55.9880   57.6710   86.9320 O.2   368  LEU368     -0.2864
     59  CB        58.0170   57.3200   84.5430 C.3   368  LEU368      0.0297
     60  CG        58.6860   57.4720   83.1740 C.3   368  LEU368      0.0022
     61  CD1       60.1050   57.9860   83.3540 C.3   368  LEU368      0.0001
     62  CD2       58.6930   56.1600   82.4160 C.3   368  LEU368      0.0001
     63  N         61.7810   60.0440   78.0770 N.3   454  VAL454     -0.1245
     64  CA        61.6920   60.2260   79.5200 C.3   454  VAL454      0.1561
     65  C         62.0330   58.9250   80.2340 C.2   454  VAL454      0.2260
     66  O         61.3850   57.9040   80.0180 O.2   454  VAL454     -0.2867
     67  CB        60.2800   60.6760   79.9350 C.3   454  VAL454      0.0252
     68  CG1       60.2520   61.0500   81.4040 C.3   454  VAL454      0.0019
     69  CG2       59.8340   61.8480   79.0830 C.3   454  VAL454      0.0019
     70  N         63.6110   64.6770   85.3590 N.3   515  ALA515     -0.1245
     71  CA        62.2890   64.3380   84.8450 C.3   515  ALA515      0.1562
     72  C         62.0400   62.8350   84.7770 C.2   515  ALA515      0.2260
     73  O         61.0600   62.4010   84.1860 O.2   515  ALA515     -0.2867
     74  CB        62.0870   64.9650   83.4720 C.3   515  ALA515      0.0290
     75  N         62.1010   60.9930   87.6430 N.3   517  SER517     -0.1202
     76  CA        61.8030   60.6510   89.0300 C.3   517  SER517      0.2020
     77  C         60.5560   59.7810   89.1800 C.2   517  SER517      0.2619
     78  O         60.5200   58.8810   90.0190 O.2   517  SER517     -0.2717
     79  CB        61.6460   61.9270   89.8610 C.3   517  SER517      0.2103
     80  OG        62.7950   62.7500   89.7550 O.3   517  SER517     -0.2182
     81  N         59.5380   60.0580   88.3700 N.am  518  GLY518     -0.1956
     82  CA        58.2690   59.3560   88.4620 C.3   518  GLY518      0.1869
     83  C         57.2280   60.2110   89.1540 C.2   518  GLY518      0.2309
     84  O         57.5610   61.2790   89.6680 O.2   518  GLY518     -0.2863
     85  N         55.0650   62.1850   88.1540 N.3   520  LEU520     -0.1231
     86  CA        55.2320   63.5370   87.6590 C.3   520  LEU520      0.1693
     87  C         55.2120   63.4830   86.1380 C.2   520  LEU520      0.2593
     88  O         56.1590   63.0090   85.5230 O.2   520  LEU520     -0.2718
     89  CB        56.5670   64.1030   88.1480 C.3   520  LEU520      0.0284
     90  CG        57.0930   65.3460   87.4320 C.3   520  LEU520      0.0019
     91  CD1       56.1500   66.5110   87.6580 C.3   520  LEU520      0.0001
     92  CD2       58.5050   65.6860   87.8800 C.3   520  LEU520      0.0001
     93  N         54.1280   63.9440   85.5270 N.am  521  SER521     -0.1938
     94  CA        54.0340   63.9160   84.0730 C.3   521  SER521      0.2055
     95  C         54.9040   65.0100   83.4570 C.2   521  SER521      0.2643
     96  O         54.8730   66.1610   83.8910 O.2   521  SER521     -0.2714
     97  CB        52.5770   64.0350   83.6130 C.3   521  SER521      0.2130
     98  OG        51.9670   65.2110   84.1140 O.3   521  SER521     -0.2179
     99  N         55.6910   64.6400   82.4540 N.am  522  VAL522     -0.1963
    100  CA        56.6080   65.5750   81.8130 C.3   522  VAL522      0.1727
    101  C         56.1040   65.9850   80.4350 C.2   522  VAL522      0.2616
    102  O         55.7100   65.1440   79.6290 O.2   522  VAL522     -0.2715
    103  CB        58.0220   64.9780   81.6900 C.3   522  VAL522      0.0290
    104  CG1       58.9670   65.9580   80.9880 C.3   522  VAL522      0.0023
    105  CG2       58.5500   64.5970   83.0690 C.3   522  VAL522      0.0023
    106  N         56.1140   67.2880   80.1810 N.am  523  HIS523     -0.1959
    107  CA        55.6380   67.8390   78.9240 C.3   523  HIS523      0.1787
    108  C         56.6960   68.8020   78.3990 C.2   523  HIS523      0.2620
    109  O         56.7970   69.9390   78.8620 O.2   523  HIS523     -0.2715
    110  CB        54.3010   68.5500   79.1430 C.3   523  HIS523      0.0785
    111  CG        53.3420   67.7710   79.9890 C.ar  523  HIS523      0.0821
    112  ND1       52.4310   66.8830   79.4570 N.ar  523  HIS523     -0.2267
    113  CD2       53.1660   67.7300   81.3310 C.ar  523  HIS523      0.1154
    114  CE1       51.7270   66.3380   80.4340 C.ar  523  HIS523      0.1986
    115  NE2       52.1550   66.8330   81.5810 N.ar  523  HIS523     -0.2212
    116  N         57.4870   68.3340   77.4370 N.am  524  ALA524     -0.1977
    117  CA        58.6840   69.0510   77.0120 C.3   524  ALA524      0.1597
    118  C         58.7090   69.3590   75.5230 C.2   524  ALA524      0.2287
    119  O         58.3200   68.5300   74.7020 O.2   524  ALA524     -0.2864
    120  CB        59.9180   68.2600   77.3930 C.3   524  ALA524      0.0319
    121  N         47.5330   70.4260   78.3660 N.3   548  ARG548     -0.1245
    122  CA        47.8290   69.0310   78.6760 C.3   548  ARG548      0.1563
    123  C         48.5200   68.9250   80.0320 C.2   548  ARG548      0.2260
    124  O         48.3060   67.9710   80.7770 O.2   548  ARG548     -0.2867
    125  CB        48.7070   68.3880   77.6000 C.3   548  ARG548      0.0307
    126  CG        48.7870   66.8680   77.7240 C.3   548  ARG548      0.0489
    127  CD        50.0260   66.2910   77.0510 C.3   548  ARG548      0.2205
    128  NE        50.1820   66.7650   75.6810 N.pl3 548  ARG548     -0.0865
    129  CZ        51.1490   67.5840   75.2790 C.cat 548  ARG548      0.5346
    130  NH1       52.0580   68.0130   76.1420 N.pl3 548  ARG548      0.1354
    131  NH2       51.2090   67.9670   74.0100 N.pl3 548  ARG548      0.1354
@<TRIPOS>BOND
     1    33    32    2
     2    32    31    1
     3    26    25    2
     4    28    27    1
     5    25    30   am
     6    25    24    1
     7    31    30    1
     8    31    34    1
     9    27    24    1
    10    27    29    1
    11    30    36    1
    12    24    23    1
    13    23    20   am
    14    34    35    1
    15    18    19    1
    16    22    19    1
    17    36    35    1
    18    20    19    1
    19    20    21    2
    20   131   129    1
    21   119   118    2
    22     5     2    1
    23     5     6    1
    24   129   128    2
    25   129   130    1
    26   118   117    1
    27   128   127    1
    28     2     1    1
    29     2     3    1
    30    10     9    2
    31     7     3   am
    32     7     8    1
    33   117   120    1
    34   117   116    1
    35   127   126    1
    36     3     4    2
    37    13    14    2
    38    13    12    1
    39     9     8    1
    40     9    11   am
    41   116   108   am
    42   125   126    1
    43   125   122    1
    44    12    11    1
    45    12    15    1
    46    63    64    1
    47    11    17    1
    48   121   122    1
    49   108   109    2
    50   108   107    1
    51   122   123    1
    52   107   110    1
    53   107   106    1
    54    69    67    1
    55   110   111    1
    56    15    16    1
    57   112   111   ar
    58   112   114   ar
    59    64    67    1
    60    64    65    1
    61    17    16    1
    62   102   101    2
    63    37    38    1
    64    38    39    1
    65    67    68    1
    66   111   113   ar
    67    66    65    2
    68   123   124    2
    69   106   101   am
    70   114   115   ar
    71   101   100    1
    72    41    39   am
    73    41    42    1
    74   104   103    1
    75    39    40    2
    76    48    46    1
    77   113   115   ar
    78    45    46    1
    79    45    42    1
    80    47    46    1
    81    44    43    2
    82   103   100    1
    83   103   105    1
    84    42    43    1
    85   100    99    1
    86    43    49   am
    87    62    60    1
    88    99    95   am
    89    60    61    1
    90    60    59    1
    91    49    50    1
    92    95    96    2
    93    95    94    1
    94    74    71    1
    95    97    94    1
    96    97    98    1
    97    50    51    1
    98    50    53    1
    99    94    93    1
   100    73    72    2
   101    51    55   am
   102    51    52    2
   103    55    56    1
   104    59    56    1
   105    56    57    1
   106    72    71    1
   107    71    70    1
   108    53    54    1
   109    88    87    2
   110    93    87   am
   111    57    58    2
   112    87    86    1
   113    90    91    1
   114    90    92    1
   115    90    89    1
   116    75    76    1
   117    86    89    1
   118    86    85    1
   119    81    82    1
   120    81    77   am
   121    82    83    1
   122    76    77    1
   123    76    79    1
   124    83    84    2
   125    77    78    2
   126    80    79    1
