@<TRIPOS>MOLECULE
tmp/5e7pA00.pdb
 133 122 0 0 0
SMALL
GASTEIGER

@<TRIPOS>ATOM
      1  N         54.2150   42.0920   71.4000 N.3   116  MET116     -0.1245
      2  CA        54.4030   41.9620   72.8390 C.3   116  MET116      0.1570
      3  C         55.6670   41.1680   73.1710 C.2   116  MET116      0.2261
      4  O         56.4360   41.5420   74.0580 O.2   116  MET116     -0.2867
      5  CB        53.1880   41.2810   73.4690 C.3   116  MET116      0.0387
      6  CG        53.2940   41.0840   74.9730 C.3   116  MET116      0.0595
      7  SD        51.9330   40.1010   75.6290 S.3   116  MET116     -0.1393
      8  CE        50.5260   41.0560   75.0650 C.3   116  MET116      0.0692
      9  N         58.8750   43.1880   72.0300 N.3   119  LEU119     -0.1245
     10  CA        58.8740   44.5990   72.4010 C.3   119  LEU119      0.1561
     11  C         60.2490   45.0660   72.8750 C.2   119  LEU119      0.2260
     12  O         60.8290   44.4860   73.7940 O.2   119  LEU119     -0.2867
     13  CB        57.8240   44.8600   73.4830 C.3   119  LEU119      0.0270
     14  CG        57.4310   46.3170   73.7360 C.3   119  LEU119      0.0019
     15  CD1       56.8290   46.9400   72.4810 C.3   119  LEU119      0.0001
     16  CD2       56.4520   46.4070   74.9000 C.3   119  LEU119      0.0001
     17  N         55.6160   50.0120   70.8240 N.3   170  PRO170     -0.2116
     18  CA        54.1650   49.8090   70.9000 C.3   170  PRO170      0.1372
     19  C         53.4210   50.3300   69.6660 C.2   170  PRO170      0.2244
     20  O         52.3730   49.7920   69.3190 O.2   170  PRO170     -0.2868
     21  CB        53.7700   50.6210   72.1290 C.3   170  PRO170      0.0268
     22  CG        54.9890   50.6060   72.9860 C.3   170  PRO170      0.0207
     23  CD        56.1470   50.6580   72.0390 C.3   170  PRO170      0.0892
     24  N         42.6950   44.0770   83.2090 N.3   203  VAL203     -0.1245
     25  CA        43.0940   45.0510   84.2190 C.3   203  VAL203      0.1561
     26  C         41.9300   45.9740   84.5750 C.2   203  VAL203      0.2260
     27  O         41.3670   46.6400   83.7070 O.2   203  VAL203     -0.2867
     28  CB        44.2880   45.8970   83.7420 C.3   203  VAL203      0.0252
     29  CG1       44.7810   46.7910   84.8630 C.3   203  VAL203      0.0019
     30  CG2       45.4100   44.9980   83.2480 C.3   203  VAL203      0.0019
     31  N         54.7440   52.1140   76.5780 N.3   250  GLY250     -0.1210
     32  CA        54.5100   50.9670   77.4350 C.3   250  GLY250      0.1956
     33  C         54.1950   51.3400   78.8680 C.2   250  GLY250      0.2612
     34  O         54.2330   50.4910   79.7600 O.2   250  GLY250     -0.2717
     35  N         53.8880   52.6130   79.0980 N.am  251  VAL251     -0.1965
     36  CA        53.5620   53.0680   80.4420 C.3   251  VAL251      0.1727
     37  C         52.1780   52.5680   80.8630 C.2   251  VAL251      0.2617
     38  O         51.8760   52.4800   82.0530 O.2   251  VAL251     -0.2715
     39  CB        53.6430   54.6040   80.5660 C.3   251  VAL251      0.0290
     40  CG1       52.3890   55.2530   80.0020 C.3   251  VAL251      0.0023
     41  CG2       53.8510   55.0080   82.0180 C.3   251  VAL251      0.0023
     42  N         51.3470   52.2270   79.8800 N.am  252  GLY252     -0.1940
     43  CA        50.0280   51.6830   80.1490 C.3   252  GLY252      0.2014
     44  C         48.8870   52.5710   79.6890 C.2   252  GLY252      0.2639
     45  O         47.8320   52.6050   80.3200 O.2   252  GLY252     -0.2714
     46  N         49.0880   53.2830   78.5840 N.am  253  LYS253     -0.1963
     47  CA        48.0650   54.1870   78.0650 C.3   253  LYS253      0.1728
     48  C         46.8360   53.4480   77.5260 C.2   253  LYS253      0.2616
     49  O         45.7000   53.8060   77.8360 O.2   253  LYS253     -0.2715
     50  CB        48.6500   55.0950   76.9850 C.3   253  LYS253      0.0311
     51  CG        49.7730   55.9890   77.4700 C.3   253  LYS253      0.0038
     52  CD        50.2900   56.8630   76.3370 C.3   253  LYS253      0.0206
     53  CE        50.8690   56.0310   75.2120 C.3   253  LYS253      0.1093
     54  NZ        52.0760   55.2750   75.6470 N.3   253  LYS253     -0.1314
     55  N         47.0650   52.4210   76.7160 N.am  254  ALA254     -0.1963
     56  CA        45.9670   51.6730   76.1110 C.3   254  ALA254      0.1728
     57  C         45.2130   50.8580   77.1550 C.2   254  ALA254      0.2616
     58  O         43.9870   50.7610   77.1140 O.2   254  ALA254     -0.2715
     59  CB        46.4830   50.7730   74.9930 C.3   254  ALA254      0.0334
     60  N         45.9520   50.2770   78.0940 N.am  255  THR255     -0.1951
     61  CA        45.3510   49.5070   79.1760 C.3   255  THR255      0.1897
     62  C         44.4490   50.3840   80.0450 C.2   255  THR255      0.2313
     63  O         43.3770   49.9570   80.4770 O.2   255  THR255     -0.2863
     64  CB        46.4330   48.8360   80.0460 C.3   255  THR255      0.1794
     65  OG1       47.1750   47.9030   79.2490 O.3   255  THR255     -0.2208
     66  CG2       45.8060   48.1020   81.2210 C.3   255  THR255      0.0378
     67  N         41.0850   51.0200   78.1110 N.3   258  ARG258     -0.1245
     68  CA        40.2120   49.8530   78.1550 C.3   258  ARG258      0.1563
     69  C         39.5820   49.6850   79.5360 C.2   258  ARG258      0.2260
     70  O         38.4050   49.3330   79.6570 O.2   258  ARG258     -0.2867
     71  CB        40.9810   48.5910   77.7600 C.3   258  ARG258      0.0307
     72  CG        41.6640   48.6970   76.4060 C.3   258  ARG258      0.0489
     73  CD        42.2100   47.3580   75.9350 C.3   258  ARG258      0.2205
     74  NE        42.9170   47.4950   74.6650 N.pl3 258  ARG258     -0.0865
     75  CZ        44.2360   47.6240   74.5490 C.cat 258  ARG258      0.5346
     76  NH1       45.0040   47.6160   75.6320 N.pl3 258  ARG258      0.1354
     77  NH2       44.7880   47.7470   73.3480 N.pl3 258  ARG258      0.1354
     78  N         47.5870   53.9770   69.7070 N.3   304  ASP304     -0.1239
     79  CA        48.7690   54.4290   68.9750 C.3   304  ASP304      0.1674
     80  C         48.4070   54.9880   67.5980 C.2   304  ASP304      0.2266
     81  O         48.7900   54.4450   66.5580 O.2   304  ASP304     -0.2867
     82  CB        49.8100   53.3090   68.8830 C.3   304  ASP304      0.1410
     83  CG        50.1970   52.7670   70.2520 C.2   304  ASP304      0.3668
     84  OD1       50.9790   53.4370   70.9620 O.co2 304  ASP304     -0.2456
     85  OD2       49.7110   51.6760   70.6220 O.co2 304  ASP304     -0.2456
     86  N         45.4420   57.0410   71.6780 N.3   343  THR343     -0.1218
     87  CA        46.7030   57.0800   72.4040 C.3   343  THR343      0.1862
     88  C         47.8740   57.3320   71.4610 C.2   343  THR343      0.2287
     89  O         47.7800   57.1020   70.2540 O.2   343  THR343     -0.2866
     90  CB        46.9610   55.7790   73.1840 C.3   343  THR343      0.1770
     91  OG1       46.9900   54.6760   72.2730 O.3   343  THR343     -0.2211
     92  CG2       45.8720   55.5480   74.2310 C.3   343  THR343      0.0375
     93  N         53.0860   47.8470   90.8850 N.3   377  LEU377     -0.1245
     94  CA        52.9480   47.1550   89.6130 C.3   377  LEU377      0.1561
     95  C         53.4670   45.7190   89.6880 C.2   377  LEU377      0.2260
     96  O         52.8340   44.7970   89.1720 O.2   377  LEU377     -0.2867
     97  CB        53.6650   47.9300   88.5060 C.3   377  LEU377      0.0270
     98  CG        53.0330   49.2750   88.1420 C.3   377  LEU377      0.0019
     99  CD1       53.9150   50.0460   87.1740 C.3   377  LEU377      0.0001
    100  CD2       51.6420   49.0720   87.5570 C.3   377  LEU377      0.0001
    101  N         51.1410   43.4940   91.5110 N.3   380  MET380     -0.1230
    102  CA        50.0260   43.2460   90.6050 C.3   380  MET380      0.1702
    103  C         50.3830   42.2010   89.5430 C.2   380  MET380      0.2592
    104  O         49.5860   41.3100   89.2360 O.2   380  MET380     -0.2718
    105  CB        49.6060   44.5520   89.9330 C.3   380  MET380      0.0401
    106  CG        48.4000   44.4240   89.0260 C.3   380  MET380      0.0596
    107  SD        47.9420   45.9960   88.2710 S.3   380  MET380     -0.1393
    108  CE        47.8220   47.0570   89.7100 C.3   380  MET380      0.0692
    109  N         51.5890   42.3160   88.9900 N.am  381  LEU381     -0.1980
    110  CA        52.0630   41.3930   87.9610 C.3   381  LEU381      0.1596
    111  C         52.3080   39.9870   88.5080 C.2   381  LEU381      0.2287
    112  O         52.3940   39.0230   87.7480 O.2   381  LEU381     -0.2864
    113  CB        53.3480   41.9240   87.3140 C.3   381  LEU381      0.0297
    114  CG        53.2080   43.1370   86.3940 C.3   381  LEU381      0.0022
    115  CD1       54.5530   43.8030   86.1640 C.3   381  LEU381      0.0001
    116  CD2       52.5840   42.7240   85.0740 C.3   381  LEU381      0.0001
    117  N         55.5990   49.6150   83.1310 N.3   404  VAL404     -0.1231
    118  CA        54.9360   48.3470   83.4200 C.3   404  VAL404      0.1692
    119  C         55.2680   47.2800   82.3710 C.2   404  VAL404      0.2591
    120  O         55.4050   46.0950   82.6960 O.2   404  VAL404     -0.2718
    121  CB        53.3990   48.5180   83.5780 C.3   404  VAL404      0.0266
    122  CG1       52.7770   49.1250   82.3210 C.3   404  VAL404      0.0020
    123  CG2       52.7410   47.1880   83.9270 C.3   404  VAL404      0.0020
    124  N         55.4190   47.7110   81.1210 N.am  405  ALA405     -0.1980
    125  CA        55.7700   46.8060   80.0320 C.3   405  ALA405      0.1597
    126  C         57.1060   46.1330   80.3170 C.2   405  ALA405      0.2287
    127  O         57.2540   44.9220   80.1480 O.2   405  ALA405     -0.2864
    128  CB        55.8220   47.5580   78.7110 C.3   405  ALA405      0.0319
    129  N         56.8040   43.8340   83.3530 N.3   408  ALA408     -0.1245
    130  CA        56.1570   42.6040   82.9180 C.3   408  ALA408      0.1562
    131  C         57.1810   41.6810   82.2650 C.2   408  ALA408      0.2260
    132  O         57.2100   40.4810   82.5370 O.2   408  ALA408     -0.2867
    133  CB        55.0210   42.9070   81.9560 C.3   408  ALA408      0.0290
@<TRIPOS>BOND
     1    81    80    2
     2    80    79    1
     3    82    79    1
     4    82    83    1
     5    79    78    1
     6    20    19    2
     7    19    18    1
     8    83    85   ar
     9    83    84   ar
    10    89    88    2
    11    17    18    1
    12    17    23    1
    13    18    21    1
    14     1     2    1
    15    88    87    1
    16    86    87    1
    17     9    10    1
    18    23    22    1
    19    21    22    1
    20    91    90    1
    21    10    11    1
    22    10    13    1
    23    87    90    1
    24    15    14    1
    25     2     3    1
    26     2     5    1
    27    11    12    2
    28     3     4    2
    29    90    92    1
    30    77    75    1
    31     5     6    1
    32    13    14    1
    33    14    16    1
    34    75    74    2
    35    75    76    1
    36    74    73    1
    37     6     7    1
    38    59    56    1
    39     8     7    1
    40    53    54    1
    41    53    52    1
    42    73    72    1
    43    56    55    1
    44    56    57    1
    45    52    51    1
    46    72    71    1
    47    31    32    1
    48    55    48   am
    49    50    51    1
    50    50    47    1
    51    58    57    2
    52    57    60   am
    53    32    33    1
    54    48    49    2
    55    48    47    1
    56    71    68    1
    57    47    46    1
    58    60    61    1
    59    67    68    1
    60    68    69    1
    61    46    44   am
    62   128   125    1
    63    33    35   am
    64    33    34    2
    65    35    36    1
    66    61    62    1
    67    61    64    1
    68    65    64    1
    69    69    70    2
    70    44    43    1
    71    44    45    2
    72    42    43    1
    73    42    37   am
    74    40    39    1
    75   125   126    1
    76   125   124    1
    77    62    63    2
    78    64    66    1
    79   127   126    2
    80    36    39    1
    81    36    37    1
    82    39    41    1
    83    37    38    2
    84   124   119   am
    85   133   130    1
    86   131   132    2
    87   131   130    1
    88   122   121    1
    89   119   120    2
    90   119   118    1
    91   130   129    1
    92   117   118    1
    93    24    25    1
    94    30    28    1
    95   118   121    1
    96   121   123    1
    97    27    26    2
    98    28    25    1
    99    28    29    1
   100    25    26    1
   101   116   114    1
   102   115   114    1
   103   114   113    1
   104    99    98    1
   105   113   110    1
   106   100    98    1
   107   112   111    2
   108   110   111    1
   109   110   109    1
   110    98    97    1
   111   107   106    1
   112   107   108    1
   113    97    94    1
   114   109   103   am
   115   106   105    1
   116    96    95    2
   117   104   103    2
   118   103   102    1
   119    94    95    1
   120    94    93    1
   121   105   102    1
   122   102   101    1
