@<TRIPOS>MOLECULE
tmp/5e7pB02.pdb
 94 87 0 0 0
SMALL
GASTEIGER

@<TRIPOS>ATOM
      1  N         24.5530   55.3210  121.9960 N.3    92  GLY92      -0.1210
      2  CA        25.6930   54.4800  121.7010 C.3    92  GLY92       0.1956
      3  C         26.2630   53.9900  123.0160 C.2    92  GLY92       0.2612
      4  O         26.4080   54.7670  123.9600 O.2    92  GLY92      -0.2717
      5  N         26.5720   52.7010  123.0840 N.am   93  ALA93      -0.1965
      6  CA        27.0850   52.1020  124.3060 C.3    93  ALA93       0.1728
      7  C         28.4820   52.6100  124.6530 C.2    93  ALA93       0.2616
      8  O         29.3390   52.7480  123.7800 O.2    93  ALA93      -0.2715
      9  CB        27.1040   50.5900  124.1710 C.3    93  ALA93       0.0334
     10  N         28.7060   52.8970  125.9310 N.am   94  ARG94      -0.1963
     11  CA        30.0660   53.0560  126.4250 C.3    94  ARG94       0.1729
     12  C         30.6400   51.6610  126.6060 C.2    94  ARG94       0.2616
     13  O         31.7350   51.3590  126.1380 O.2    94  ARG94      -0.2715
     14  CB        30.1020   53.8370  127.7390 C.3    94  ARG94       0.0348
     15  CG        30.0010   55.3430  127.5560 C.3    94  ARG94       0.0492
     16  CD        30.3010   56.0880  128.8480 C.3    94  ARG94       0.2205
     17  NE        29.2570   55.8970  129.8520 N.pl3  94  ARG94      -0.0865
     18  CZ        28.1860   56.6760  129.9770 C.cat  94  ARG94       0.5346
     19  NH1       28.0110   57.7050  129.1580 N.pl3  94  ARG94       0.1354
     20  NH2       27.2890   56.4250  130.9220 N.pl3  94  ARG94       0.1354
     21  N         29.8790   50.7970  127.2640 N.am   95  SER95      -0.1950
     22  CA        30.2820   49.4060  127.4020 C.3    95  SER95       0.1924
     23  C         29.0880   48.4650  127.3650 C.2    95  SER95       0.2314
     24  O         27.9560   48.8620  127.6430 O.2    95  SER95      -0.2863
     25  CB        31.0970   49.1900  128.6820 C.3    95  SER95       0.2116
     26  OG        30.3980   49.6370  129.8280 O.3    95  SER95      -0.2180
     27  N         28.5680   50.3720  119.1340 N.3   168  GLN168     -0.1245
     28  CA        29.1780   51.2850  118.1810 C.3   168  GLN168      0.1566
     29  C         30.6750   50.9910  118.0880 C.2   168  GLN168      0.2260
     30  O         31.2140   50.2740  118.9280 O.2   168  GLN168     -0.2867
     31  CB        28.9320   52.7280  118.6280 C.3   168  GLN168      0.0367
     32  CG        27.4690   53.1230  118.6690 C.3   168  GLN168      0.0905
     33  CD        26.8230   53.1150  117.2970 C.2   168  GLN168      0.2608
     34  OE1       27.4630   53.4400  116.2970 O.2   168  GLN168     -0.2717
     35  NE2       25.5480   52.7380  117.2410 N.am  168  GLN168     -0.0878
     36  N         32.9910   52.8890  118.8070 N.3   170  ASN170     -0.1240
     37  CA        33.6070   53.4780  119.9930 C.3   170  ASN170      0.1653
     38  C         33.0470   52.8860  121.2890 C.2   170  ASN170      0.2266
     39  O         33.1640   53.4800  122.3540 O.2   170  ASN170     -0.2867
     40  CB        33.4610   55.0050  119.9840 C.3   170  ASN170      0.1155
     41  CG        32.0160   55.4490  119.8860 C.2   170  ASN170      0.2627
     42  OD1       31.1300   54.6410  119.6250 O.2   170  ASN170     -0.2716
     43  ND2       31.7730   56.7390  120.0870 N.am  170  ASN170     -0.0877
     44  N         32.9670   49.4160  123.9040 N.3   172  VAL172     -0.1245
     45  CA        33.7120   48.2130  124.2440 C.3   172  VAL172      0.1561
     46  C         32.7310   47.0980  124.5940 C.2   172  VAL172      0.2260
     47  O         31.7500   47.3190  125.3060 O.2   172  VAL172     -0.2867
     48  CB        34.7300   48.4440  125.3990 C.3   172  VAL172      0.0252
     49  CG1       34.0430   48.9710  126.6520 C.3   172  VAL172      0.0019
     50  CG2       35.4880   47.1600  125.7080 C.3   172  VAL172      0.0019
     51  N         38.1790   52.6410  123.4270 N.3   262  PRO262     -0.2116
     52  CA        37.1070   52.1000  124.2710 C.3   262  PRO262      0.1372
     53  C         37.5760   51.1340  125.3650 C.2   262  PRO262      0.2244
     54  O         37.0270   51.1750  126.4660 O.2   262  PRO262     -0.2868
     55  CB        36.2110   51.3760  123.2640 C.3   262  PRO262      0.0268
     56  CG        36.4050   52.1410  122.0030 C.3   262  PRO262      0.0207
     57  CD        37.8630   52.5010  121.9940 C.3   262  PRO262      0.0892
     58  N         39.4770   53.2850  127.9680 N.3   265  GLY265     -0.1210
     59  CA        38.4680   54.1460  128.5620 C.3   265  GLY265      0.1956
     60  C         37.5580   53.4540  129.5640 C.2   265  GLY265      0.2611
     61  O         36.9860   54.1030  130.4400 O.2   265  GLY265     -0.2717
     62  N         37.4250   52.1360  129.4420 N.am  266  ALA266     -0.1979
     63  CA        36.5550   51.3680  130.3300 C.3   266  ALA266      0.1597
     64  C         37.2790   50.9020  131.5880 C.2   266  ALA266      0.2287
     65  O         36.6430   50.5380  132.5770 O.2   266  ALA266     -0.2864
     66  CB        35.9690   50.1790  129.5980 C.3   266  ALA266      0.0319
     67  N         37.7510   59.2650  121.4870 N.3   296  ASP296     -0.1225
     68  CA        36.6630   59.9610  122.1770 C.3   296  ASP296      0.1805
     69  C         36.1110   59.1320  123.3370 C.2   296  ASP296      0.2597
     70  O         35.4580   59.6570  124.2360 O.2   296  ASP296     -0.2718
     71  CB        35.5400   60.3320  121.2050 C.3   296  ASP296      0.1424
     72  CG        34.9750   59.1270  120.4760 C.2   296  ASP296      0.3668
     73  OD1       35.7550   58.3890  119.8380 O.co2 296  ASP296     -0.2456
     74  OD2       33.7480   58.9120  120.5480 O.co2 296  ASP296     -0.2456
     75  N         36.3820   57.8340  123.3080 N.am  297  ALA297     -0.1979
     76  CA        35.9970   56.9370  124.3890 C.3   297  ALA297      0.1597
     77  C         36.9840   57.0290  125.5570 C.2   297  ALA297      0.2287
     78  O         36.6490   56.6980  126.6940 O.2   297  ALA297     -0.2864
     79  CB        35.9260   55.5190  123.8690 C.3   297  ALA297      0.0319
     80  N         36.6450   61.7990  126.4720 N.3   300  PRO300     -0.2116
     81  CA        35.3660   62.3980  126.0750 C.3   300  PRO300      0.1372
     82  C         35.3620   63.9030  126.3080 C.2   300  PRO300      0.2244
     83  O         35.9970   64.3760  127.2470 O.2   300  PRO300     -0.2868
     84  CB        34.3590   61.7150  127.0010 C.3   300  PRO300      0.0268
     85  CG        35.1620   61.2810  128.1810 C.3   300  PRO300      0.0207
     86  CD        36.5000   60.9090  127.6370 C.3   300  PRO300      0.0892
     87  N         33.4540   65.3780  120.0440 N.3   339  ASN339     -0.1240
     88  CA        33.1850   64.4500  121.1360 C.3   339  ASN339      0.1653
     89  C         34.4500   64.1450  121.9330 C.2   339  ASN339      0.2266
     90  O         34.4020   63.4910  122.9750 O.2   339  ASN339     -0.2867
     91  CB        32.5580   63.1580  120.6080 C.3   339  ASN339      0.1155
     92  CG        31.0520   63.2640  120.4520 C.2   339  ASN339      0.2627
     93  OD1       30.4680   64.3310  120.6530 O.2   339  ASN339     -0.2716
     94  ND2       30.4150   62.1560  120.0850 N.am  339  ASN339     -0.0877
@<TRIPOS>BOND
     1    34    33    2
     2    35    33   am
     3    33    32    1
     4    29    28    1
     5    29    30    2
     6    28    31    1
     7    28    27    1
     8    31    32    1
     9    36    37    1
    10    42    41    2
    11    73    72   ar
    12    41    40    1
    13    41    43   am
    14    40    37    1
    15    37    38    1
    16    87    88    1
    17    94    92   am
    18    92    91    1
    19    92    93    2
    20    72    74   ar
    21    72    71    1
    22    91    88    1
    23    88    89    1
    24    71    68    1
    25    38    39    2
    26    67    68    1
    27     2     1    1
    28     2     3    1
    29    89    90    2
    30    57    56    1
    31    57    51    1
    32    56    55    1
    33    68    69    1
    34     3     5   am
    35     3     4    2
    36     5     6    1
    37    55    52    1
    38    75    69   am
    39    75    76    1
    40    69    70    2
    41    51    52    1
    42     8     7    2
    43    79    76    1
    44    44    45    1
    45     9     6    1
    46    45    46    1
    47    45    48    1
    48    52    53    1
    49     6     7    1
    50    76    77    1
    51    46    47    2
    52     7    10   am
    53    53    54    2
    54    48    50    1
    55    48    49    1
    56    77    78    2
    57    10    11    1
    58    81    82    1
    59    81    80    1
    60    81    84    1
    61    13    12    2
    62    82    83    2
    63    11    12    1
    64    11    14    1
    65    80    86    1
    66    12    21   am
    67    84    85    1
    68    21    22    1
    69    23    22    1
    70    23    24    2
    71    22    25    1
    72    15    14    1
    73    15    16    1
    74    86    85    1
    75    58    59    1
    76    59    60    1
    77    25    26    1
    78    16    17    1
    79    19    18    1
    80    62    60   am
    81    62    63    1
    82    60    61    2
    83    66    63    1
    84    17    18    2
    85    18    20    1
    86    63    64    1
    87    64    65    2
