@<TRIPOS>MOLECULE
tmp/5e7pB03.pdb
 109 105 0 0 0
SMALL
GASTEIGER

@<TRIPOS>ATOM
      1  N         35.2290   61.1290  110.7130 N.3   237  GLY237     -0.1210
      2  CA        34.3920   60.6090  109.6500 C.3   237  GLY237      0.1940
      3  C         33.3850   59.6260  110.2150 C.2   237  GLY237      0.2453
      4  O         33.5230   59.1880  111.3580 O.2   237  GLY237     -0.2732
      5  N         32.3750   59.2610  109.4110 N.am  238  PRO238     -0.2728
      6  CA        31.2400   58.4250  109.8260 C.3   238  PRO238      0.1401
      7  C         31.6720   57.1170  110.4840 C.2   238  PRO238      0.2269
      8  O         32.7420   56.5940  110.1760 O.2   238  PRO238     -0.2865
      9  CB        30.5220   58.1290  108.5060 C.3   238  PRO238      0.0296
     10  CG        30.9340   59.2290  107.5940 C.3   238  PRO238      0.0237
     11  CD        32.3400   59.5630  107.9710 C.3   238  PRO238      0.0939
     12  N         34.8390   59.2920  115.4720 N.3   335  ALA335     -0.1231
     13  CA        33.7580   59.5340  114.5200 C.3   335  ALA335      0.1694
     14  C         33.3890   61.0130  114.4650 C.2   335  ALA335      0.2592
     15  O         33.3570   61.6120  113.3910 O.2   335  ALA335     -0.2718
     16  CB        32.5430   58.6910  114.8600 C.3   335  ALA335      0.0304
     17  N         33.1350   61.5970  115.6300 N.am  336  VAL336     -0.1966
     18  CA        32.7940   63.0110  115.7260 C.3   336  VAL336      0.1712
     19  C         33.8560   63.7410  116.5430 C.2   336  VAL336      0.2458
     20  O         34.0480   63.4440  117.7240 O.2   336  VAL336     -0.2730
     21  CB        31.4040   63.2100  116.3670 C.3   336  VAL336      0.0289
     22  CG1       31.0500   64.6860  116.4350 C.3   336  VAL336      0.0023
     23  CG2       30.3500   62.4350  115.5870 C.3   336  VAL336      0.0023
     24  N         34.5440   64.7080  115.9140 N.am  337  PRO337     -0.2727
     25  CA        35.7160   65.3790  116.4900 C.3   337  PRO337      0.1402
     26  C         35.4100   66.1450  117.7740 C.2   337  PRO337      0.2269
     27  O         36.2480   66.1690  118.6740 O.2   337  PRO337     -0.2865
     28  CB        36.1450   66.3570  115.3880 C.3   337  PRO337      0.0296
     29  CG        35.4860   65.8750  114.1500 C.3   337  PRO337      0.0237
     30  CD        34.2040   65.2450  114.5870 C.3   337  PRO337      0.0939
     31  N         39.1310   64.6220  107.8020 N.3   355  GLY355     -0.1210
     32  CA        37.8150   64.0050  107.7870 C.3   355  GLY355      0.1956
     33  C         37.5980   63.1040  106.5860 C.2   355  GLY355      0.2612
     34  O         37.9130   63.4770  105.4590 O.2   355  GLY355     -0.2717
     35  N         37.0590   61.9140  106.8310 N.am  356  LEU356     -0.1965
     36  CA        36.7760   60.9570  105.7660 C.3   356  LEU356      0.1728
     37  C         35.3080   61.0150  105.3630 C.2   356  LEU356      0.2617
     38  O         34.4720   61.5290  106.1070 O.2   356  LEU356     -0.2715
     39  CB        37.1490   59.5420  106.2060 C.3   356  LEU356      0.0311
     40  CG        38.5250   59.0350  105.7720 C.3   356  LEU356      0.0022
     41  CD1       39.5780   60.1250  105.8920 C.3   356  LEU356      0.0001
     42  CD2       38.9140   57.8120  106.5890 C.3   356  LEU356      0.0001
     43  N         34.9950   60.4850  104.1840 N.am  357  SER357     -0.1936
     44  CA        33.6410   60.5850  103.6520 C.3   357  SER357      0.2055
     45  C         32.9930   59.2290  103.3640 C.2   357  SER357      0.2642
     46  O         33.6790   58.2300  103.1560 O.2   357  SER357     -0.2714
     47  CB        33.6330   61.4510  102.3880 C.3   357  SER357      0.2130
     48  OG        34.4820   60.9060  101.3940 O.3   357  SER357     -0.2179
     49  N         31.6620   59.2140  103.3660 N.am  358  LEU358     -0.1977
     50  CA        30.8780   58.0500  102.9720 C.3   358  LEU358      0.1596
     51  C         31.2190   57.6710  101.5400 C.2   358  LEU358      0.2287
     52  O         31.4790   58.5440  100.7130 O.2   358  LEU358     -0.2864
     53  CB        29.3790   58.3680  103.0450 C.3   358  LEU358      0.0297
     54  CG        28.7240   58.7290  104.3810 C.3   358  LEU358      0.0022
     55  CD1       27.3470   59.3450  104.1440 C.3   358  LEU358      0.0001
     56  CD2       28.6070   57.5040  105.2620 C.3   358  LEU358      0.0001
     57  N         25.6550   61.3500  109.3940 N.3   446  VAL446     -0.1245
     58  CA        25.5460   61.4930  107.9480 C.3   446  VAL446      0.1561
     59  C         25.2950   60.1370  107.2960 C.2   446  VAL446      0.2260
     60  O         25.9320   59.1420  107.6390 O.2   446  VAL446     -0.2867
     61  CB        26.7880   62.1720  107.3350 C.3   446  VAL446      0.0252
     62  CG1       26.9510   63.5790  107.8970 C.3   446  VAL446      0.0019
     63  CG2       28.0250   61.3550  107.6030 C.3   446  VAL446      0.0019
     64  N         23.9230   65.4600  101.9160 N.3   507  ALA507     -0.1231
     65  CA        25.1710   65.1110  102.5750 C.3   507  ALA507      0.1694
     66  C         25.4120   63.6050  102.5670 C.2   507  ALA507      0.2592
     67  O         26.4490   63.1440  103.0240 O.2   507  ALA507     -0.2718
     68  CB        25.1760   65.6400  104.0020 C.3   507  ALA507      0.0304
     69  N         24.4530   62.8420  102.0550 N.am  508  SER508     -0.1952
     70  CA        24.5860   61.3910  101.9940 C.3   508  SER508      0.1924
     71  C         25.0420   60.9220  100.6190 C.2   508  SER508      0.2314
     72  O         25.1010   59.7200  100.3590 O.2   508  SER508     -0.2863
     73  CB        23.2590   60.7200  102.3500 C.3   508  SER508      0.2116
     74  OG        22.8160   61.1200  103.6350 O.3   508  SER508     -0.2180
     75  N         27.9530   61.0110   99.1390 N.3   510  GLY510     -0.1225
     76  CA        29.2190   60.3010   99.1270 C.3   510  GLY510      0.1811
     77  C         30.3420   61.1230   98.5240 C.2   510  GLY510      0.2280
     78  O         30.1030   62.1740   97.9270 O.2   510  GLY510     -0.2866
     79  N         32.2330   63.4570   99.0190 N.3   512  LEU512     -0.1231
     80  CA        32.5360   64.7560   99.6170 C.3   512  LEU512      0.1693
     81  C         32.3760   64.7290  101.1400 C.2   512  LEU512      0.2593
     82  O         31.3430   64.3170  101.6510 O.2   512  LEU512     -0.2718
     83  CB        31.6620   65.8510   98.9950 C.3   512  LEU512      0.0284
     84  CG        30.1430   65.7080   99.1210 C.3   512  LEU512      0.0019
     85  CD1       29.5950   66.6600  100.1720 C.3   512  LEU512      0.0001
     86  CD2       29.4660   65.9410   97.7800 C.3   512  LEU512      0.0001
     87  N         33.4010   65.1630  101.8650 N.am  513  SER513     -0.1938
     88  CA        33.3250   65.1800  103.3230 C.3   513  SER513      0.2055
     89  C         32.3570   66.2550  103.8100 C.2   513  SER513      0.2643
     90  O         32.2170   67.3080  103.1910 O.2   513  SER513     -0.2714
     91  CB        34.7100   65.3650  103.9520 C.3   513  SER513      0.2130
     92  OG        35.3170   66.5700  103.5240 O.3   513  SER513     -0.2179
     93  N         31.6900   65.9770  104.9240 N.am  514  VAL514     -0.1963
     94  CA        30.6840   66.8760  105.4700 C.3   514  VAL514      0.1727
     95  C         31.0740   67.3470  106.8680 C.2   514  VAL514      0.2616
     96  O         31.3950   66.5370  107.7360 O.2   514  VAL514     -0.2715
     97  CB        29.3130   66.1890  105.5320 C.3   514  VAL514      0.0290
     98  CG1       28.2860   67.1110  106.1660 C.3   514  VAL514      0.0023
     99  CG2       28.8720   65.7690  104.1370 C.3   514  VAL514      0.0023
    100  N         31.0420   68.6580  107.0810 N.am  515  HIS515     -0.1973
    101  CA        31.4450   69.2350  108.3570 C.3   515  HIS515      0.1656
    102  C         30.3760   70.1810  108.8890 C.2   515  HIS515      0.2291
    103  O         30.4080   71.3840  108.6320 O.2   515  HIS515     -0.2864
    104  CB        32.7890   69.9460  108.2010 C.3   515  HIS515      0.0771
    105  CG        33.8100   69.1250  107.4770 C.ar  515  HIS515      0.0820
    106  ND1       34.6480   68.2420  108.1220 N.ar  515  HIS515     -0.2267
    107  CD2       34.1030   69.0290  106.1590 C.ar  515  HIS515      0.1154
    108  CE1       35.4280   67.6500  107.2340 C.ar  515  HIS515      0.1986
    109  NE2       35.1150   68.1090  106.0360 N.ar  515  HIS515     -0.2212
@<TRIPOS>BOND
     1    86    84    1
     2    78    77    2
     3    77    76    1
     4    83    84    1
     5    83    80    1
     6    79    80    1
     7    84    85    1
     8    76    75    1
     9    80    81    1
    10    72    71    2
    11    71    70    1
    12    52    51    2
    13    81    82    2
    14    81    87   am
    15    48    47    1
    16    51    50    1
    17    87    88    1
    18    64    65    1
    19    70    69    1
    20    70    73    1
    21    69    66   am
    22    73    74    1
    23    47    44    1
    24    66    65    1
    25    66    67    2
    26    65    68    1
    27    50    53    1
    28    50    49    1
    29    53    54    1
    30    46    45    2
    31    90    89    2
    32    88    89    1
    33    88    91    1
    34    45    49   am
    35    45    44    1
    36    92    91    1
    37    44    43    1
    38    89    93   am
    39    99    97    1
    40    55    54    1
    41    43    37   am
    42    54    56    1
    43    93    94    1
    44    37    36    1
    45    37    38    2
    46    34    33    2
    47    94    97    1
    48    94    95    1
    49    97    98    1
    50    36    39    1
    51    36    35    1
    52    40    41    1
    53    40    39    1
    54    40    42    1
    55   109   107   ar
    56   109   108   ar
    57   107   105   ar
    58    33    35   am
    59    33    32    1
    60    95   100   am
    61    95    96    2
    62   100   101    1
    63   108   106   ar
    64    59    60    2
    65    59    58    1
    66    61    63    1
    67    61    62    1
    68    61    58    1
    69   105   106   ar
    70   105   104    1
    71    10    11    1
    72    10     9    1
    73    32    31    1
    74    58    57    1
    75    11     5    1
    76   104   101    1
    77   101   102    1
    78     9     6    1
    79   103   102    2
    80     5     6    1
    81     5     3   am
    82     2     3    1
    83     2     1    1
    84     6     7    1
    85     8     7    2
    86     3     4    2
    87    15    14    2
    88    29    30    1
    89    29    28    1
    90    14    13    1
    91    14    17   am
    92    13    16    1
    93    13    12    1
    94    30    24    1
    95    28    25    1
    96    23    21    1
    97    17    18    1
    98    18    21    1
    99    18    19    1
   100    24    25    1
   101    24    19   am
   102    21    22    1
   103    25    26    1
   104    19    20    2
   105    26    27    2
