@<TRIPOS>MOLECULE
tmp/5e7pA01.pdb
 140 132 0 0 0
SMALL
GASTEIGER

@<TRIPOS>ATOM
      1  N         68.3180   59.0310   73.7230 N.3   451  GLU451     -0.1245
      2  CA        67.8120   59.9950   74.6930 C.3   451  GLU451      0.1567
      3  C         66.5220   60.6390   74.1820 C.2   451  GLU451      0.2260
      4  O         65.9160   60.1500   73.2260 O.2   451  GLU451     -0.2867
      5  CB        68.8750   61.0560   74.9990 C.3   451  GLU451      0.0388
      6  CG        68.8220   61.6220   76.4160 C.3   451  GLU451      0.1160
      7  CD        70.0300   62.4800   76.7470 C.2   451  GLU451      0.3649
      8  OE1       71.1580   62.0850   76.3840 O.co2 451  GLU451     -0.2457
      9  OE2       69.8540   63.5530   77.3600 O.co2 451  GLU451     -0.2457
     10  N         73.4130   59.0180   86.3690 N.3   461  ASP461     -0.1239
     11  CA        74.1560   59.1490   85.1200 C.3   461  ASP461      0.1674
     12  C         74.7430   60.5500   84.9850 C.2   461  ASP461      0.2266
     13  O         75.5870   60.8070   84.1250 O.2   461  ASP461     -0.2867
     14  CB        73.2510   58.8380   83.9280 C.3   461  ASP461      0.1410
     15  CG        72.6040   57.4690   84.0290 C.2   461  ASP461      0.3668
     16  OD1       73.2930   56.5150   84.4510 O.co2 461  ASP461     -0.2456
     17  OD2       71.4050   57.3490   83.6950 O.co2 461  ASP461     -0.2456
     18  N         77.1150   63.1980   86.3740 N.3   463  GLY463     -0.1225
     19  CA        78.2530   63.4510   87.2360 C.3   463  GLY463      0.1811
     20  C         78.2230   64.8780   87.7430 C.2   463  GLY463      0.2280
     21  O         77.8740   65.7930   86.9970 O.2   463  GLY463     -0.2866
     22  N         77.1530   68.3020   89.2330 N.3   465  MET465     -0.1245
     23  CA        76.0020   69.1910   89.3610 C.3   465  MET465      0.1570
     24  C         75.3240   69.1760   90.7370 C.2   465  MET465      0.2261
     25  O         74.1050   69.2860   90.8380 O.2   465  MET465     -0.2867
     26  CB        75.0180   68.9540   88.2160 C.3   465  MET465      0.0387
     27  CG        75.6770   69.1490   86.8580 C.3   465  MET465      0.0595
     28  SD        74.5350   69.5810   85.5430 S.3   465  MET465     -0.1393
     29  CE        74.5250   68.0590   84.6120 C.3   465  MET465      0.0692
     30  N         76.5960   77.8730   79.8810 N.3   502  PRO502     -0.2103
     31  CA        77.3450   77.6200   78.6460 C.3   502  PRO502      0.1489
     32  C         77.0860   76.2050   78.1420 C.2   502  PRO502      0.2418
     33  O         76.7470   75.3340   78.9440 O.2   502  PRO502     -0.2734
     34  CB        78.8040   77.7780   79.0840 C.3   502  PRO502      0.0282
     35  CG        78.7920   77.5220   80.5510 C.3   502  PRO502      0.0208
     36  CD        77.4810   78.0400   81.0450 C.3   502  PRO502      0.0893
     37  N         77.2310   75.9800   76.8260 N.am  503  PRO503     -0.2718
     38  CA        76.9520   74.6760   76.2130 C.3   503  PRO503      0.1535
     39  C         77.8060   73.5560   76.7980 C.2   503  PRO503      0.2599
     40  O         78.9200   73.8010   77.2640 O.2   503  PRO503     -0.2715
     41  CB        77.3230   74.8950   74.7410 C.3   503  PRO503      0.0310
     42  CG        77.2070   76.3620   74.5350 C.3   503  PRO503      0.0237
     43  CD        77.6440   76.9790   75.8250 C.3   503  PRO503      0.0939
     44  N         77.2750   72.3380   76.7690 N.am  504  GLY504     -0.1941
     45  CA        77.9980   71.1660   77.2260 C.3   504  GLY504      0.2014
     46  C         78.2860   71.1480   78.7140 C.2   504  GLY504      0.2639
     47  O         79.2830   70.5740   79.1470 O.2   504  GLY504     -0.2714
     48  N         77.4110   71.7670   79.5020 N.am  505  CYS505     -0.1953
     49  CA        77.5970   71.8170   80.9490 C.3   505  CYS505      0.1843
     50  C         76.4470   71.1670   81.7130 C.2   505  CYS505      0.2626
     51  O         76.4190   71.1870   82.9450 O.2   505  CYS505     -0.2714
     52  CB        77.8060   73.2550   81.4140 C.3   505  CYS505      0.0997
     53  SG        79.3420   73.9760   80.8210 S.3   505  CYS505     -0.0797
     54  N         75.4990   70.5980   80.9760 N.am  506  GLY506     -0.1940
     55  CA        74.4630   69.7690   81.5670 C.3   506  GLY506      0.2014
     56  C         73.1500   70.4330   81.9370 C.2   506  GLY506      0.2639
     57  O         72.3160   69.8150   82.5960 O.2   506  GLY506     -0.2714
     58  N         72.9560   71.6810   81.5190 N.am  507  LYS507     -0.1963
     59  CA        71.7210   72.3960   81.8270 C.3   507  LYS507      0.1728
     60  C         70.4870   71.6770   81.2810 C.2   507  LYS507      0.2617
     61  O         69.4200   71.7230   81.8850 O.2   507  LYS507     -0.2715
     62  CB        71.7760   73.8390   81.3220 C.3   507  LYS507      0.0311
     63  CG        72.4140   73.9960   79.9610 C.3   507  LYS507      0.0038
     64  CD        72.0930   75.3500   79.3600 C.3   507  LYS507      0.0206
     65  CE        70.6610   75.3910   78.8450 C.3   507  LYS507      0.1093
     66  NZ        70.4540   74.4820   77.6750 N.3   507  LYS507     -0.1314
     67  N         70.6370   71.0020   80.1470 N.am  508  THR508     -0.1937
     68  CA        69.5560   70.1850   79.6060 C.3   508  THR508      0.2028
     69  C         69.6190   68.7650   80.1680 C.2   508  THR508      0.2642
     70  O         68.5960   68.1750   80.5270 O.2   508  THR508     -0.2714
     71  CB        69.5900   70.1520   78.0590 C.3   508  THR508      0.1808
     72  OG1       69.2000   71.4320   77.5450 O.3   508  THR508     -0.2208
     73  CG2       68.6390   69.0930   77.5170 C.3   508  THR508      0.0379
     74  N         70.8330   68.2340   80.2550 N.am  509  PHE509     -0.1973
     75  CA        71.0690   66.8760   80.7310 C.3   509  PHE509      0.1639
     76  C         70.4710   66.6310   82.1170 C.2   509  PHE509      0.2290
     77  O         69.8330   65.6060   82.3550 O.2   509  PHE509     -0.2864
     78  CB        72.5740   66.5930   80.7490 C.3   509  PHE509      0.0560
     79  CG        72.9210   65.1470   80.9470 C.ar  509  PHE509     -0.0200
     80  CD1       72.3050   64.1630   80.1940 C.ar  509  PHE509     -0.0042
     81  CD2       73.8820   64.7740   81.8680 C.ar  509  PHE509     -0.0042
     82  CE1       72.6300   62.8310   80.3670 C.ar  509  PHE509     -0.0003
     83  CE2       74.2110   63.4450   82.0460 C.ar  509  PHE509     -0.0003
     84  CZ        73.5800   62.4720   81.2960 C.ar  509  PHE509     -0.0000
     85  N         66.5770   66.3570   82.2070 N.3   512  ARG512     -0.1245
     86  CA        66.1060   65.0540   81.7530 C.3   512  ARG512      0.1563
     87  C         66.2840   63.9970   82.8350 C.2   512  ARG512      0.2260
     88  O         65.4740   63.0820   82.9560 O.2   512  ARG512     -0.2867
     89  CB        66.8320   64.6380   80.4730 C.3   512  ARG512      0.0307
     90  CG        66.3620   65.3860   79.2350 C.3   512  ARG512      0.0489
     91  CD        67.2980   65.1530   78.0700 C.3   512  ARG512      0.2205
     92  NE        66.8260   65.7620   76.8290 N.pl3 512  ARG512     -0.0865
     93  CZ        67.5650   65.8640   75.7290 C.cat 512  ARG512      0.5346
     94  NH1       67.0670   66.4250   74.6340 N.pl3 512  ARG512      0.1354
     95  NH2       68.8090   65.4020   75.7260 N.pl3 512  ARG512      0.1354
     96  N         71.0290   78.6290   76.3850 N.3   605  ASN605     -0.1240
     97  CA        72.4410   78.9870   76.4520 C.3   605  ASN605      0.1653
     98  C         72.6210   80.4910   76.2860 C.2   605  ASN605      0.2266
     99  O         73.6950   81.0320   76.5490 O.2   605  ASN605     -0.2867
    100  CB        73.2530   78.2430   75.3870 C.3   605  ASN605      0.1155
    101  CG        73.2020   76.7330   75.5590 C.2   605  ASN605      0.2627
    102  OD1       73.6810   76.1910   76.5590 O.2   605  ASN605     -0.2716
    103  ND2       72.6240   76.0460   74.5780 N.am  605  ASN605     -0.0877
    104  N         82.7880   64.4570   87.4470 N.3   637  ILE637     -0.1245
    105  CA        82.4440   64.1090   86.0730 C.3   637  ILE637      0.1561
    106  C         83.3730   63.0370   85.5020 C.2   637  ILE637      0.2260
    107  O         82.9140   62.0590   84.9130 O.2   637  ILE637     -0.2867
    108  CB        82.4620   65.3550   85.1670 C.3   637  ILE637      0.0252
    109  CG1       81.4110   66.3630   85.6390 C.3   637  ILE637      0.0019
    110  CG2       82.2010   64.9690   83.7270 C.3   637  ILE637      0.0019
    111  CD1       81.5220   67.7200   84.9840 C.3   637  ILE637      0.0001
    112  N         82.6990   59.7770   87.5180 N.3   640  THR640     -0.1203
    113  CA        81.4090   59.2130   87.1400 C.3   640  THR640      0.1994
    114  C         81.5050   58.4790   85.8050 C.2   640  THR640      0.2617
    115  O         81.1160   57.3170   85.6940 O.2   640  THR640     -0.2717
    116  CB        80.3100   60.3020   87.0530 C.3   640  THR640      0.1784
    117  OG1       79.9460   60.7310   88.3720 O.3   640  THR640     -0.2211
    118  CG2       79.0730   59.7620   86.3530 C.3   640  THR640      0.0376
    119  N         82.0390   59.1580   84.7960 N.am  641  ALA641     -0.1979
    120  CA        82.1060   58.5930   83.4540 C.3   641  ALA641      0.1597
    121  C         83.2140   57.5510   83.3010 C.2   641  ALA641      0.2287
    122  O         83.0740   56.5960   82.5360 O.2   641  ALA641     -0.2864
    123  CB        82.2650   59.6990   82.4190 C.3   641  ALA641      0.0319
    124  N         81.6870   70.0620   80.7240 N.3   665  ALA665     -0.1231
    125  CA        81.3390   68.7130   81.1480 C.3   665  ALA665      0.1694
    126  C         81.4070   67.7470   79.9670 C.2   665  ALA665      0.2591
    127  O         81.9550   66.6500   80.0790 O.2   665  ALA665     -0.2718
    128  CB        79.9430   68.6940   81.7800 C.3   665  ALA665      0.0304
    129  N         80.8510   68.1670   78.8360 N.am  666  ALA666     -0.1980
    130  CA        80.8650   67.3530   77.6260 C.3   666  ALA666      0.1597
    131  C         82.2940   67.1190   77.1390 C.2   666  ALA666      0.2287
    132  O         82.6190   66.0410   76.6430 O.2   666  ALA666     -0.2864
    133  CB        80.0150   68.0010   76.5280 C.3   666  ALA666      0.0319
    134  N         83.8500   64.3050   79.2680 N.3   669  VAL669     -0.1245
    135  CA        83.2920   63.0270   78.8370 C.3   669  VAL669      0.1561
    136  C         83.9350   62.5710   77.5270 C.2   669  VAL669      0.2260
    137  O         84.2040   61.3820   77.3310 O.2   669  VAL669     -0.2867
    138  CB        81.7540   63.1260   78.6640 C.3   669  VAL669      0.0252
    139  CG1       81.1880   61.8580   78.0420 C.3   669  VAL669      0.0019
    140  CG2       81.0880   63.4140   80.0050 C.3   669  VAL669      0.0019
@<TRIPOS>BOND
     1     4     3    2
     2     1     2    1
     3     3     2    1
     4    42    41    1
     5    42    43    1
     6   103   101   am
     7    94    93    1
     8     2     5    1
     9    41    38    1
    10     5     6    1
    11   100   101    1
    12   100    97    1
    13   101   102    2
    14    95    93    1
    15    93    92    2
    16    43    37    1
    17    38    39    1
    18    38    37    1
    19    98    97    1
    20    98    99    2
    21     8     7   ar
    22    96    97    1
    23     6     7    1
    24   133   130    1
    25   132   131    2
    26     7     9   ar
    27    44    39   am
    28    44    45    1
    29    39    40    2
    30    37    32   am
    31    92    91    1
    32   131   130    1
    33    45    46    1
    34   137   136    2
    35    73    71    1
    36   136   135    1
    37    72    71    1
    38   130   129    1
    39    66    65    1
    40   139   138    1
    41    71    68    1
    42    91    90    1
    43    32    31    1
    44    32    33    2
    45    31    34    1
    46    31    30    1
    47   138   135    1
    48   138   140    1
    49    46    47    2
    50    46    48   am
    51   129   126   am
    52   135   134    1
    53    65    64    1
    54    34    35    1
    55    90    89    1
    56    64    63    1
    57    48    49    1
    58    68    67    1
    59    68    69    1
    60    30    36    1
    61    63    62    1
    62   126   127    2
    63   126   125    1
    64    67    60   am
    65    69    74   am
    66    69    70    2
    67    80    82   ar
    68    80    79   ar
    69    74    75    1
    70    82    84   ar
    71    89    86    1
    72    35    36    1
    73   124   125    1
    74    75    78    1
    75    75    76    1
    76    78    79    1
    77    53    52    1
    78    79    81   ar
    79    49    52    1
    80    49    50    1
    81    54    55    1
    82    54    50   am
    83   125   128    1
    84    60    59    1
    85    60    61    2
    86    84    83   ar
    87    62    59    1
    88    58    59    1
    89    58    56   am
    90    55    56    1
    91    50    51    2
    92    86    85    1
    93    86    87    1
    94    81    83   ar
    95    56    57    2
    96    76    77    2
    97   123   120    1
    98   122   121    2
    99    87    88    2
   100   121   120    1
   101   120   119    1
   102    17    15   ar
   103   110   108    1
   104    14    15    1
   105    14    11    1
   106    15    16   ar
   107    13    12    2
   108    29    28    1
   109   119   114   am
   110   107   106    2
   111   111   109    1
   112    12    11    1
   113    11    10    1
   114   108   109    1
   115   108   105    1
   116   106   105    1
   117    28    27    1
   118   115   114    2
   119   114   113    1
   120   105   104    1
   121   118   116    1
   122    18    19    1
   123    27    26    1
   124    21    20    2
   125   116   113    1
   126   116   117    1
   127   113   112    1
   128    19    20    1
   129    26    23    1
   130    22    23    1
   131    23    24    1
   132    24    25    2
