@<TRIPOS>MOLECULE
tmp/5e7rA00.pdb
 143 137 0 0 0
SMALL
GASTEIGER

@<TRIPOS>ATOM
      1  N        -18.1690  -53.3490  -14.6590 N.3    14  VAL14      -0.1231
      2  CA       -17.9940  -52.5500  -15.8630 C.3    14  VAL14       0.1692
      3  C        -17.3450  -53.3690  -16.9750 C.2    14  VAL14       0.2592
      4  O        -17.7970  -53.3430  -18.1200 O.2    14  VAL14      -0.2718
      5  CB       -17.1720  -51.2770  -15.5550 C.3    14  VAL14       0.0266
      6  CG1      -16.8240  -50.5480  -16.8220 C.3    14  VAL14       0.0020
      7  CG2      -17.9560  -50.3540  -14.6330 C.3    14  VAL14       0.0020
      8  N        -16.2930  -54.1030  -16.6480 N.am   15  GLY15      -0.1957
      9  CA       -15.6110  -54.9310  -17.6240 C.3    15  GLY15       0.1869
     10  C        -15.1330  -56.2120  -16.9760 C.2    15  GLY15       0.2309
     11  O        -14.8530  -56.2580  -15.7770 O.2    15  GLY15      -0.2863
     12  N        -13.4820  -55.3540  -13.4730 N.3    19  VAL19      -0.1245
     13  CA       -13.4230  -53.9430  -13.1130 C.3    19  VAL19       0.1561
     14  C        -14.8190  -53.4880  -12.7150 C.2    19  VAL19       0.2260
     15  O        -15.8050  -53.8250  -13.3790 O.2    19  VAL19      -0.2867
     16  CB       -12.8790  -53.0850  -14.2740 C.3    19  VAL19       0.0252
     17  CG1      -12.9350  -51.6010  -13.9220 C.3    19  VAL19       0.0019
     18  CG2      -11.4560  -53.5020  -14.6180 C.3    19  VAL19       0.0019
     19  N        -12.9000  -46.4510  -10.3590 N.3    30  ALA30      -0.1245
     20  CA       -12.8610  -47.8050  -10.8880 C.3    30  ALA30       0.1562
     21  C        -11.9020  -48.6360  -10.0500 C.2    30  ALA30       0.2260
     22  O        -10.8170  -48.1700   -9.6890 O.2    30  ALA30      -0.2867
     23  CB       -12.4180  -47.8220  -12.3530 C.3    30  ALA30       0.0290
     24  N         -5.3150  -42.4950  -17.5820 N.3    44  VAL44      -0.1245
     25  CA        -6.1540  -42.7710  -16.4250 C.3    44  VAL44       0.1561
     26  C         -5.3010  -42.7330  -15.1670 C.2    44  VAL44       0.2260
     27  O         -4.2480  -43.3790  -15.0850 O.2    44  VAL44      -0.2867
     28  CB        -6.8670  -44.1210  -16.5970 C.3    44  VAL44       0.0252
     29  CG1       -7.5540  -44.5540  -15.3060 C.3    44  VAL44       0.0019
     30  CG2       -7.8860  -44.0270  -17.7230 C.3    44  VAL44       0.0019
     31  N         -8.5410  -46.5170   -9.3260 N.3    58  MET58      -0.1230
     32  CA        -8.2210  -45.6110  -10.4210 C.3    58  MET58       0.1702
     33  C         -9.3980  -44.6840  -10.6820 C.2    58  MET58       0.2592
     34  O        -10.5330  -44.9670  -10.2940 O.2    58  MET58      -0.2718
     35  CB        -7.8960  -46.3790  -11.7090 C.3    58  MET58       0.0401
     36  CG        -6.8630  -47.4850  -11.5490 C.3    58  MET58       0.0596
     37  SD        -7.1290  -48.8390  -12.7070 S.3    58  MET58      -0.1393
     38  CE        -8.6420  -49.5460  -12.0510 C.3    58  MET58       0.0692
     39  N         -9.1260  -43.5750  -11.3680 N.am   59  GLU59      -0.1966
     40  CA       -10.2130  -42.6890  -11.7580 C.3    59  GLU59       0.1733
     41  C        -11.1730  -43.4270  -12.6800 C.2    59  GLU59       0.2616
     42  O        -10.7910  -44.3480  -13.4080 O.2    59  GLU59      -0.2715
     43  CB        -9.6850  -41.4320  -12.4520 C.3    59  GLU59       0.0429
     44  CG        -9.1050  -41.6610  -13.8350 C.3    59  GLU59       0.1163
     45  CD        -8.6500  -40.3730  -14.4890 C.2    59  GLU59       0.3649
     46  OE1       -7.4460  -40.2570  -14.7970 O.co2  59  GLU59      -0.2457
     47  OE2       -9.4930  -39.4720  -14.6840 O.co2  59  GLU59      -0.2457
     48  N        -12.4340  -43.0180  -12.6370 N.am   60  TYR60      -0.1960
     49  CA       -13.4820  -43.6280  -13.4390 C.3    60  TYR60       0.1771
     50  C        -13.7500  -42.7820  -14.6750 C.2    60  TYR60       0.2619
     51  O        -13.9420  -41.5660  -14.5730 O.2    60  TYR60      -0.2715
     52  CB       -14.7580  -43.7850  -12.6140 C.3    60  TYR60       0.0574
     53  CG       -15.9080  -44.3830  -13.3790 C.ar   60  TYR60      -0.0198
     54  CD1      -15.8990  -45.7190  -13.7490 C.ar   60  TYR60      -0.0009
     55  CD2      -17.0060  -43.6130  -13.7230 C.ar   60  TYR60      -0.0009
     56  CE1      -16.9530  -46.2690  -14.4470 C.ar   60  TYR60       0.0417
     57  CE2      -18.0630  -44.1530  -14.4180 C.ar   60  TYR60       0.0417
     58  CZ       -18.0330  -45.4810  -14.7790 C.ar   60  TYR60       0.1957
     59  OH       -19.0890  -46.0200  -15.4750 O.3    60  TYR60      -0.2866
     60  N        -13.7620  -43.4300  -15.8360 N.am   61  ALA61      -0.1963
     61  CA       -14.0880  -42.7910  -17.1040 C.3    61  ALA61       0.1728
     62  C        -15.5450  -43.1050  -17.4210 C.2    61  ALA61       0.2616
     63  O        -15.8910  -44.2490  -17.7360 O.2    61  ALA61      -0.2715
     64  CB       -13.1630  -43.2680  -18.2210 C.3    61  ALA61       0.0334
     65  N        -16.3930  -42.0820  -17.3310 N.am   62  GLU62      -0.1963
     66  CA       -17.8300  -42.2540  -17.5030 C.3    62  GLU62       0.1733
     67  C        -18.2240  -42.6040  -18.9340 C.2    62  GLU62       0.2617
     68  O        -19.3150  -43.1440  -19.1430 O.2    62  GLU62      -0.2715
     69  CB       -18.5500  -40.9760  -17.0680 C.3    62  GLU62       0.0429
     70  CG       -17.8810  -39.7000  -17.5670 C.3    62  GLU62       0.1163
     71  CD       -18.8200  -38.5150  -17.6020 C.2    62  GLU62       0.3649
     72  OE1      -19.7460  -38.4610  -16.7670 O.co2  62  GLU62      -0.2457
     73  OE2      -18.6370  -37.6360  -18.4710 O.co2  62  GLU62      -0.2457
     74  N        -17.3760  -42.3160  -19.9190 N.am   63  GLY63      -0.1940
     75  CA       -17.7250  -42.5290  -21.3110 C.3    63  GLY63       0.2014
     76  C        -17.4390  -43.9030  -21.8820 C.2    63  GLY63       0.2639
     77  O        -17.6910  -44.1250  -23.0690 O.2    63  GLY63      -0.2714
     78  N        -16.9310  -44.8380  -21.0850 N.am   64  GLY64      -0.1939
     79  CA       -16.5540  -46.1290  -21.6370 C.3    64  GLY64       0.2014
     80  C        -15.4080  -46.0080  -22.6400 C.2    64  GLY64       0.2639
     81  O        -14.7070  -44.9960  -22.7230 O.2    64  GLY64      -0.2714
     82  N        -15.2490  -47.0690  -23.4310 N.am   65  SER65      -0.1949
     83  CA       -14.1030  -47.2210  -24.3180 C.3    65  SER65       0.1924
     84  C        -14.3570  -46.6070  -25.6890 C.2    65  SER65       0.2314
     85  O        -15.4930  -46.5310  -26.1620 O.2    65  SER65      -0.2863
     86  CB       -13.7550  -48.7010  -24.4910 C.3    65  SER65       0.2116
     87  OG       -14.6700  -49.3420  -25.3620 O.3    65  SER65      -0.2180
     88  N        -15.9970  -49.0340  -28.0320 N.3    68  ASN68      -0.1240
     89  CA       -17.4510  -49.1340  -27.8030 C.3    68  ASN68       0.1653
     90  C        -18.1620  -48.0200  -28.5980 C.2    68  ASN68       0.2266
     91  O        -19.2120  -48.1850  -29.1740 O.2    68  ASN68      -0.2867
     92  CB       -17.8790  -49.0390  -26.3190 C.3    68  ASN68       0.1155
     93  CG       -19.3830  -49.3020  -26.1260 C.2    68  ASN68       0.2627
     94  OD1      -20.1170  -48.5600  -25.4690 O.2    68  ASN68      -0.2716
     95  ND2      -19.8460  -50.3850  -26.7200 N.am   68  ASN68      -0.0877
     96  N         -9.9990  -50.5470  -27.3980 N.3   114  PRO114     -0.2102
     97  CA       -10.6010  -51.0850  -26.1590 C.3   114  PRO114      0.1504
     98  C         -9.9550  -50.5710  -24.8780 C.2   114  PRO114      0.2575
     99  O        -10.5770  -50.6650  -23.8120 O.2   114  PRO114     -0.2718
    100  CB       -10.4230  -52.6060  -26.3050 C.3   114  PRO114      0.0282
    101  CG       -10.4040  -52.8380  -27.7500 C.3   114  PRO114      0.0208
    102  CD        -9.7700  -51.6170  -28.3860 C.3   114  PRO114      0.0893
    103  N         -8.7560  -50.0280  -24.9650 N.am  115  ASN115     -0.1975
    104  CA        -8.0450  -49.5170  -23.7940 C.3   115  ASN115      0.1688
    105  C         -8.0400  -47.9750  -23.7290 C.2   115  ASN115      0.2292
    106  O         -7.4080  -47.4070  -22.8890 O.2   115  ASN115     -0.2864
    107  CB        -6.5880  -50.0480  -23.7200 C.3   115  ASN115      0.1181
    108  CG        -6.5140  -51.5760  -23.5730 C.2   115  ASN115      0.2629
    109  OD1       -5.5580  -52.2290  -23.9750 O.2   115  ASN115     -0.2716
    110  ND2       -7.5220  -52.1380  -22.9470 N.am  115  ASN115     -0.0877
    111  N        -10.1720  -44.7940  -23.0270 N.3   117  LEU117     -0.1245
    112  CA       -11.3980  -44.4650  -22.3210 C.3   117  LEU117      0.1561
    113  C        -11.7290  -42.9910  -22.5130 C.2   117  LEU117      0.2260
    114  O        -10.8420  -42.1600  -22.7270 O.2   117  LEU117     -0.2867
    115  CB       -11.2650  -44.7960  -20.8300 C.3   117  LEU117      0.0270
    116  CG       -10.8450  -46.2390  -20.5230 C.3   117  LEU117      0.0019
    117  CD1      -10.7460  -46.4740  -19.0290 C.3   117  LEU117      0.0001
    118  CD2      -11.8020  -47.2450  -21.1460 C.3   117  LEU117      0.0001
    119  N         -5.5870  -46.2360  -20.8350 N.3   128  CYS128     -0.1221
    120  CA        -5.7180  -47.1600  -19.7120 C.3   128  CYS128      0.1808
    121  C         -4.8400  -48.3580  -20.0440 C.2   128  CYS128      0.2601
    122  O         -4.6560  -48.6780  -21.2180 O.2   128  CYS128     -0.2717
    123  CB        -7.1720  -47.5930  -19.5290 C.3   128  CYS128      0.0970
    124  SG        -7.4960  -48.4630  -17.9780 S.3   128  CYS128     -0.0800
    125  N         -4.2800  -49.0160  -19.0340 N.am  129  ASP129     -0.1959
    126  CA        -3.3870  -50.1410  -19.3070 C.3   129  ASP129      0.1840
    127  C         -3.3980  -51.1180  -18.1430 C.2   129  ASP129      0.2622
    128  O         -3.2770  -50.7090  -16.9850 O.2   129  ASP129     -0.2715
    129  CB        -1.9460  -49.6700  -19.5560 C.3   129  ASP129      0.1450
    130  CG        -1.0280  -50.8040  -19.9780 C.2   129  ASP129      0.3671
    131  OD1       -1.5410  -51.8930  -20.3060 O.co2 129  ASP129     -0.2456
    132  OD2        0.2070  -50.6080  -19.9880 O.co2 129  ASP129     -0.2456
    133  N         -3.5160  -52.4080  -18.4630 N.am  130  PHE130     -0.1974
    134  CA        -3.3820  -53.4720  -17.4830 C.3   130  PHE130      0.1639
    135  C         -2.3230  -54.4990  -17.8540 C.2   130  PHE130      0.2290
    136  O         -1.9860  -55.3400  -17.0150 O.2   130  PHE130     -0.2864
    137  CB        -4.7270  -54.1920  -17.2920 C.3   130  PHE130      0.0560
    138  CG        -5.8020  -53.3360  -16.6690 C.ar  130  PHE130     -0.0200
    139  CD1       -5.4890  -52.3480  -15.7470 C.ar  130  PHE130     -0.0042
    140  CD2       -7.1330  -53.5410  -16.9930 C.ar  130  PHE130     -0.0042
    141  CE1       -6.4830  -51.5770  -15.1720 C.ar  130  PHE130     -0.0003
    142  CE2       -8.1280  -52.7760  -16.4170 C.ar  130  PHE130     -0.0003
    143  CZ        -7.8030  -51.7920  -15.5090 C.ar  130  PHE130     -0.0000
@<TRIPOS>BOND
     1    91    90    2
     2    90    89    1
     3   102   101    1
     4   102    96    1
     5    88    89    1
     6    89    92    1
     7   101   100    1
     8    96    97    1
     9    95    93   am
    10    92    93    1
    11   100    97    1
    12    85    84    2
    13    97    98    1
    14    93    94    2
    15    84    83    1
    16    87    86    1
    17   103    98   am
    18   103   104    1
    19    98    99    2
    20    86    83    1
    21    83    82    1
    22   109   108    2
    23   104   105    1
    24   104   107    1
    25   105   106    2
    26   107   108    1
    27   108   110   am
    28    82    80   am
    29    77    76    2
    30   111   112    1
    31   114   113    2
    32    81    80    2
    33    80    79    1
    34   113   112    1
    35   112   115    1
    36    76    75    1
    37    76    78   am
    38    79    78    1
    39    75    74    1
    40   122   121    2
    41   118   116    1
    42   119   120    1
    43   115   116    1
    44   116   117    1
    45   131   130   ar
    46   121   120    1
    47   121   125   am
    48   132   130   ar
    49   130   129    1
    50    74    67   am
    51   120   123    1
    52   129   126    1
    53   123   124    1
    54   126   125    1
    55   126   127    1
    56    68    67    2
    57    67    66    1
    58    73    71   ar
    59   133   127   am
    60   133   134    1
    61    64    61    1
    62   127   128    2
    63     4     3    2
    64   135   134    1
    65   135   136    2
    66    63    62    2
    67    30    28    1
    68     9    10    1
    69     9     8    1
    70    71    70    1
    71    71    72   ar
    72    24    25    1
    73    70    69    1
    74    66    65    1
    75    66    69    1
    76   134   137    1
    77    62    65   am
    78    62    61    1
    79   137   138    1
    80    61    60    1
    81   140   138   ar
    82   140   142   ar
    83    10    11    2
    84     3     8   am
    85     3     2    1
    86     6     5    1
    87   138   139   ar
    88    28    25    1
    89    28    29    1
    90    25    26    1
    91   142   143   ar
    92     2     5    1
    93     2     1    1
    94    60    50   am
    95   139   141   ar
    96     5     7    1
    97   143   141   ar
    98    59    58    1
    99    26    27    2
   100    46    45   ar
   101    58    56   ar
   102    58    57   ar
   103    47    45   ar
   104    50    51    2
   105    50    49    1
   106    18    16    1
   107    45    44    1
   108    56    54   ar
   109    57    55   ar
   110    16    17    1
   111    16    13    1
   112    44    43    1
   113    54    53   ar
   114    55    53   ar
   115    12    13    1
   116    49    48    1
   117    49    52    1
   118    42    41    2
   119    15    14    2
   120    53    52    1
   121    13    14    1
   122    37    38    1
   123    37    36    1
   124    41    48   am
   125    41    40    1
   126    43    40    1
   127    23    20    1
   128    40    39    1
   129    35    36    1
   130    35    32    1
   131    39    33   am
   132    20    19    1
   133    20    21    1
   134    33    32    1
   135    33    34    2
   136    32    31    1
   137    21    22    2
