@<TRIPOS>MOLECULE
tmp/5e7vA00.pdb
 143 135 0 0 0
SMALL
GASTEIGER

@<TRIPOS>ATOM
      1  N        -30.7390   29.9010  -10.9470 N.3    54  GLN54      -0.1245
      2  CA       -31.4750   31.1130  -11.3640 C.3    54  GLN54       0.1566
      3  C        -32.3930   31.6230  -10.2810 C.2    54  GLN54       0.2260
      4  O        -32.5210   32.8370  -10.0830 O.2    54  GLN54      -0.2867
      5  CB       -32.2890   30.8660  -12.6300 C.3    54  GLN54       0.0367
      6  CG       -31.4180   30.6630  -13.8390 C.3    54  GLN54       0.0905
      7  CD       -32.2690   30.5780  -15.0590 C.2    54  GLN54       0.2608
      8  OE1      -32.8610   31.5760  -15.4940 O.2    54  GLN54      -0.2717
      9  NE2      -32.3680   29.3780  -15.6070 N.am   54  GLN54      -0.0878
     10  N        -30.2360   33.2200   -7.4800 N.3    57  ILE57      -0.1245
     11  CA       -29.8340   34.5670   -7.9440 C.3    57  ILE57       0.1561
     12  C        -31.0380   35.5230   -7.6530 C.2    57  ILE57       0.2260
     13  O        -30.8440   36.5820   -7.0580 O.2    57  ILE57      -0.2867
     14  CB       -29.4330   34.6530   -9.4720 C.3    57  ILE57       0.0252
     15  CG1      -28.3400   33.6490  -10.0150 C.3    57  ILE57       0.0019
     16  CG2      -29.1260   36.0820   -9.9230 C.3    57  ILE57       0.0019
     17  CD1      -27.2760   33.2260   -9.1370 C.3    57  ILE57       0.0001
     18  N        -31.0500   38.7160   -4.9790 N.3    61  LYS61      -0.1245
     19  CA       -31.2980   40.0900   -5.4370 C.3    61  LYS61       0.1561
     20  C        -32.3460   40.8880   -4.6090 C.2    61  LYS61       0.2260
     21  O        -32.3190   42.1190   -4.5840 O.2    61  LYS61      -0.2867
     22  CB       -31.6390   40.0850   -6.9270 C.3    61  LYS61       0.0271
     23  CG       -30.4540   39.7360   -7.8420 C.3    61  LYS61       0.0035
     24  CD       -30.8800   39.5960   -9.3110 C.3    61  LYS61       0.0206
     25  CE       -31.5340   40.8430   -9.8860 C.3    61  LYS61       0.1093
     26  NZ       -31.8740   40.7040  -11.3240 N.3    61  LYS61      -0.1314
     27  N        -28.1820   43.2880   -0.3460 N.3    66  PHE66      -0.1227
     28  CA       -27.4380   42.4800   -1.3100 C.3    66  PHE66       0.1736
     29  C        -27.1750   43.2000   -2.6290 C.2    66  PHE66       0.2595
     30  O        -26.0470   43.1580   -3.1080 O.2    66  PHE66      -0.2718
     31  CB       -28.1180   41.1250   -1.5400 C.3    66  PHE66       0.0547
     32  CG       -27.3330   40.1880   -2.4350 C.ar   66  PHE66      -0.0202
     33  CD1      -26.3940   39.3080   -1.8980 C.ar   66  PHE66      -0.0042
     34  CD2      -27.5060   40.2090   -3.8220 C.ar   66  PHE66      -0.0042
     35  CE1      -25.6690   38.4500   -2.7290 C.ar   66  PHE66      -0.0003
     36  CE2      -26.7700   39.3600   -4.6480 C.ar   66  PHE66      -0.0003
     37  CZ       -25.8610   38.4850   -4.0960 C.ar   66  PHE66      -0.0000
     38  N        -28.1940   43.8640   -3.2080 N.am   67  ARG67      -0.1980
     39  CA       -28.0790   44.6070   -4.4720 C.3    67  ARG67       0.1597
     40  C        -27.1600   45.8290   -4.4130 C.2    67  ARG67       0.2287
     41  O        -26.6740   46.2680   -5.4620 O.2    67  ARG67      -0.2864
     42  CB       -29.4550   44.9490   -5.0570 C.3    67  ARG67       0.0334
     43  CG       -29.9150   43.8850   -6.0610 C.3    67  ARG67       0.0492
     44  CD       -31.0890   44.3260   -6.9240 C.3    67  ARG67       0.2205
     45  NE       -30.7460   44.3400   -8.3520 N.pl3  67  ARG67      -0.0865
     46  CZ       -31.6290   44.4610   -9.3420 C.cat  67  ARG67       0.5346
     47  NH1      -32.9270   44.5600   -9.0780 N.pl3  67  ARG67       0.1354
     48  NH2      -31.2220   44.4720  -10.6050 N.pl3  67  ARG67       0.1354
     49  N        -20.7900   44.2370   -7.9550 N.3    71  ALA71      -0.1231
     50  CA       -21.1250   43.0570   -8.7620 C.3    71  ALA71       0.1694
     51  C        -20.2350   41.8800   -8.3670 C.2    71  ALA71       0.2591
     52  O        -20.7140   40.7590   -8.2350 O.2    71  ALA71      -0.2718
     53  CB       -20.9440   43.3660  -10.2430 C.3    71  ALA71       0.0304
     54  N        -18.9510   42.1680   -8.1160 N.am   72  GLU72      -0.1979
     55  CA       -17.9190   41.2070   -7.7520 C.3    72  GLU72       0.1602
     56  C        -18.2100   40.5020   -6.4220 C.2    72  GLU72       0.2287
     57  O        -18.0440   39.2830   -6.3370 O.2    72  GLU72      -0.2864
     58  CB       -16.5320   41.8770   -7.7800 C.3    72  GLU72       0.0415
     59  CG       -16.1010   42.3540   -9.1690 C.3    72  GLU72       0.1163
     60  CD       -16.8100   43.5680   -9.7650 C.2    72  GLU72       0.3649
     61  OE1      -16.9200   44.6080   -9.0710 O.co2  72  GLU72      -0.2457
     62  OE2      -17.2460   43.4780  -10.9370 O.co2  72  GLU72      -0.2457
     63  N        -21.2250   40.2510   -5.0650 N.3    74  GLN74      -0.1231
     64  CA       -22.4490   39.4990   -5.3190 C.3    74  GLN74       0.1698
     65  C        -22.0930   38.1580   -5.9640 C.2    74  GLN74       0.2592
     66  O        -22.6020   37.1450   -5.5260 O.2    74  GLN74      -0.2718
     67  CB       -23.4290   40.3130   -6.1720 C.3    74  GLN74       0.0381
     68  CG       -23.9380   41.5670   -5.4660 C.3    74  GLN74       0.0905
     69  CD       -24.7440   42.4720   -6.3730 C.2    74  GLN74       0.2608
     70  OE1      -25.6570   42.0540   -7.0920 O.2    74  GLN74      -0.2717
     71  NE2      -24.4750   43.7520   -6.3040 N.am   74  GLN74      -0.0878
     72  N        -21.1300   38.1470   -6.9110 N.am   75  ILE75      -0.1980
     73  CA       -20.6500   36.9610   -7.6200 C.3    75  ILE75       0.1595
     74  C        -19.9460   36.0130   -6.6440 C.2    75  ILE75       0.2287
     75  O        -20.2970   34.8250   -6.5800 O.2    75  ILE75      -0.2864
     76  CB       -19.7800   37.3570   -8.8430 C.3    75  ILE75       0.0276
     77  CG1      -20.6660   37.9610   -9.9530 C.3    75  ILE75       0.0022
     78  CG2      -18.9710   36.1480   -9.3890 C.3    75  ILE75       0.0022
     79  CD1      -19.8670   38.6590  -11.1430 C.3    75  ILE75       0.0001
     80  N        -22.5530   34.4220   -4.2990 N.3    78  LEU78      -0.1231
     81  CA       -23.3280   33.4680   -5.0690 C.3    78  LEU78       0.1693
     82  C        -22.5140   32.2130   -5.4510 C.2    78  LEU78       0.2591
     83  O        -22.9710   31.0930   -5.1960 O.2    78  LEU78      -0.2718
     84  CB       -23.8530   34.1520   -6.3270 C.3    78  LEU78       0.0284
     85  CG       -25.3330   34.5680   -6.4300 C.3    78  LEU78       0.0019
     86  CD1      -26.2450   33.9890   -5.3460 C.3    78  LEU78       0.0001
     87  CD2      -25.4790   36.0340   -6.6640 C.3    78  LEU78       0.0001
     88  N        -21.3150   32.3950   -6.0420 N.am   79  LYS79      -0.1980
     89  CA       -20.4490   31.2830   -6.4480 C.3    79  LYS79       0.1596
     90  C        -20.1230   30.2810   -5.3440 C.2    79  LYS79       0.2287
     91  O        -20.1770   29.0710   -5.5820 O.2    79  LYS79      -0.2864
     92  CB       -19.1680   31.7680   -7.1240 C.3    79  LYS79       0.0298
     93  CG       -19.3940   32.2550   -8.5440 C.3    79  LYS79       0.0038
     94  CD       -18.0830   32.3760   -9.2910 C.3    79  LYS79       0.0206
     95  CE       -17.5560   31.0210   -9.7130 C.3    79  LYS79       0.1093
     96  NZ       -16.4770   31.1420  -10.7000 N.3    79  LYS79      -0.1314
     97  N        -24.4520   26.1670  -19.5490 N.3   229  PRO229     -0.2102
     98  CA       -23.5160   27.3010  -19.3590 C.3   229  PRO229      0.1504
     99  C        -23.4970   27.9290  -17.9500 C.2   229  PRO229      0.2575
    100  O        -22.4240   28.2460  -17.4360 O.2   229  PRO229     -0.2718
    101  CB       -23.9620   28.3060  -20.4330 C.3   229  PRO229      0.0282
    102  CG       -24.6030   27.4540  -21.5150 C.3   229  PRO229      0.0208
    103  CD       -25.2830   26.3430  -20.7680 C.3   229  PRO229      0.0893
    104  N        -24.6660   28.0920  -17.3180 N.am  230  LEU230     -0.1980
    105  CA       -24.8050   28.6920  -15.9800 C.3   230  LEU230      0.1596
    106  C        -24.1420   27.8500  -14.9100 C.2   230  LEU230      0.2287
    107  O        -23.3970   28.4100  -14.1170 O.2   230  LEU230     -0.2864
    108  CB       -26.2840   28.9740  -15.6450 C.3   230  LEU230      0.0297
    109  CG       -26.6300   29.5500  -14.2510 C.3   230  LEU230      0.0022
    110  CD1      -25.9850   30.9340  -14.0100 C.3   230  LEU230      0.0001
    111  CD2      -28.1490   29.6300  -14.0730 C.3   230  LEU230      0.0001
    112  N        -20.3730   28.1920  -15.2960 N.3   233  GLU233     -0.1231
    113  CA       -20.0040   29.4960  -14.7760 C.3   233  GLU233      0.1699
    114  C        -20.0430   29.5610  -13.2380 C.2   233  GLU233      0.2592
    115  O        -19.1130   30.0820  -12.6350 O.2   233  GLU233     -0.2718
    116  CB       -20.9680   30.5360  -15.3400 C.3   233  GLU233      0.0402
    117  CG       -20.3200   31.8770  -15.5650 C.3   233  GLU233      0.1161
    118  CD       -21.2980   32.8940  -16.0940 C.2   233  GLU233      0.3649
    119  OE1      -21.9900   33.5190  -15.2630 O.co2 233  GLU233     -0.2457
    120  OE2      -21.3760   33.0660  -17.3300 O.co2 233  GLU233     -0.2457
    121  N        -21.1030   29.0420  -12.6050 N.am  234  VAL234     -0.1980
    122  CA       -21.2700   29.1280  -11.1510 C.3   234  VAL234      0.1595
    123  C        -20.4090   28.1640  -10.3540 C.2   234  VAL234      0.2287
    124  O        -19.8320   28.5710   -9.3500 O.2   234  VAL234     -0.2864
    125  CB       -22.7570   29.1830  -10.7090 C.3   234  VAL234      0.0276
    126  CG1      -22.9080   29.1660   -9.1870 C.3   234  VAL234      0.0022
    127  CG2      -23.4440   30.4170  -11.2880 C.3   234  VAL234      0.0022
    128  N        -13.3210   29.5600  -12.7120 N.3   238  GLU238     -0.1231
    129  CA       -12.8670   30.6660  -13.5610 C.3   238  GLU238      0.1699
    130  C        -13.3870   32.0120  -13.0910 C.2   238  GLU238      0.2592
    131  O        -13.9990   32.7610  -13.8650 O.2   238  GLU238     -0.2718
    132  CB       -13.2050   30.4030  -15.0370 C.3   238  GLU238      0.0402
    133  CG       -12.5290   29.1420  -15.5490 C.3   238  GLU238      0.1161
    134  CD       -13.4880   27.9660  -15.5040 C.2   238  GLU238      0.3649
    135  OE1      -14.6330   28.1020  -15.0180 O.co2 238  GLU238     -0.2457
    136  OE2      -13.0870   26.8840  -15.9810 O.co2 238  GLU238     -0.2457
    137  N        -13.1070   32.3170  -11.8080 N.am  239  VAL239     -0.1980
    138  CA       -13.4790   33.5510  -11.1250 C.3   239  VAL239      0.1595
    139  C        -12.4210   34.6530  -11.3010 C.2   239  VAL239      0.2287
    140  O        -11.2190   34.3170  -11.4210 O.2   239  VAL239     -0.2864
    141  CB       -13.7130   33.2730   -9.6470 C.3   239  VAL239      0.0276
    142  CG1      -12.4920   32.8250   -8.8860 C.3   239  VAL239      0.0022
    143  CG2      -14.4170   34.4350   -8.9660 C.3   239  VAL239      0.0022
@<TRIPOS>BOND
     1   102   103    1
     2   102   101    1
     3   103    97    1
     4   101    98    1
     5    97    98    1
     6    98    99    1
     7    99   100    2
     8    99   104   am
     9   120   118   ar
    10   104   105    1
    11   118   117    1
    12   118   119   ar
    13   136   134   ar
    14   105   108    1
    15   105   106    1
    16   108   109    1
    17     9     7   am
    18   117   116    1
    19   133   134    1
    20   133   132    1
    21   134   135   ar
    22     8     7    2
    23   116   113    1
    24   112   113    1
    25     7     6    1
    26   132   129    1
    27   106   107    2
    28   113   114    1
    29   109   111    1
    30   109   110    1
    31   131   130    2
    32     6     5    1
    33   129   130    1
    34   129   128    1
    35   114   115    2
    36   114   121   am
    37   130   137   am
    38     5     2    1
    39   121   122    1
    40   137   138    1
    41   140   139    2
    42     2     1    1
    43     2     3    1
    44    26    25    1
    45   139   138    1
    46   127   125    1
    47   122   125    1
    48   122   123    1
    49    79    77    1
    50   138   141    1
    51    62    60   ar
    52   125   126    1
    53    96    95    1
    54    48    46    1
    55   123   124    2
    56     3     4    2
    57    53    50    1
    58    15    14    1
    59    15    17    1
    60    77    76    1
    61    16    14    1
    62    25    24    1
    63    60    59    1
    64    60    61   ar
    65    95    94    1
    66   141   143    1
    67   141   142    1
    68    14    11    1
    69    78    76    1
    70    46    47    1
    71    46    45    2
    72    24    23    1
    73    94    93    1
    74    59    58    1
    75    76    73    1
    76    50    51    1
    77    50    49    1
    78    93    92    1
    79    51    52    2
    80    51    54   am
    81    45    44    1
    82    54    55    1
    83    11    12    1
    84    11    10    1
    85    23    22    1
    86    58    55    1
    87    55    56    1
    88    12    13    2
    89    73    72    1
    90    73    74    1
    91    92    89    1
    92    70    69    2
    93    22    19    1
    94    44    43    1
    95    72    65   am
    96    87    85    1
    97    74    75    2
    98    89    88    1
    99    89    90    1
   100    85    84    1
   101    85    86    1
   102    56    57    2
   103    69    71   am
   104    69    68    1
   105    84    81    1
   106    67    68    1
   107    67    64    1
   108    43    42    1
   109    88    82   am
   110    65    66    2
   111    65    64    1
   112    91    90    2
   113    41    40    2
   114    82    83    2
   115    82    81    1
   116    19    18    1
   117    19    20    1
   118    64    63    1
   119    81    80    1
   120    42    39    1
   121    36    37   ar
   122    36    34   ar
   123    20    21    2
   124    39    40    1
   125    39    38    1
   126    37    35   ar
   127    34    32   ar
   128    38    29   am
   129    30    29    2
   130    35    33   ar
   131    29    28    1
   132    32    33   ar
   133    32    31    1
   134    31    28    1
   135    28    27    1
