@<TRIPOS>MOLECULE
tmp/5e7xA00.pdb
 195 175 0 0 0
SMALL
GASTEIGER

@<TRIPOS>ATOM
      1  N        -45.9000   71.9870    7.7490 N.3    14  LEU14      -0.1245
      2  CA       -45.7680   72.4830    6.3940 C.3    14  LEU14       0.1561
      3  C        -47.1180   72.4760    5.6650 C.2    14  LEU14       0.2260
      4  O        -47.4410   73.4250    4.9450 O.2    14  LEU14      -0.2867
      5  CB       -44.7230   71.6720    5.6280 C.3    14  LEU14       0.0270
      6  CG       -43.2970   71.8930    6.1450 C.3    14  LEU14       0.0019
      7  CD1      -42.3760   70.9060    5.4610 C.3    14  LEU14       0.0001
      8  CD2      -42.8170   73.3270    5.9120 C.3    14  LEU14       0.0001
      9  N        -49.3170   75.3930    6.9670 N.3    17  ILE17      -0.1245
     10  CA       -48.8300   76.6440    6.3930 C.3    17  ILE17       0.1561
     11  C        -49.2210   76.7130    4.9140 C.2    17  ILE17       0.2260
     12  O        -49.7220   77.7400    4.4440 O.2    17  ILE17      -0.2867
     13  CB       -47.2930   76.7820    6.5710 C.3    17  ILE17       0.0252
     14  CG1      -46.9640   76.9680    8.0570 C.3    17  ILE17       0.0019
     15  CG2      -46.7480   77.9700    5.7740 C.3    17  ILE17       0.0019
     16  CD1      -45.5000   76.7790    8.4070 C.3    17  ILE17       0.0001
     17  N        -51.4640   79.5230    2.8970 N.3    21  VAL21      -0.1245
     18  CA       -50.9480   80.2690    1.7410 C.3    21  VAL21       0.1561
     19  C        -51.8890   80.1030    0.5320 C.2    21  VAL21       0.2260
     20  O        -52.1680   81.0530   -0.2130 O.2    21  VAL21      -0.2867
     21  CB       -49.5230   79.8300    1.3800 C.3    21  VAL21       0.0252
     22  CG1      -49.0380   80.5570    0.1360 C.3    21  VAL21       0.0019
     23  CG2      -48.5810   80.1110    2.5510 C.3    21  VAL21       0.0019
     24  N        -51.7440   83.1190    7.8440 N.3    46  ILE46      -0.1231
     25  CA       -50.4780   82.4810    7.5200 C.3    46  ILE46       0.1692
     26  C        -49.5090   82.6750    8.6950 C.2    46  ILE46       0.2591
     27  O        -48.8070   81.7480    9.0990 O.2    46  ILE46      -0.2718
     28  CB       -49.8530   83.0740    6.2580 C.3    46  ILE46       0.0266
     29  CG1      -50.7530   82.8310    5.0290 C.3    46  ILE46       0.0019
     30  CG2      -48.4850   82.4510    6.0300 C.3    46  ILE46       0.0020
     31  CD1      -50.3500   83.6560    3.8310 C.3    46  ILE46       0.0001
     32  N        -49.4850   83.8850    9.2290 N.am   47  ILE47      -0.1980
     33  CA       -48.6310   84.1790   10.3990 C.3    47  ILE47       0.1595
     34  C        -48.9820   83.2100   11.5400 C.2    47  ILE47       0.2287
     35  O        -48.0970   82.6230   12.1670 O.2    47  ILE47      -0.2864
     36  CB       -48.7690   85.6430   10.8390 C.3    47  ILE47       0.0276
     37  CG1      -48.3340   86.5850    9.7050 C.3    47  ILE47       0.0022
     38  CG2      -47.9140   85.9080   12.0760 C.3    47  ILE47       0.0022
     39  CD1      -48.7730   88.0150    9.8910 C.3    47  ILE47       0.0001
     40  N        -47.6740   79.7850   11.0000 N.3    50  THR50      -0.1218
     41  CA       -46.2220   79.7970   11.1730 C.3    50  THR50       0.1862
     42  C        -45.8680   79.8170   12.6540 C.2    50  THR50       0.2287
     43  O        -44.9660   79.0900   13.0780 O.2    50  THR50      -0.2866
     44  CB       -45.5790   81.0000   10.4670 C.3    50  THR50       0.1770
     45  OG1      -46.0000   81.0040    9.0990 O.3    50  THR50      -0.2211
     46  CG2      -44.0470   80.9100   10.5120 C.3    50  THR50       0.0375
     47  N        -34.9340   63.8440    7.2330 N.3    68  ALA68      -0.1245
     48  CA       -34.7770   65.1850    6.6720 C.3    68  ALA68       0.1562
     49  C        -35.0020   65.1760    5.1600 C.2    68  ALA68       0.2260
     50  O        -35.6430   66.0760    4.6310 O.2    68  ALA68      -0.2867
     51  CB       -33.4090   65.7540    7.0210 C.3    68  ALA68       0.0290
     52  N        -38.4590   65.7630    3.8580 N.3    71  LEU71      -0.1231
     53  CA       -38.9940   67.1050    3.9370 C.3    71  LEU71       0.1693
     54  C        -38.6410   67.9580    2.7230 C.2    71  LEU71       0.2591
     55  O        -39.2070   69.0220    2.5370 O.2    71  LEU71      -0.2718
     56  CB       -38.5050   67.8010    5.2130 C.3    71  LEU71       0.0284
     57  CG       -38.9400   67.1860    6.5490 C.3    71  LEU71       0.0019
     58  CD1      -38.4860   68.1030    7.6700 C.3    71  LEU71       0.0001
     59  CD2      -40.4430   66.9290    6.6300 C.3    71  LEU71       0.0001
     60  N        -37.7220   67.4880    1.8870 N.am   72  VAL72      -0.1980
     61  CA       -37.2880   68.2770    0.7310 C.3    72  VAL72       0.1595
     62  C        -38.4560   68.5610   -0.2130 C.2    72  VAL72       0.2287
     63  O        -38.6850   69.7070   -0.5760 O.2    72  VAL72      -0.2864
     64  CB       -36.1030   67.6140   -0.0090 C.3    72  VAL72       0.0276
     65  CG1      -35.7370   68.3880   -1.2780 C.3    72  VAL72       0.0022
     66  CG2      -34.8980   67.5530    0.9210 C.3    72  VAL72       0.0022
     67  N        -41.1530   70.9470    1.4110 N.3    75  VAL75      -0.1245
     68  CA       -40.6730   72.3290    1.4520 C.3    75  VAL75       0.1561
     69  C        -40.6010   72.9670    0.0550 C.2    75  VAL75       0.2260
     70  O        -40.9600   74.1380   -0.1090 O.2    75  VAL75      -0.2867
     71  CB       -39.3030   72.4340    2.1470 C.3    75  VAL75       0.0252
     72  CG1      -38.7560   73.8420    1.9920 C.3    75  VAL75       0.0019
     73  CG2      -39.4060   72.0570    3.6160 C.3    75  VAL75       0.0019
     74  N        -44.1080   74.0370   -0.8370 N.3    78  VAL78      -0.1231
     75  CA       -44.5580   75.2330   -0.1210 C.3    78  VAL78       0.1692
     76  C        -43.8700   76.4600   -0.7060 C.2    78  VAL78       0.2592
     77  O        -44.5140   77.4830   -0.9770 O.2    78  VAL78      -0.2718
     78  CB       -44.2860   75.1330    1.3950 C.3    78  VAL78       0.0266
     79  CG1      -44.6060   76.4450    2.1020 C.3    78  VAL78       0.0020
     80  CG2      -45.1150   74.0100    1.9960 C.3    78  VAL78       0.0020
     81  N        -42.5670   76.3440   -0.9440 N.am   79  ASN79      -0.1974
     82  CA       -41.8140   77.4470   -1.5300 C.3    79  ASN79       0.1688
     83  C        -42.3320   77.9090   -2.8940 C.2    79  ASN79       0.2292
     84  O        -42.4780   79.1010   -3.1300 O.2    79  ASN79      -0.2864
     85  CB       -40.3300   77.0990   -1.6030 C.3    79  ASN79       0.1181
     86  CG       -39.6600   77.1670   -0.2450 C.2    79  ASN79       0.2629
     87  OD1      -40.3340   77.2600    0.7970 O.2    79  ASN79      -0.2716
     88  ND2      -38.3320   77.1160   -0.2410 N.am   79  ASN79      -0.0877
     89  N        -45.5160   79.8060   -2.2530 N.3    82  ILE82      -0.1245
     90  CA       -45.2340   81.1350   -1.7450 C.3    82  ILE82       0.1561
     91  C        -44.7610   82.0780   -2.8550 C.2    82  ILE82       0.2260
     92  O        -45.2070   83.2200   -2.9380 O.2    82  ILE82      -0.2867
     93  CB       -44.1590   81.0630   -0.6300 C.3    82  ILE82       0.0252
     94  CG1      -44.7740   80.4470    0.6320 C.3    82  ILE82       0.0019
     95  CG2      -43.5910   82.4380   -0.3450 C.3    82  ILE82       0.0019
     96  CD1      -43.7490   79.9560    1.6320 C.3    82  ILE82       0.0001
     97  N        -45.0760   88.3870    8.3810 N.3   112  GLN112     -0.1245
     98  CA       -44.9160   87.0670    7.7750 C.3   112  GLN112      0.1566
     99  C        -43.4490   86.7060    7.6360 C.2   112  GLN112      0.2260
    100  O        -43.0430   85.6110    7.9860 O.2   112  GLN112     -0.2867
    101  CB       -45.5940   87.0060    6.4000 C.3   112  GLN112      0.0367
    102  CG       -47.1070   86.8690    6.4800 C.3   112  GLN112      0.0905
    103  CD       -47.8100   87.0810    5.1430 C.2   112  GLN112      0.2608
    104  OE1      -48.6700   87.9630    5.0210 O.2   112  GLN112     -0.2717
    105  NE2      -47.4610   86.2740    4.1410 N.am  112  GLN112     -0.0878
    106  N        -41.3410   83.7170    9.2730 N.3   116  ALA116     -0.1245
    107  CA       -40.8510   82.7500    8.2770 C.3   116  ALA116      0.1562
    108  C        -39.3650   82.4640    8.4390 C.2   116  ALA116      0.2260
    109  O        -38.9390   81.3060    8.4040 O.2   116  ALA116     -0.2867
    110  CB       -41.1360   83.2580    6.8740 C.3   116  ALA116      0.0290
    111  N        -38.8030   80.3870   11.5350 N.3   119  LEU119     -0.1231
    112  CA       -39.1270   78.9870   11.2930 C.3   119  LEU119      0.1693
    113  C        -38.1180   78.3230   10.3710 C.2   119  LEU119      0.2592
    114  O        -37.7220   77.1850   10.6080 O.2   119  LEU119     -0.2718
    115  CB       -40.5330   78.8380   10.7090 C.3   119  LEU119      0.0284
    116  CG       -41.0430   77.4120   10.5210 C.3   119  LEU119      0.0019
    117  CD1      -40.9560   76.6100   11.8080 C.3   119  LEU119      0.0001
    118  CD2      -42.4770   77.4490   10.0060 C.3   119  LEU119      0.0001
    119  N        -37.6880   79.0330    9.3330 N.am  120  SER120     -0.1952
    120  CA       -36.7210   78.4500    8.4160 C.3   120  SER120      0.1924
    121  C        -35.4020   78.1260    9.1470 C.2   120  SER120      0.2314
    122  O        -34.8200   77.0700    8.9510 O.2   120  SER120     -0.2863
    123  CB       -36.5160   79.3470    7.1890 C.3   120  SER120      0.2116
    124  OG       -35.7730   80.4930    7.5080 O.3   120  SER120     -0.2180
    125  N        -36.0990   74.9680   11.5220 N.3   123  VAL123     -0.1231
    126  CA       -36.0890   73.7150   10.7540 C.3   123  VAL123      0.1692
    127  C        -34.6630   73.3810   10.2760 C.2   123  VAL123      0.2592
    128  O        -34.2090   72.2350   10.3980 O.2   123  VAL123     -0.2718
    129  CB       -37.0820   73.7170    9.5670 C.3   123  VAL123      0.0266
    130  CG1      -36.9970   72.3930    8.8100 C.3   123  VAL123      0.0020
    131  CG2      -38.5070   73.9440   10.0340 C.3   123  VAL123      0.0020
    132  N        -33.9260   74.3830    9.8020 N.am  124  SER124     -0.1952
    133  CA       -32.5320   74.1790    9.3670 C.3   124  SER124      0.1924
    134  C        -31.6580   73.6520   10.5140 C.2   124  SER124      0.2314
    135  O        -30.7530   72.8580   10.2950 O.2   124  SER124     -0.2863
    136  CB       -31.9310   75.4730    8.7900 C.3   124  SER124      0.2116
    137  OG       -32.6240   75.9340    7.6300 O.3   124  SER124     -0.2180
    138  N        -31.8210   69.6120   10.8400 N.3   127  VAL127     -0.1245
    139  CA       -31.3470   68.6950    9.7870 C.3   127  VAL127      0.1561
    140  C        -29.8480   68.4560    9.8990 C.2   127  VAL127      0.2260
    141  O        -29.1110   69.3410   10.3500 O.2   127  VAL127     -0.2867
    142  CB       -31.6950   69.1990    8.3670 C.3   127  VAL127      0.0252
    143  CG1      -33.1830   69.4480    8.2510 C.3   127  VAL127      0.0019
    144  CG2      -30.8970   70.4330    7.9960 C.3   127  VAL127      0.0019
    145  N        -27.6250   68.2010    4.5810 N.3   131  LEU131     -0.1245
    146  CA       -28.7340   69.0300    4.1370 C.3   131  LEU131      0.1561
    147  C        -28.5400   70.5070    4.4340 C.2   131  LEU131      0.2260
    148  O        -29.4160   71.3150    4.1250 O.2   131  LEU131     -0.2867
    149  CB       -30.0510   68.5700    4.7840 C.3   131  LEU131      0.0270
    150  CG       -30.6640   67.4150    4.0010 C.3   131  LEU131      0.0019
    151  CD1      -30.2560   66.0950    4.5950 C.3   131  LEU131      0.0001
    152  CD2      -32.1650   67.5710    3.8920 C.3   131  LEU131      0.0001
    153  N        -28.7620   72.6990    1.0160 N.3   134  ILE134     -0.1231
    154  CA       -30.1160   72.8190    0.4650 C.3   134  ILE134      0.1692
    155  C        -31.0600   73.5660    1.4080 C.2   134  ILE134      0.2592
    156  O        -31.9290   74.2960    0.9590 O.2   134  ILE134     -0.2718
    157  CB       -30.7420   71.4870    0.0040 C.3   134  ILE134      0.0266
    158  CG1      -32.0240   71.8000   -0.7710 C.3   134  ILE134      0.0019
    159  CG2      -31.0350   70.5430    1.1550 C.3   134  ILE134      0.0020
    160  CD1      -32.3540   70.7740   -1.7960 C.3   134  ILE134      0.0001
    161  N        -30.8590   73.3990    2.7110 N.am  135  SER135     -0.1952
    162  CA       -31.7120   74.0740    3.6750 C.3   135  SER135      0.1924
    163  C        -31.4950   75.5870    3.6040 C.2   135  SER135      0.2314
    164  O        -32.4560   76.3380    3.6910 O.2   135  SER135     -0.2863
    165  CB       -31.5630   73.4750    5.0890 C.3   135  SER135      0.2116
    166  OG       -30.3030   73.7500    5.6620 O.3   135  SER135     -0.2180
    167  N        -33.2860   76.7660    0.3210 N.3   138  LEU138     -0.1231
    168  CA       -34.7270   76.8040    0.5260 C.3   138  LEU138      0.1693
    169  C        -35.1340   77.9480    1.4650 C.2   138  LEU138      0.2592
    170  O        -36.1050   78.6310    1.1990 O.2   138  LEU138     -0.2718
    171  CB       -35.2330   75.4520    1.0290 C.3   138  LEU138      0.0284
    172  CG       -35.0740   74.3120    0.0130 C.3   138  LEU138      0.0019
    173  CD1      -35.2140   72.9580    0.6820 C.3   138  LEU138      0.0001
    174  CD2      -36.0660   74.4510   -1.1300 C.3   138  LEU138      0.0001
    175  N        -34.3780   78.1710    2.5350 N.am  139  SER139     -0.1952
    176  CA       -34.5920   79.3280    3.4220 C.3   139  SER139      0.1924
    177  C        -34.5010   80.6450    2.6490 C.2   139  SER139      0.2314
    178  O        -35.3570   81.5220    2.7940 O.2   139  SER139     -0.2863
    179  CB       -33.5560   79.3500    4.5490 C.3   139  SER139      0.2116
    180  OG       -33.7270   78.2490    5.4300 O.3   139  SER139     -0.2180
    181  N        -37.6050   81.6020    0.4030 N.3   142  VAL142     -0.1245
    182  CA       -38.7640   82.1640    1.0930 C.3   142  VAL142      0.1561
    183  C        -38.4890   83.6320    1.4000 C.2   142  VAL142      0.2260
    184  O        -39.3050   84.4930    1.0860 O.2   142  VAL142     -0.2867
    185  CB       -39.1120   81.4140    2.3950 C.3   142  VAL142      0.0252
    186  CG1      -40.2670   82.0990    3.1290 C.3   142  VAL142      0.0019
    187  CG2      -39.5020   79.9840    2.0900 C.3   142  VAL142      0.0019
    188  N        -40.6240   86.9240   -0.0350 N.3   146  LEU146     -0.1245
    189  CA       -41.3210   87.8740    0.8470 C.3   146  LEU146      0.1561
    190  C        -40.7260   89.2760    0.7440 C.2   146  LEU146      0.2260
    191  O        -41.4470   90.2700    0.7490 O.2   146  LEU146     -0.2867
    192  CB       -41.3350   87.3740    2.2860 C.3   146  LEU146      0.0270
    193  CG       -42.1730   86.0960    2.4610 C.3   146  LEU146      0.0019
    194  CD1      -42.0640   85.5410    3.8730 C.3   146  LEU146      0.0001
    195  CD2      -43.6370   86.3380    2.1190 C.3   146  LEU146      0.0001
@<TRIPOS>BOND
     1    84    83    2
     2    92    91    2
     3    83    82    1
     4    91    90    1
     5    89    90    1
     6   160   158    1
     7    90    93    1
     8    85    82    1
     9    85    86    1
    10    82    81    1
    11    65    64    1
    12   174   172    1
    13    77    76    2
    14    81    76   am
    15    74    75    1
    16   158   157    1
    17    76    75    1
    18    93    95    1
    19    93    94    1
    20    63    62    2
    21    86    88   am
    22    86    87    2
    23    20    19    2
    24    62    61    1
    25    75    78    1
    26    70    69    2
    27   188   189    1
    28    64    61    1
    29    64    66    1
    30   157   154    1
    31   157   159    1
    32   172   173    1
    33   172   171    1
    34    69    68    1
    35    22    21    1
    36   167   168    1
    37   181   182    1
    38   154   153    1
    39   154   155    1
    40   168   171    1
    41   168   169    1
    42    19    18    1
    43    94    96    1
    44    61    60    1
    45   190   191    2
    46   190   189    1
    47   189   192    1
    48   156   155    2
    49   184   183    2
    50   182   183    1
    51   182   185    1
    52   170   169    2
    53    21    18    1
    54    21    23    1
    55    78    80    1
    56    78    79    1
    57   155   161   am
    58    67    68    1
    59    68    71    1
    60   169   175   am
    61    18    17    1
    62    60    54   am
    63    72    71    1
    64   187   185    1
    65   195   193    1
    66    71    73    1
    67   192   193    1
    68   185   186    1
    69   193   194    1
    70   175   176    1
    71    55    54    2
    72   177   178    2
    73   177   176    1
    74   161   162    1
    75    54    53    1
    76   176   179    1
    77   163   162    1
    78   163   164    2
    79   162   165    1
    80    31    29    1
    81    52    53    1
    82   152   150    1
    83    53    56    1
    84   150   151    1
    85   150   149    1
    86   148   147    2
    87   146   147    1
    88   146   145    1
    89   146   149    1
    90   105   103   am
    91    12    11    2
    92   179   180    1
    93    50    49    2
    94    11    10    1
    95     4     3    2
    96   104   103    2
    97    29    28    1
    98   165   166    1
    99   103   102    1
   100    49    48    1
   101    56    57    1
   102     7     6    1
   103     5     6    1
   104     5     2    1
   105     3     2    1
   106    15    13    1
   107     8     6    1
   108    30    28    1
   109    28    25    1
   110    10    13    1
   111    10     9    1
   112     2     1    1
   113   101   102    1
   114   101    98    1
   115    57    59    1
   116    57    58    1
   117    13    14    1
   118    48    51    1
   119    48    47    1
   120   110   107    1
   121   123   124    1
   122   123   120    1
   123    25    24    1
   124    25    26    1
   125   137   136    1
   126    99    98    1
   127    99   100    2
   128    98    97    1
   129   144   142    1
   130    14    16    1
   131   143   142    1
   132   107   108    1
   133   107   106    1
   134   142   139    1
   135   109   108    2
   136   120   121    1
   137   120   119    1
   138    26    27    2
   139    26    32   am
   140   136   133    1
   141   130   129    1
   142   122   121    2
   143    45    44    1
   144    32    33    1
   145   119   113   am
   146   133   132    1
   147   133   134    1
   148   129   131    1
   149   129   126    1
   150    37    39    1
   151    37    36    1
   152   139   140    1
   153   139   138    1
   154   132   127   am
   155   140   141    2
   156   118   116    1
   157   127   128    2
   158   127   126    1
   159   135   134    2
   160   113   114    2
   161   113   112    1
   162    33    36    1
   163    33    34    1
   164    44    46    1
   165    44    41    1
   166   116   115    1
   167   116   117    1
   168   115   112    1
   169   126   125    1
   170    36    38    1
   171    40    41    1
   172    41    42    1
   173   112   111    1
   174    34    35    2
   175    42    43    2
