@<TRIPOS>MOLECULE
tmp/5e7zA02.pdb
 82 80 0 0 0
SMALL
GASTEIGER

@<TRIPOS>ATOM
      1  N        -93.4250   64.7420  -17.9150 N.3     7  ILE7       -0.1231
      2  CA       -93.1170   66.1730  -17.7700 C.3     7  ILE7        0.1678
      3  C        -93.6300   66.9010  -19.0240 C.2     7  ILE7        0.2434
      4  O        -93.0750   66.7740  -20.1310 O.2     7  ILE7       -0.2733
      5  CB       -91.5940   66.4750  -17.6640 C.3     7  ILE7        0.0265
      6  CG1      -90.8780   65.5640  -16.6610 C.3     7  ILE7        0.0019
      7  CG2      -91.3450   67.9800  -17.3930 C.3     7  ILE7        0.0020
      8  CD1      -91.4630   65.6440  -15.2890 C.3     7  ILE7        0.0001
      9  N        -94.6990   67.6630  -18.8810 N.am    8  PRO8       -0.2718
     10  CA       -95.3030   68.2970  -20.0530 C.3     8  PRO8        0.1535
     11  C        -94.3220   69.2410  -20.7810 C.2     8  PRO8        0.2598
     12  O        -93.4370   69.8070  -20.1630 O.2     8  PRO8       -0.2715
     13  CB       -96.5000   69.0600  -19.4640 C.3     8  PRO8        0.0310
     14  CG       -96.7510   68.4920  -18.1100 C.3     8  PRO8        0.0237
     15  CD       -95.5080   67.7940  -17.6550 C.3     8  PRO8        0.0939
     16  N        -94.5390   69.4390  -22.0690 N.am    9  ILE9       -0.1964
     17  CA       -93.7190   70.3140  -22.9030 C.3     9  ILE9        0.1727
     18  C        -94.6830   71.3310  -23.4760 C.2     9  ILE9        0.2616
     19  O        -95.7560   70.9460  -23.8710 O.2     9  ILE9       -0.2715
     20  CB       -93.1680   69.5260  -24.0880 C.3     9  ILE9        0.0290
     21  CG1      -92.1640   68.4940  -23.5930 C.3     9  ILE9        0.0022
     22  CG2      -92.5360   70.4370  -25.1350 C.3     9  ILE9        0.0023
     23  CD1      -91.9880   67.2930  -24.5090 C.3     9  ILE9        0.0001
     24  N        -94.3430   72.6030  -23.5770 N.am   10  ASP10      -0.1971
     25  CA       -95.3680   73.5650  -23.9960 C.3    10  ASP10       0.1709
     26  C        -95.0300   74.2580  -25.3280 C.2    10  ASP10       0.2293
     27  O        -94.1760   75.1340  -25.3690 O.2    10  ASP10      -0.2864
     28  CB       -95.7160   74.5290  -22.8310 C.3    10  ASP10       0.1436
     29  CG       -96.8060   73.9310  -21.8500 C.2    10  ASP10       0.3671
     30  OD1      -97.6770   73.1520  -22.3200 O.co2  10  ASP10      -0.2456
     31  OD2      -96.8180   74.2280  -20.6220 O.co2  10  ASP10      -0.2456
     32  N        -88.8160   72.5990  -29.6210 N.3    48  VAL48      -0.1245
     33  CA       -88.5940   72.8610  -28.1950 C.3    48  VAL48       0.1561
     34  C        -87.1470   73.0990  -27.9980 C.2    48  VAL48       0.2260
     35  O        -86.7770   74.0560  -27.3790 O.2    48  VAL48      -0.2867
     36  CB       -89.0340   71.6700  -27.3070 C.3    48  VAL48       0.0252
     37  CG1      -88.7110   71.8890  -25.8450 C.3    48  VAL48       0.0019
     38  CG2      -90.5190   71.4470  -27.4270 C.3    48  VAL48       0.0019
     39  N        -85.4250   76.5510  -28.8000 N.3    51  SER51      -0.1202
     40  CA       -85.5570   77.6860  -27.9400 C.3    51  SER51       0.2020
     41  C        -85.0440   77.4760  -26.4680 C.2    51  SER51       0.2619
     42  O        -85.2700   78.3470  -25.6380 O.2    51  SER51      -0.2717
     43  CB       -87.0170   78.0690  -27.9090 C.3    51  SER51       0.2103
     44  OG       -87.6330   77.1430  -27.0370 O.3    51  SER51      -0.2182
     45  N        -84.4040   76.3430  -26.1370 N.am   52  VAL52      -0.1966
     46  CA       -83.8250   76.2210  -24.8200 C.3    52  VAL52       0.1712
     47  C        -82.4840   76.9770  -24.7220 C.2    52  VAL52       0.2458
     48  O        -81.8370   77.2470  -25.7560 O.2    52  VAL52      -0.2730
     49  CB       -83.5630   74.7370  -24.4460 C.3    52  VAL52       0.0289
     50  CG1      -84.8440   73.9540  -24.4310 C.3    52  VAL52       0.0023
     51  CG2      -82.5580   74.0660  -25.3560 C.3    52  VAL52       0.0023
     52  N        -82.0110   77.2520  -23.4720 N.am   53  PRO53      -0.2727
     53  CA       -80.6240   77.7270  -23.1340 C.3    53  PRO53       0.1402
     54  C        -79.5860   76.7390  -23.6020 C.2    53  PRO53       0.2269
     55  O        -79.6520   75.5620  -23.2750 O.2    53  PRO53      -0.2865
     56  CB       -80.6330   77.7570  -21.6060 C.3    53  PRO53       0.0296
     57  CG       -82.0770   78.0070  -21.2540 C.3    53  PRO53       0.0237
     58  CD       -82.8820   77.2540  -22.2820 C.3    53  PRO53       0.0939
     59  N        -85.4290   65.6960  -25.5770 N.3   167  VAL167     -0.1245
     60  CA       -85.5720   66.7130  -24.5540 C.3   167  VAL167      0.1561
     61  C        -85.0150   66.2140  -23.2660 C.2   167  VAL167      0.2260
     62  O        -84.4190   66.9530  -22.5270 O.2   167  VAL167     -0.2867
     63  CB       -87.0620   67.0540  -24.3870 C.3   167  VAL167      0.0252
     64  CG1      -87.2490   68.0360  -23.2800 C.3   167  VAL167      0.0019
     65  CG2      -87.5630   67.6710  -25.6740 C.3   167  VAL167      0.0019
     66  N        -81.4370   66.6510  -23.4680 N.3   170  TYR170     -0.1227
     67  CA       -80.9760   68.0420  -23.3010 C.3   170  TYR170      0.1736
     68  C        -81.0180   68.3730  -21.8370 C.2   170  TYR170      0.2595
     69  O        -80.0730   69.0050  -21.3350 O.2   170  TYR170     -0.2718
     70  CB       -81.8280   69.0450  -23.9920 C.3   170  TYR170      0.0548
     71  CG       -81.6480   70.4660  -23.4000 C.ar  170  TYR170     -0.0200
     72  CD1      -80.5680   71.2190  -23.7060 C.ar  170  TYR170     -0.0009
     73  CD2      -82.6130   71.0120  -22.5970 C.ar  170  TYR170     -0.0009
     74  CE1      -80.3610   72.5020  -23.1230 C.ar  170  TYR170      0.0417
     75  CE2      -82.5050   72.2940  -22.0810 C.ar  170  TYR170      0.0417
     76  CZ       -81.3430   73.0240  -22.3230 C.ar  170  TYR170      0.1957
     77  OH       -81.2540   74.2440  -21.8230 O.3   170  TYR170     -0.2866
     78  N        -82.1000   67.9910  -21.1510 N.am  171  ALA171     -0.1980
     79  CA       -82.1820   68.3250  -19.7290 C.3   171  ALA171      0.1597
     80  C        -81.0290   67.6990  -18.8950 C.2   171  ALA171      0.2287
     81  O        -80.4590   68.3120  -18.0270 O.2   171  ALA171     -0.2864
     82  CB       -83.5100   67.8680  -19.1310 C.3   171  ALA171      0.0319
@<TRIPOS>BOND
     1    32    33    1
     2    39    40    1
     3    33    34    1
     4    33    36    1
     5    34    35    2
     6    40    43    1
     7    40    41    1
     8    43    44    1
     9    38    36    1
    10    36    37    1
    11    41    45   am
    12    41    42    2
    13    45    46    1
    14    48    47    2
    15    65    63    1
    16    59    60    1
    17    27    26    2
    18    51    49    1
    19    26    25    1
    20    22    20    1
    21    46    47    1
    22    46    49    1
    23    47    52   am
    24    60    63    1
    25    60    61    1
    26    23    21    1
    27    49    50    1
    28    63    64    1
    29    20    21    1
    30    20    17    1
    31    25    24    1
    32    25    28    1
    33    70    71    1
    34    70    67    1
    35    19    18    2
    36    72    71   ar
    37    72    74   ar
    38    54    55    2
    39    54    53    1
    40    24    18   am
    41    18    17    1
    42    52    53    1
    43    52    58    1
    44    66    67    1
    45    71    73   ar
    46    67    68    1
    47    61    62    2
    48    53    56    1
    49    74    76   ar
    50    17    16    1
    51    28    29    1
    52    73    75   ar
    53    76    75   ar
    54    76    77    1
    55    30    29   ar
    56    58    57    1
    57    16    11   am
    58    29    31   ar
    59    68    69    2
    60    68    78   am
    61    56    57    1
    62    78    79    1
    63    11    12    2
    64    11    10    1
    65     4     3    2
    66    10    13    1
    67    10     9    1
    68    79    82    1
    69    79    80    1
    70    13    14    1
    71     3     9   am
    72     3     2    1
    73    80    81    2
    74     9    15    1
    75    14    15    1
    76     1     2    1
    77     2     5    1
    78     5     7    1
    79     5     6    1
    80     6     8    1
