@<TRIPOS>MOLECULE
tmp/5e84B00.pdb
 185 173 0 0 0
SMALL
GASTEIGER

@<TRIPOS>ATOM
      1  N         79.9500   38.2200 -106.4010 N.3    11  ASP11      -0.1239
      2  CA        79.9280   39.0310 -105.1840 C.3    11  ASP11       0.1674
      3  C         80.5250   40.3860 -105.5730 C.2    11  ASP11       0.2266
      4  O         81.7040   40.4920 -105.8720 O.2    11  ASP11      -0.2867
      5  CB        80.7220   38.3550 -104.0420 C.3    11  ASP11       0.1410
      6  CG        80.8150   39.2280 -102.7590 C.2    11  ASP11       0.3668
      7  OD1       80.0430   40.2210 -102.6040 O.co2  11  ASP11      -0.2456
      8  OD2       81.6830   38.9140 -101.9000 O.co2  11  ASP11      -0.2456
      9  N         81.4780   43.2450 -103.9620 N.3    13  GLY13      -0.1210
     10  CA        81.8050   43.7740 -102.6170 C.3    13  GLY13       0.1956
     11  C         82.4810   45.1440 -102.5290 C.2    13  GLY13       0.2613
     12  O         83.0830   45.6040 -103.4940 O.2    13  GLY13      -0.2717
     13  N         82.3690   45.7770 -101.3590 N.am   14  THR14      -0.1938
     14  CA        82.9420   47.1000 -101.0820 C.3    14  THR14       0.2028
     15  C         84.4560   47.1980 -101.2640 C.2    14  THR14       0.2643
     16  O         84.9380   48.1560 -101.8480 O.2    14  THR14      -0.2714
     17  CB        82.6410   47.5260  -99.6410 C.3    14  THR14       0.1808
     18  OG1       81.2240   47.5580  -99.4240 O.3    14  THR14      -0.2208
     19  CG2       83.1840   48.8840  -99.3800 C.3    14  THR14       0.0379
     20  N         85.1940   46.2280 -100.7330 N.am   15  THR15      -0.1936
     21  CA        86.6670   46.1980 -100.8180 C.3    15  THR15       0.2028
     22  C         87.1900   45.0600 -101.6790 C.2    15  THR15       0.2642
     23  O         88.3720   45.0630 -102.0720 O.2    15  THR15      -0.2714
     24  CB        87.3560   46.0760  -99.4220 C.3    15  THR15       0.1808
     25  OG1       86.8480   44.9580  -98.6920 O.3    15  THR15      -0.2208
     26  CG2       87.1130   47.2980  -98.5880 C.3    15  THR15       0.0379
     27  N         86.3290   44.0720 -101.9360 N.am   16  TYR16      -0.1973
     28  CA        86.6660   42.9360 -102.7900 C.3    16  TYR16       0.1639
     29  C         85.4680   42.4340 -103.6060 C.2    16  TYR16       0.2290
     30  O         84.3040   42.6170 -103.2370 O.2    16  TYR16      -0.2864
     31  CB        87.2010   41.7850 -101.9520 C.3    16  TYR16       0.0560
     32  CG        88.5380   42.0330 -101.3410 C.ar   16  TYR16      -0.0198
     33  CD1       89.7140   41.7590 -102.0540 C.ar   16  TYR16      -0.0009
     34  CD2       88.6420   42.5480 -100.0610 C.ar   16  TYR16      -0.0009
     35  CE1       90.9530   42.0070 -101.5020 C.ar   16  TYR16       0.0417
     36  CE2       89.8760   42.8020  -99.5040 C.ar   16  TYR16       0.0417
     37  CZ        91.0170   42.5290 -100.2280 C.ar   16  TYR16       0.1957
     38  OH        92.2070   42.7770  -99.6480 O.3    16  TYR16      -0.2866
     39  N         89.9110   36.2590 -105.3160 N.3    38  ILE38      -0.1245
     40  CA        89.2010   37.5290 -105.0760 C.3    38  ILE38       0.1561
     41  C         89.9460   38.7140 -105.6730 C.2    38  ILE38       0.2260
     42  O         91.1500   38.6630 -105.8410 O.2    38  ILE38      -0.2867
     43  CB        88.9800   37.7800 -103.5730 C.3    38  ILE38       0.0252
     44  CG1       90.3080   37.7690 -102.7890 C.3    38  ILE38       0.0019
     45  CG2       88.0450   36.7160 -103.0380 C.3    38  ILE38       0.0019
     46  CD1       90.1850   38.1290 -101.3250 C.3    38  ILE38       0.0001
     47  N         80.9090   51.2490 -103.5240 N.3    73  LYS73      -0.1245
     48  CA        79.6850   50.6630 -103.0300 C.3    73  LYS73       0.1561
     49  C         79.0910   51.4760 -101.9120 C.2    73  LYS73       0.2260
     50  O         77.8860   51.3830 -101.6880 O.2    73  LYS73      -0.2867
     51  CB        79.9160   49.2400 -102.5430 C.3    73  LYS73       0.0271
     52  CG        78.6670   48.3970 -102.2960 C.3    73  LYS73       0.0035
     53  CD        79.1300   46.9510 -102.1060 C.3    73  LYS73       0.0206
     54  CE        77.9960   46.0240 -101.7030 C.3    73  LYS73       0.1093
     55  NZ        78.4550   44.6420 -101.3660 N.3    73  LYS73      -0.1314
     56  N         73.1810   38.9800  -99.7420 N.3   178  GLU178     -0.1245
     57  CA        74.4350   38.3000  -99.3730 C.3   178  GLU178      0.1567
     58  C         74.2390   37.1900  -98.3550 C.2   178  GLU178      0.2260
     59  O         74.7920   36.1160  -98.5430 O.2   178  GLU178     -0.2867
     60  CB        75.5310   39.2680  -98.8800 C.3   178  GLU178      0.0388
     61  CG        76.1520   40.2090  -99.9340 C.3   178  GLU178      0.1160
     62  CD        76.9400   41.3950  -99.3190 C.2   178  GLU178      0.3649
     63  OE1       77.8300   41.1770  -98.4540 O.co2 178  GLU178     -0.2457
     64  OE2       76.6770   42.5660  -99.6910 O.co2 178  GLU178     -0.2457
     65  N         76.7520   38.5440  -91.5360 N.3   201  ASP201     -0.1239
     66  CA        77.6690   38.9830  -92.6020 C.3   201  ASP201      0.1674
     67  C         78.3200   40.3390  -92.3140 C.2   201  ASP201      0.2266
     68  O         77.6500   41.3580  -92.3030 O.2   201  ASP201     -0.2867
     69  CB        76.9160   39.0580  -93.9310 C.3   201  ASP201      0.1410
     70  CG        77.8270   39.3590  -95.0950 C.2   201  ASP201      0.3668
     71  OD1       78.9620   38.8210  -95.0980 O.co2 201  ASP201     -0.2456
     72  OD2       77.3970   40.1330  -95.9910 O.co2 201  ASP201     -0.2456
     73  N         81.3830   42.5420  -93.8200 N.3   203  GLY203     -0.1210
     74  CA        82.4350   42.7180  -94.8260 C.3   203  GLY203      0.1956
     75  C         83.2550   43.9930  -94.7020 C.2   203  GLY203      0.2612
     76  O         83.6200   44.4150  -93.6060 O.2   203  GLY203     -0.2717
     77  N         83.5610   44.5950  -95.8490 N.am  204  GLY204     -0.1942
     78  CA        84.4000   45.8210  -95.9300 C.3   204  GLY204      0.2014
     79  C         83.6520   47.1470  -95.6990 C.2   204  GLY204      0.2639
     80  O         84.2290   48.1370  -95.2020 O.2   204  GLY204     -0.2714
     81  N         82.3630   47.1560  -96.0570 N.am  205  GLY205     -0.1939
     82  CA        81.5110   48.3460  -95.9380 C.3   205  GLY205      0.2014
     83  C         80.1050   48.1530  -95.3690 C.2   205  GLY205      0.2638
     84  O         79.5140   49.1140  -94.8810 O.2   205  GLY205     -0.2714
     85  N         79.5820   46.9260  -95.4210 N.am  206  ALA206     -0.1977
     86  CA        78.1920   46.6150  -95.0430 C.3   206  ALA206      0.1597
     87  C         78.0070   45.4020  -94.0840 C.2   206  ALA206      0.2287
     88  O         78.6900   44.3640  -94.1680 O.2   206  ALA206     -0.2864
     89  CB        77.3770   46.3870  -96.2970 C.3   206  ALA206      0.0319
     90  N         84.5730   46.7710  -92.2240 N.3   232  GLY232     -0.1210
     91  CA        86.0110   46.7860  -91.9920 C.3   232  GLY232      0.1956
     92  C         86.7040   48.1150  -92.2590 C.2   232  GLY232      0.2611
     93  O         87.6520   48.4610  -91.5650 O.2   232  GLY232     -0.2717
     94  N         86.2300   48.8590  -93.2540 N.am  233  GLU233     -0.1979
     95  CA        86.7910   50.1750  -93.5680 C.3   233  GLU233      0.1602
     96  C         86.5980   51.1220  -92.4060 C.2   233  GLU233      0.2287
     97  O         87.4780   51.9090  -92.1170 O.2   233  GLU233     -0.2864
     98  CB        86.1700   50.7610  -94.8510 C.3   233  GLU233      0.0415
     99  CG        86.6050   50.0670  -96.1420 C.3   233  GLU233      0.1163
    100  CD        88.0440   50.3800  -96.5630 C.2   233  GLU233      0.3649
    101  OE1       88.2090   51.1200  -97.5540 O.co2 233  GLU233     -0.2457
    102  OE2       89.0230   49.8900  -95.9300 O.co2 233  GLU233     -0.2457
    103  N         95.3950   48.7200  -92.1560 N.3   270  GLU270     -0.1245
    104  CA        94.7900   47.5200  -92.6760 C.3   270  GLU270      0.1567
    105  C         95.6720   46.2930  -92.4220 C.2   270  GLU270      0.2260
    106  O         95.2570   45.3280  -91.8220 O.2   270  GLU270     -0.2867
    107  CB        94.5700   47.7030  -94.1840 C.3   270  GLU270      0.0388
    108  CG        94.1170   46.4520  -94.9020 C.3   270  GLU270      0.1160
    109  CD        92.7920   45.9630  -94.3760 C.2   270  GLU270      0.3649
    110  OE1       91.9110   46.8370  -94.1550 O.co2 270  GLU270     -0.2457
    111  OE2       92.6570   44.7230  -94.1730 O.co2 270  GLU270     -0.2457
    112  N         95.6390   45.5310  -88.6640 N.3   273  LYS273     -0.1231
    113  CA        94.3650   44.9240  -88.2990 C.3   273  LYS273      0.1693
    114  C         94.2810   43.4210  -88.5870 C.2   273  LYS273      0.2591
    115  O         93.7060   42.6650  -87.8070 O.2   273  LYS273     -0.2718
    116  CB        93.2560   45.5980  -89.0660 C.3   273  LYS273      0.0285
    117  CG        91.9160   44.9970  -88.7470 C.3   273  LYS273      0.0035
    118  CD        90.8030   45.7390  -89.4320 C.3   273  LYS273      0.0206
    119  CE        90.8120   45.4680  -90.9160 C.3   273  LYS273      0.1093
    120  NZ        89.5140   45.9160  -91.4910 N.3   273  LYS273     -0.1314
    121  N         94.8260   42.9860  -89.7140 N.am  274  ARG274     -0.1980
    122  CA        94.7620   41.5870  -90.0710 C.3   274  ARG274      0.1597
    123  C         95.6690   40.8330  -89.1380 C.2   274  ARG274      0.2287
    124  O         95.3370   39.7420  -88.6550 O.2   274  ARG274     -0.2864
    125  CB        95.2350   41.3750  -91.4930 C.3   274  ARG274      0.0334
    126  CG        94.5380   42.2720  -92.5080 C.3   274  ARG274      0.0492
    127  CD        94.5500   41.6530  -93.8920 C.3   274  ARG274      0.2205
    128  NE        93.6410   42.3230  -94.8170 N.pl3 274  ARG274     -0.0865
    129  CZ        92.9100   41.7020  -95.7490 C.cat 274  ARG274      0.5346
    130  NH1       92.9510   40.3730  -95.8750 N.pl3 274  ARG274      0.1354
    131  NH2       92.1310   42.4150  -96.5680 N.pl3 274  ARG274      0.1354
    132  N         94.3350   39.8460  -85.6330 N.3   277  SER277     -0.1217
    133  CA        93.3650   38.7900  -85.4690 C.3   277  SER277      0.1889
    134  C         94.0540   37.5310  -84.9860 C.2   277  SER277      0.2288
    135  O         93.4030   36.6460  -84.4860 O.2   277  SER277     -0.2866
    136  CB        92.6140   38.5490  -86.7690 C.3   277  SER277      0.2089
    137  OG        91.8600   39.7050  -87.0740 O.3   277  SER277     -0.2183
    138  N         81.9480   37.2090  -94.3110 N.3   340  GLY340     -0.1210
    139  CA        82.6060   38.5170  -94.3340 C.3   340  GLY340      0.1956
    140  C         83.9780   38.4660  -93.6490 C.2   340  GLY340      0.2612
    141  O         84.1240   37.9750  -92.5120 O.2   340  GLY340     -0.2717
    142  N         85.0060   38.9420  -94.3420 N.am  341  GLY341     -0.1942
    143  CA        86.3410   38.9720  -93.7520 C.3   341  GLY341      0.2014
    144  C         86.3760   39.5400  -92.3330 C.2   341  GLY341      0.2639
    145  O         87.1020   39.0320  -91.4950 O.2   341  GLY341     -0.2714
    146  N         85.5810   40.5720  -92.0460 N.am  342  SER342     -0.1949
    147  CA        85.6230   41.2340  -90.7430 C.3   342  SER342      0.1924
    148  C         85.1830   40.3540  -89.5480 C.2   342  SER342      0.2314
    149  O         85.3630   40.7290  -88.3740 O.2   342  SER342     -0.2863
    150  CB        84.8140   42.5290  -90.7820 C.3   342  SER342      0.2116
    151  OG        85.4380   43.4940  -91.6110 O.3   342  SER342     -0.2180
    152  N         86.6390   37.6080  -88.9770 N.3   344  ARG344     -0.1231
    153  CA        87.8740   37.0110  -88.5140 C.3   344  ARG344      0.1694
    154  C         88.4470   37.7010  -87.2630 C.2   344  ARG344      0.2591
    155  O         89.3370   37.1500  -86.5890 O.2   344  ARG344     -0.2718
    156  CB        88.9170   37.0770  -89.6160 C.3   344  ARG344      0.0321
    157  CG        88.6610   36.1980  -90.8180 C.3   344  ARG344      0.0489
    158  CD        89.9280   36.1330  -91.6160 C.3   344  ARG344      0.2205
    159  NE        89.8820   35.2490  -92.7760 N.pl3 344  ARG344     -0.0865
    160  CZ        89.4320   35.5840  -93.9880 C.cat 344  ARG344      0.5346
    161  NH1       88.9100   36.7960  -94.2330 N.pl3 344  ARG344      0.1354
    162  NH2       89.4820   34.6800  -94.9500 N.pl3 344  ARG344      0.1354
    163  N         87.9650   38.9180  -86.9960 N.am  345  ILE345     -0.1980
    164  CA        88.3160   39.6820  -85.7990 C.3   345  ILE345      0.1595
    165  C         87.8180   38.9320  -84.5640 C.2   345  ILE345      0.2287
    166  O         86.6110   38.7860  -84.3960 O.2   345  ILE345     -0.2864
    167  CB        87.6040   41.0490  -85.7720 C.3   345  ILE345      0.0276
    168  CG1       87.9890   41.9290  -86.9630 C.3   345  ILE345      0.0022
    169  CG2       87.9370   41.7750  -84.4760 C.3   345  ILE345      0.0022
    170  CD1       87.1170   43.1700  -87.1190 C.3   345  ILE345      0.0001
    171  N         84.9050   32.6370  -95.2140 N.3   367  PRO367     -0.2102
    172  CA        84.1100   33.8750  -95.0650 C.3   367  PRO367      0.1504
    173  C         84.2380   34.8850  -96.2060 C.2   367  PRO367      0.2575
    174  O         83.4150   35.7920  -96.3140 O.2   367  PRO367     -0.2718
    175  CB        84.6330   34.4870  -93.7530 C.3   367  PRO367      0.0282
    176  CG        85.9510   33.8510  -93.4890 C.3   367  PRO367      0.0208
    177  CD        86.0640   32.5940  -94.3070 C.3   367  PRO367      0.0893
    178  N         85.2690   34.7350  -97.0330 N.am  368  ASP368     -0.1974
    179  CA        85.4920   35.6380  -98.1620 C.3   368  ASP368      0.1708
    180  C         84.7360   35.1760  -99.3860 C.2   368  ASP368      0.2293
    181  O         84.3080   35.9890 -100.1890 O.2   368  ASP368     -0.2864
    182  CB        86.9930   35.7310  -98.5060 C.3   368  ASP368      0.1436
    183  CG        87.8400   36.2040  -97.3340 C.2   368  ASP368      0.3671
    184  OD1       87.3510   36.9790  -96.4900 O.co2 368  ASP368     -0.2456
    185  OD2       89.0090   35.7890  -97.2400 O.co2 368  ASP368     -0.2456
@<TRIPOS>BOND
     1     1     2    1
     2     4     3    2
     3    42    41    2
     4    41    40    1
     5     3     2    1
     6    39    40    1
     7     2     5    1
     8    40    43    1
     9     5     6    1
    10     9    10    1
    11    29    30    2
    12    29    28    1
    13    43    45    1
    14    43    44    1
    15    47    48    1
    16    12    11    2
    17    48    51    1
    18    48    49    1
    19    28    31    1
    20    28    27    1
    21    44    46    1
    22     6     7   ar
    23     6     8   ar
    24    10    11    1
    25    51    52    1
    26    11    13   am
    27    52    53    1
    28    53    54    1
    29    23    22    2
    30    33    35   ar
    31    33    32   ar
    32    31    32    1
    33    27    22   am
    34    49    50    2
    35    16    15    2
    36    54    55    1
    37    22    21    1
    38    35    37   ar
    39    13    14    1
    40    32    34   ar
    41    15    14    1
    42    15    20   am
    43    14    17    1
    44    21    20    1
    45    21    24    1
    46    37    38    1
    47    37    36   ar
    48   181   180    2
    49    34    36   ar
    50    61    62    1
    51    61    60    1
    52    56    57    1
    53    64    62   ar
    54    17    18    1
    55    17    19    1
    56    24    25    1
    57    24    26    1
    58   180   179    1
    59    57    60    1
    60    57    58    1
    61    62    63   ar
    62    59    58    2
    63   182   179    1
    64   182   183    1
    65   179   178    1
    66   101   100   ar
    67   183   185   ar
    68   183   184   ar
    69   178   173   am
    70   131   129    1
    71   100    99    1
    72   100   102   ar
    73   174   173    2
    74    89    86    1
    75   173   172    1
    76    99    98    1
    77    81    82    1
    78    81    79   am
    79    72    70   ar
    80    82    83    1
    81    78    77    1
    82    78    79    1
    83   130   129    1
    84    77    75   am
    85   129   128    2
    86    79    80    2
    87    85    83   am
    88    85    86    1
    89    83    84    2
    90   171   172    1
    91   171   177    1
    92    71    70   ar
    93    70    69    1
    94   172   175    1
    95    86    87    1
    96   162   160    1
    97   108   109    1
    98   108   107    1
    99    98    95    1
   100    74    75    1
   101    74    73    1
   102   128   127    1
   103    75    76    2
   104   109   111   ar
   105   109   110   ar
   106   142   143    1
   107   142   140   am
   108   139   138    1
   109   139   140    1
   110   177   176    1
   111   161   160    1
   112   107   104    1
   113    88    87    2
   114   160   159    2
   115    69    66    1
   116   127   126    1
   117   175   176    1
   118   143   144    1
   119   140   141    2
   120    95    94    1
   121    95    96    1
   122    94    92   am
   123   159   158    1
   124   104   105    1
   125   104   103    1
   126    66    67    1
   127    66    65    1
   128   126   125    1
   129   105   106    2
   130    96    97    2
   131   144   146   am
   132   144   145    2
   133    67    68    2
   134    92    91    1
   135    92    93    2
   136    90    91    1
   137   146   147    1
   138   158   157    1
   139   151   150    1
   140   125   122    1
   141   120   119    1
   142   119   118    1
   143   157   156    1
   144   150   147    1
   145   147   148    1
   146   122   121    1
   147   122   123    1
   148   121   114   am
   149   156   153    1
   150   148   149    2
   151   118   117    1
   152   123   124    2
   153   116   117    1
   154   116   113    1
   155   152   153    1
   156   112   113    1
   157   114   113    1
   158   114   115    2
   159   153   154    1
   160   154   163   am
   161   154   155    2
   162   170   168    1
   163   137   136    1
   164   163   164    1
   165   168   167    1
   166   136   133    1
   167   164   167    1
   168   164   165    1
   169   167   169    1
   170   132   133    1
   171   133   134    1
   172   134   135    2
   173   165   166    2
