@<TRIPOS>MOLECULE
tmp/5e88A00.pdb
 129 120 0 0 0
SMALL
GASTEIGER

@<TRIPOS>ATOM
      1  N         12.2080  -12.5170    7.2730 N.3    31  ARG31      -0.1231
      2  CA        12.6440  -11.2080    6.8030 C.3    31  ARG31       0.1694
      3  C         11.5380  -10.1670    6.8490 C.2    31  ARG31       0.2592
      4  O         10.3550  -10.4980    6.7730 O.2    31  ARG31      -0.2718
      5  CB        13.1750  -11.3330    5.3720 C.3    31  ARG31       0.0321
      6  CG        12.1620  -11.8920    4.3820 C.3    31  ARG31       0.0489
      7  CD        12.7820  -12.1920    3.0260 C.3    31  ARG31       0.2205
      8  NE        11.7820  -12.6880    2.0780 N.pl3  31  ARG31      -0.0865
      9  CZ        11.9680  -12.8220    0.7630 C.cat  31  ARG31       0.5346
     10  NH1       13.1280  -12.4960    0.1970 N.pl3  31  ARG31       0.1354
     11  NH2       10.9790  -13.2840    0.0040 N.pl3  31  ARG31       0.1354
     12  N         11.9470   -8.9090    6.9830 N.am   32  ILE32      -0.1966
     13  CA        11.0630   -7.7540    6.8530 C.3    32  ILE32       0.1727
     14  C         11.7750   -6.7890    5.9140 C.2    32  ILE32       0.2616
     15  O         12.9980   -6.7550    5.8990 O.2    32  ILE32      -0.2715
     16  CB        10.8570   -7.0520    8.2110 C.3    32  ILE32       0.0290
     17  CG1       10.2640   -8.0160    9.2490 C.3    32  ILE32       0.0022
     18  CG2        9.9670   -5.8260    8.0580 C.3    32  ILE32       0.0023
     19  CD1       10.2570   -7.4520   10.6550 C.3    32  ILE32       0.0001
     20  N         11.0320   -6.0220    5.1200 N.am   33  ALA33      -0.1977
     21  CA        11.6500   -4.9670    4.3220 C.3    33  ALA33       0.1597
     22  C         10.7820   -3.7300    4.2660 C.2    33  ALA33       0.2287
     23  O          9.5700   -3.8200    4.0580 O.2    33  ALA33      -0.2864
     24  CB        11.9290   -5.4580    2.9160 C.3    33  ALA33       0.0319
     25  N         10.9590   -0.3230    1.9240 N.3    35  ASP35      -0.1239
     26  CA        11.5950    0.2200    0.7230 C.3    35  ASP35       0.1674
     27  C         11.0680    1.6130    0.4050 C.2    35  ASP35       0.2266
     28  O          9.9260    1.7660   -0.0260 O.2    35  ASP35      -0.2867
     29  CB        11.3300   -0.7040   -0.4610 C.3    35  ASP35       0.1410
     30  CG        12.0860   -2.0070   -0.3630 C.2    35  ASP35       0.3668
     31  OD1       13.3200   -1.9830   -0.4480 O.co2  35  ASP35      -0.2456
     32  OD2       11.4460   -3.0600   -0.2230 O.co2  35  ASP35      -0.2456
     33  N         16.5140    0.9690    1.6260 N.3    45  HIS45      -0.1241
     34  CA        16.0290   -0.3890    1.8650 C.3    45  HIS45       0.1621
     35  C         16.4890   -0.7460    3.2670 C.2    45  HIS45       0.2264
     36  O         17.6890   -0.7210    3.5510 O.2    45  HIS45      -0.2867
     37  CB        16.6620   -1.3070    0.8060 C.3    45  HIS45       0.0745
     38  CG        16.4360   -2.7780    0.9950 C.ar   45  HIS45       0.0817
     39  ND1       15.2510   -3.3990    0.6680 N.ar   45  HIS45      -0.2268
     40  CD2       17.2910   -3.7690    1.3420 C.ar   45  HIS45       0.1154
     41  CE1       15.3670   -4.7010    0.8660 C.ar   45  HIS45       0.1986
     42  NE2       16.5980   -4.9520    1.2620 N.ar   45  HIS45      -0.2212
     43  N         16.2010   -3.7720    5.9530 N.3    47  ASN47      -0.1240
     44  CA        15.9340   -5.2100    5.7890 C.3    47  ASN47       0.1653
     45  C         16.4320   -6.0630    6.9650 C.2    47  ASN47       0.2266
     46  O         17.5340   -6.6240    6.9270 O.2    47  ASN47      -0.2867
     47  CB        16.5460   -5.6680    4.4500 C.3    47  ASN47       0.1155
     48  CG        16.4240   -7.1600    4.2020 C.2    47  ASN47       0.2627
     49  OD1       17.3050   -7.7600    3.5810 O.2    47  ASN47      -0.2716
     50  ND2       15.3390   -7.7680    4.6690 N.am   47  ASN47      -0.0877
     51  N         16.9000   -9.3320    8.8900 N.3    49  ARG49      -0.1245
     52  CA        17.0060  -10.7320    8.5010 C.3    49  ARG49       0.1563
     53  C         17.1380  -11.5650    9.7580 C.2    49  ARG49       0.2260
     54  O         18.0720  -11.3730   10.5390 O.2    49  ARG49      -0.2867
     55  CB        18.2360  -10.9410    7.6240 C.3    49  ARG49       0.0307
     56  CG        18.1910  -10.1480    6.3380 C.3    49  ARG49       0.0489
     57  CD        19.4180  -10.3690    5.4830 C.3    49  ARG49       0.2205
     58  NE        19.3650   -9.5060    4.3100 N.pl3  49  ARG49      -0.0865
     59  CZ        20.2520   -9.5080    3.3220 C.cat  49  ARG49       0.5346
     60  NH1       21.2950  -10.3370    3.3390 N.pl3  49  ARG49       0.1354
     61  NH2       20.0900   -8.6730    2.3080 N.pl3  49  ARG49       0.1354
     62  N         20.3840  -15.2000    8.8640 N.3    52  GLU52      -0.1245
     63  CA        21.4530  -15.1820    7.8710 C.3    52  GLU52       0.1567
     64  C         22.6380  -15.9040    8.4730 C.2    52  GLU52       0.2260
     65  O         23.3350  -15.3620    9.3360 O.2    52  GLU52      -0.2867
     66  CB        21.8330  -13.7590    7.4770 C.3    52  GLU52       0.0388
     67  CG        22.7530  -13.7210    6.2680 C.3    52  GLU52       0.1160
     68  CD        23.3110  -12.3450    5.9970 C.2    52  GLU52       0.3649
     69  OE1       24.0290  -11.8110    6.8670 O.co2  52  GLU52      -0.2457
     70  OE2       23.0480  -11.8030    4.9090 O.co2  52  GLU52      -0.2457
     71  N         20.1650   -5.2250    7.3970 N.3    59  VAL59      -0.1245
     72  CA        20.8870   -4.7760    6.2170 C.3    59  VAL59       0.1561
     73  C         20.1880   -3.5490    5.6610 C.2    59  VAL59       0.2260
     74  O         18.9680   -3.5670    5.4720 O.2    59  VAL59      -0.2867
     75  CB        20.9220   -5.8780    5.1470 C.3    59  VAL59       0.0252
     76  CG1       21.5380   -5.3660    3.8510 C.3    59  VAL59       0.0019
     77  CG2       21.6790   -7.0900    5.6810 C.3    59  VAL59       0.0019
     78  N         20.5270   -0.6140    2.4030 N.3    61  ASN61      -0.1240
     79  CA        21.1510   -0.4030    1.0980 C.3    61  ASN61       0.1653
     80  C         20.2780    0.4900    0.2190 C.2    61  ASN61       0.2266
     81  O         19.1820    0.8920    0.6240 O.2    61  ASN61      -0.2867
     82  CB        21.4310   -1.7600    0.4190 C.3    61  ASN61       0.1155
     83  CG        22.6180   -1.7260   -0.5310 C.2    61  ASN61       0.2627
     84  OD1       23.1170   -0.6600   -0.8950 O.2    61  ASN61      -0.2716
     85  ND2       23.0700   -2.9040   -0.9480 N.am   61  ASN61      -0.0877
     86  N         22.1610   -3.0960   -6.6580 N.3    68  TRP68      -0.1241
     87  CA        22.3620   -2.7880   -5.2430 C.3    68  TRP68       0.1605
     88  C         23.7530   -2.2090   -5.0030 C.2    68  TRP68       0.2264
     89  O         24.7230   -2.6060   -5.6570 O.2    68  TRP68      -0.2867
     90  CB        22.1760   -4.0400   -4.3780 C.3    68  TRP68       0.0550
     91  CG        20.7590   -4.4820   -4.2740 C.ar   68  TRP68       0.0003
     92  CD1       20.1920   -5.5710   -4.8720 C.ar   68  TRP68       0.0946
     93  CD2       19.7150   -3.8410   -3.5350 C.ar   68  TRP68       0.0152
     94  NE1       18.8600   -5.6510   -4.5410 N.ar   68  TRP68      -0.2442
     95  CE2       18.5410   -4.5980   -3.7250 C.ar   68  TRP68       0.0810
     96  CE3       19.6590   -2.6960   -2.7310 C.ar   68  TRP68       0.0012
     97  CZ2       17.3190   -4.2480   -3.1380 C.ar   68  TRP68       0.0191
     98  CZ3       18.4450   -2.3490   -2.1460 C.ar   68  TRP68       0.0001
     99  CH2       17.2900   -3.1240   -2.3570 C.ar   68  TRP68       0.0015
    100  N         26.3400   -2.4440    1.1300 N.3    71  GLU71      -0.1245
    101  CA        25.4750   -2.6860    2.2830 C.3    71  GLU71       0.1567
    102  C         26.0150   -2.0290    3.5400 C.2    71  GLU71       0.2260
    103  O         27.2260   -2.0000    3.7620 O.2    71  GLU71      -0.2867
    104  CB        25.3140   -4.1870    2.5430 C.3    71  GLU71       0.0388
    105  CG        24.5240   -4.9020    1.4730 C.3    71  GLU71       0.1160
    106  CD        24.3240   -6.3810    1.7410 C.2    71  GLU71       0.3649
    107  OE1       24.9660   -6.9250    2.6600 O.co2  71  GLU71      -0.2457
    108  OE2       23.5160   -6.9950    1.0180 O.co2  71  GLU71      -0.2457
    109  N         25.5040   -2.6460    7.5350 N.3    73  ARG73      -0.1245
    110  CA        24.9970   -3.7060    8.4020 C.3    73  ARG73       0.1563
    111  C         25.0170   -3.3150    9.8760 C.2    73  ARG73       0.2260
    112  O         25.9680   -2.6930   10.3560 O.2    73  ARG73      -0.2867
    113  CB        25.7930   -4.9900    8.1670 C.3    73  ARG73       0.0307
    114  CG        25.3660   -5.6780    6.8860 C.3    73  ARG73       0.0489
    115  CD        26.2830   -6.8000    6.4500 C.3    73  ARG73       0.2205
    116  NE        25.6470   -7.5530    5.3700 N.pl3  73  ARG73      -0.0865
    117  CZ        25.1250   -8.7750    5.4730 C.cat  73  ARG73       0.5346
    118  NH1       25.1790   -9.4580    6.6140 N.pl3  73  ARG73       0.1354
    119  NH2       24.5560   -9.3270    4.4090 N.pl3  73  ARG73       0.1354
    120  N          6.9610   -4.8840    3.2480 N.3   124  SER124     -0.1202
    121  CA         6.7760   -6.2920    2.9270 C.3   124  SER124      0.2020
    122  C          7.4960   -7.1860    3.9160 C.2   124  SER124      0.2619
    123  O          8.2600   -6.7120    4.7610 O.2   124  SER124     -0.2717
    124  CB         7.2630   -6.5830    1.5080 C.3   124  SER124      0.2103
    125  OG         8.6360   -6.2920    1.3840 O.3   124  SER124     -0.2182
    126  N          7.2260   -8.4810    3.8060 N.am  125  GLY125     -0.1956
    127  CA         7.8820   -9.4790    4.6340 C.3   125  GLY125      0.1869
    128  C          6.9400  -10.1490    5.6120 C.2   125  GLY125      0.2309
    129  O          5.7130  -10.0910    5.4650 O.2   125  GLY125     -0.2863
@<TRIPOS>BOND
     1    86    87    1
     2    89    88    2
     3    87    88    1
     4    87    90    1
     5    92    94   ar
     6    92    91   ar
     7    94    95   ar
     8    90    91    1
     9    91    93   ar
    10    95    93   ar
    11    95    97   ar
    12    93    96   ar
    13    97    99   ar
    14    96    98   ar
    15    99    98   ar
    16    85    83   am
    17    84    83    2
    18    83    82    1
    19    29    30    1
    20    29    26    1
    21    31    30   ar
    22    30    32   ar
    23    28    27    2
    24    11     9    1
    25    10     9    1
    26    80    81    2
    27    80    79    1
    28    27    26    1
    29    82    79    1
    30    39    41   ar
    31    39    38   ar
    32    26    25    1
    33     9     8    2
    34    37    38    1
    35    37    34    1
    36    41    42   ar
    37    38    40   ar
    38   108   106   ar
    39    79    78    1
    40   100   101    1
    41    42    40   ar
    42   125   124    1
    43   105   106    1
    44   105   104    1
    45   124   121    1
    46    33    34    1
    47   106   107   ar
    48    34    35    1
    49     8     7    1
    50   101   104    1
    51   101   102    1
    52    61    59    1
    53    24    21    1
    54   121   120    1
    55   121   122    1
    56     7     6    1
    57    35    36    2
    58    59    60    1
    59    59    58    2
    60   102   103    2
    61    49    48    2
    62   126   122   am
    63   126   127    1
    64    76    75    1
    65   122   123    2
    66    23    22    2
    67    48    47    1
    68    48    50   am
    69    22    21    1
    70    58    57    1
    71    21    20    1
    72     6     5    1
    73   119   117    1
    74    47    44    1
    75   127   128    1
    76    70    68   ar
    77    20    14   am
    78    75    77    1
    79    75    72    1
    80   116   117    2
    81   116   115    1
    82     5     2    1
    83   129   128    2
    84    74    73    2
    85   117   118    1
    86    57    56    1
    87    73    72    1
    88    44    43    1
    89    44    45    1
    90    15    14    2
    91    14    13    1
    92    68    67    1
    93    68    69   ar
    94    72    71    1
    95    67    66    1
    96    56    55    1
    97   115   114    1
    98     4     3    2
    99     2     3    1
   100     2     1    1
   101     3    12   am
   102    13    12    1
   103    13    16    1
   104   114   113    1
   105    46    45    2
   106    66    63    1
   107   109   110    1
   108    55    52    1
   109    63    64    1
   110    63    62    1
   111    18    16    1
   112   113   110    1
   113    16    17    1
   114   110   111    1
   115    64    65    2
   116    52    51    1
   117    52    53    1
   118    17    19    1
   119    53    54    2
   120   111   112    2
