@<TRIPOS>MOLECULE
tmp/5e89A00.pdb
 137 128 0 0 0
SMALL
GASTEIGER

@<TRIPOS>ATOM
      1  N         12.2070  -12.2940    7.6260 N.3    31  ARG31      -0.1231
      2  CA        12.6410  -10.9640    7.1930 C.3    31  ARG31       0.1694
      3  C         11.5420   -9.9180    7.2550 C.2    31  ARG31       0.2592
      4  O         10.3560  -10.2440    7.2210 O.2    31  ARG31      -0.2718
      5  CB        13.2100  -11.0470    5.7740 C.3    31  ARG31       0.0321
      6  CG        12.2390  -11.6000    4.7250 C.3    31  ARG31       0.0489
      7  CD        12.9810  -11.9240    3.4290 C.3    31  ARG31       0.2205
      8  NE        12.0890  -12.3100    2.3350 N.pl3  31  ARG31      -0.0865
      9  CZ        12.4490  -12.3970    1.0500 C.cat  31  ARG31       0.5346
     10  NH1       13.6950  -12.1300    0.6610 N.pl3  31  ARG31       0.1354
     11  NH2       11.5500  -12.7510    0.1400 N.pl3  31  ARG31       0.1354
     12  N         11.9620   -8.6660    7.3600 N.am   32  ILE32      -0.1966
     13  CA        11.0810   -7.4980    7.2440 C.3    32  ILE32       0.1727
     14  C         11.7700   -6.5470    6.2750 C.2    32  ILE32       0.2616
     15  O         12.9900   -6.5170    6.2240 O.2    32  ILE32      -0.2715
     16  CB        10.8970   -6.7740    8.5930 C.3    32  ILE32       0.0290
     17  CG1       10.3520   -7.7410    9.6550 C.3    32  ILE32       0.0022
     18  CG2        9.9700   -5.5770    8.4370 C.3    32  ILE32       0.0023
     19  CD1       10.3670   -7.1880   11.0350 C.3    32  ILE32       0.0001
     20  N         11.0130   -5.7800    5.4960 N.am   33  ALA33      -0.1977
     21  CA        11.6360   -4.7770    4.6340 C.3    33  ALA33       0.1597
     22  C         10.8060   -3.5110    4.5370 C.2    33  ALA33       0.2287
     23  O          9.5920   -3.5810    4.3210 O.2    33  ALA33      -0.2864
     24  CB        11.8900   -5.3280    3.2510 C.3    33  ALA33       0.0319
     25  N         10.9980   -0.1470    2.0910 N.3    35  ASP35      -0.1239
     26  CA        11.6160    0.3210    0.8540 C.3    35  ASP35       0.1674
     27  C         11.0840    1.7110    0.5270 C.2    35  ASP35       0.2266
     28  O          9.9230    1.8630    0.1520 O.2    35  ASP35      -0.2867
     29  CB        11.2900   -0.6400   -0.2810 C.3    35  ASP35       0.1410
     30  CG        12.0350   -1.9470   -0.1760 C.2    35  ASP35       0.3668
     31  OD1       13.2680   -1.9380   -0.3160 O.co2  35  ASP35      -0.2456
     32  OD2       11.3870   -2.9930    0.0090 O.co2  35  ASP35      -0.2456
     33  N         16.5670    1.0350    1.7240 N.3    45  HIS45      -0.1241
     34  CA        16.0630   -0.3110    1.9920 C.3    45  HIS45       0.1621
     35  C         16.5240   -0.6490    3.4000 C.2    45  HIS45       0.2264
     36  O         17.7260   -0.6150    3.6820 O.2    45  HIS45      -0.2867
     37  CB        16.6660   -1.2520    0.9430 C.3    45  HIS45       0.0745
     38  CG        16.4260   -2.7180    1.1510 C.ar   45  HIS45       0.0817
     39  ND1       15.2220   -3.3280    0.8680 N.ar   45  HIS45      -0.2268
     40  CD2       17.2760   -3.7100    1.5070 C.ar   45  HIS45       0.1154
     41  CE1       15.3320   -4.6290    1.0870 C.ar   45  HIS45       0.1986
     42  NE2       16.5700   -4.8880    1.4610 N.ar   45  HIS45      -0.2212
     43  N         16.2390   -3.6360    6.1230 N.3    47  ASN47      -0.1240
     44  CA        15.9630   -5.0710    6.0000 C.3    47  ASN47       0.1653
     45  C         16.4760   -5.8970    7.1840 C.2    47  ASN47       0.2266
     46  O         17.5580   -6.4810    7.1260 O.2    47  ASN47      -0.2867
     47  CB        16.5830   -5.5570    4.6850 C.3    47  ASN47       0.1155
     48  CG        16.3740   -7.0370    4.4030 C.2    47  ASN47       0.2627
     49  OD1       17.2430   -7.6740    3.7950 O.2    47  ASN47      -0.2716
     50  ND2       15.2410   -7.5940    4.8230 N.am   47  ASN47      -0.0877
     51  N         16.9210   -9.1310    9.1050 N.3    49  ARG49      -0.1245
     52  CA        17.0010  -10.5360    8.7500 C.3    49  ARG49       0.1563
     53  C         17.1510  -11.3380   10.0310 C.2    49  ARG49       0.2260
     54  O         18.0750  -11.1020   10.8070 O.2    49  ARG49      -0.2867
     55  CB        18.2140  -10.7700    7.8430 C.3    49  ARG49       0.0307
     56  CG        18.1730   -9.9640    6.5690 C.3    49  ARG49       0.0489
     57  CD        19.3790  -10.2070    5.6810 C.3    49  ARG49       0.2205
     58  NE        19.2810   -9.3920    4.4760 N.pl3  49  ARG49      -0.0865
     59  CZ        20.1740   -9.3730    3.4960 C.cat  49  ARG49       0.5346
     60  NH1       21.2400  -10.1650    3.5300 N.pl3  49  ARG49       0.1354
     61  NH2       19.9790   -8.5850    2.4540 N.pl3  49  ARG49       0.1354
     62  N         20.3720  -14.9630    9.1120 N.3    52  GLU52      -0.1231
     63  CA        21.4150  -14.9900    8.1040 C.3    52  GLU52       0.1699
     64  C         22.6020  -15.7250    8.7040 C.2    52  GLU52       0.2592
     65  O         23.3220  -15.1790    9.5470 O.2    52  GLU52      -0.2718
     66  CB        21.8150  -13.5880    7.6880 C.3    52  GLU52       0.0402
     67  CG        22.7930  -13.5990    6.5360 C.3    52  GLU52       0.1161
     68  CD        23.3690  -12.2420    6.2680 C.2    52  GLU52       0.3649
     69  OE1       24.1040  -11.7280    7.1350 O.co2  52  GLU52      -0.2457
     70  OE2       23.1020  -11.6930    5.1870 O.co2  52  GLU52      -0.2457
     71  N         22.7870  -16.9760    8.2860 N.am   53  ASN53      -0.1974
     72  CA        23.8370  -17.8330    8.8220 C.3    53  ASN53       0.1688
     73  C         23.7670  -17.8800   10.3500 C.2    53  ASN53       0.2292
     74  O         24.7810  -17.7830   11.0480 O.2    53  ASN53      -0.2864
     75  CB        25.2200  -17.3880    8.3230 C.3    53  ASN53       0.1181
     76  CG        25.3420  -17.4630    6.8090 C.2    53  ASN53       0.2629
     77  OD1       24.6420  -18.2400    6.1580 O.2    53  ASN53      -0.2716
     78  ND2       26.2290  -16.6530    6.2420 N.am   53  ASN53      -0.0877
     79  N         20.2420   -5.1180    7.5230 N.3    59  VAL59      -0.1245
     80  CA        20.9510   -4.6910    6.3250 C.3    59  VAL59       0.1561
     81  C         20.2510   -3.4680    5.7600 C.2    59  VAL59       0.2260
     82  O         19.0400   -3.4820    5.5830 O.2    59  VAL59      -0.2867
     83  CB        20.9740   -5.8110    5.2760 C.3    59  VAL59       0.0252
     84  CG1       21.6310   -5.3430    3.9820 C.3    59  VAL59       0.0019
     85  CG2       21.6940   -7.0450    5.8360 C.3    59  VAL59       0.0019
     86  N         20.5850   -0.5260    2.5140 N.3    61  ASN61      -0.1240
     87  CA        21.1910   -0.3340    1.2020 C.3    61  ASN61       0.1653
     88  C         20.3260    0.5480    0.3120 C.2    61  ASN61       0.2266
     89  O         19.2150    0.9460    0.6920 O.2    61  ASN61      -0.2867
     90  CB        21.4460   -1.6990    0.5310 C.3    61  ASN61       0.1155
     91  CG        22.6420   -1.6920   -0.4130 C.2    61  ASN61       0.2627
     92  OD1       23.1300   -0.6310   -0.8220 O.2    61  ASN61      -0.2716
     93  ND2       23.1090   -2.8870   -0.7850 N.am   61  ASN61      -0.0877
     94  N         22.1520   -3.1700   -6.5040 N.3    68  TRP68      -0.1241
     95  CA        22.3510   -2.8490   -5.0950 C.3    68  TRP68       0.1605
     96  C         23.7490   -2.2840   -4.8700 C.2    68  TRP68       0.2264
     97  O         24.7170   -2.6840   -5.5370 O.2    68  TRP68      -0.2867
     98  CB        22.1330   -4.0820   -4.2190 C.3    68  TRP68       0.0550
     99  CG        20.7010   -4.5040   -4.1200 C.ar   68  TRP68       0.0003
    100  CD1       20.1230   -5.5880   -4.7090 C.ar   68  TRP68       0.0946
    101  CD2       19.6670   -3.8470   -3.3840 C.ar   68  TRP68       0.0152
    102  NE1       18.7910   -5.6510   -4.3830 N.ar   68  TRP68      -0.2442
    103  CE2       18.4840   -4.5890   -3.5700 C.ar   68  TRP68       0.0810
    104  CE3       19.6280   -2.7070   -2.5700 C.ar   68  TRP68       0.0012
    105  CZ2       17.2690   -4.2180   -2.9840 C.ar   68  TRP68       0.0191
    106  CZ3       18.4130   -2.3340   -1.9930 C.ar   68  TRP68       0.0001
    107  CH2       17.2570   -3.0910   -2.2000 C.ar   68  TRP68       0.0015
    108  N         26.3750   -2.4210    1.2350 N.3    71  GLU71      -0.1245
    109  CA        25.5330   -2.6420    2.4080 C.3    71  GLU71       0.1567
    110  C         26.0950   -1.9820    3.6500 C.2    71  GLU71       0.2260
    111  O         27.3160   -1.9650    3.8560 O.2    71  GLU71      -0.2867
    112  CB        25.3590   -4.1410    2.6720 C.3    71  GLU71       0.0388
    113  CG        24.5880   -4.8560    1.5860 C.3    71  GLU71       0.1160
    114  CD        24.3630   -6.3420    1.8650 C.2    71  GLU71       0.3649
    115  OE1       25.0600   -6.9240    2.7300 O.co2  71  GLU71      -0.2457
    116  OE2       23.4720   -6.9200    1.2050 O.co2  71  GLU71      -0.2457
    117  N         25.5490   -2.5960    7.6280 N.3    73  ARG73      -0.1245
    118  CA        24.9930   -3.6220    8.4980 C.3    73  ARG73       0.1563
    119  C         25.0500   -3.1920    9.9490 C.2    73  ARG73       0.2260
    120  O         26.0310   -2.5880   10.3840 O.2    73  ARG73      -0.2867
    121  CB        25.7350   -4.9400    8.2920 C.3    73  ARG73       0.0307
    122  CG        25.4110   -5.5700    6.9670 C.3    73  ARG73       0.0489
    123  CD        26.2760   -6.7430    6.6180 C.3    73  ARG73       0.2205
    124  NE        25.6510   -7.4940    5.5330 N.pl3  73  ARG73      -0.0865
    125  CZ        25.0890   -8.6940    5.6480 C.cat  73  ARG73       0.5346
    126  NH1       25.0880   -9.3420    6.8110 N.pl3  73  ARG73       0.1354
    127  NH2       24.5350   -9.2590    4.5830 N.pl3  73  ARG73       0.1354
    128  N          6.9850   -4.6830    3.5940 N.3   124  SER124     -0.1202
    129  CA         6.8120   -6.0830    3.2540 C.3   124  SER124      0.2020
    130  C          7.4870   -6.9720    4.2810 C.2   124  SER124      0.2619
    131  O          8.2020   -6.4940    5.1430 O.2   124  SER124     -0.2717
    132  CB         7.3630   -6.3630    1.8540 C.3   124  SER124      0.2103
    133  OG         8.7430   -6.0890    1.7800 O.3   124  SER124     -0.2182
    134  N          7.2280   -8.2660    4.1790 N.am  125  GLY125     -0.1956
    135  CA         7.8630   -9.2350    5.0520 C.3   125  GLY125      0.1869
    136  C          6.9250   -9.8740    6.0440 C.2   125  GLY125      0.2309
    137  O          5.6850   -9.8390    5.9020 O.2   125  GLY125     -0.2863
@<TRIPOS>BOND
     1    94    95    1
     2    97    96    2
     3    95    96    1
     4    95    98    1
     5   100   102   ar
     6   100    99   ar
     7   102   103   ar
     8    98    99    1
     9    99   101   ar
    10   103   101   ar
    11   103   105   ar
    12   101   104   ar
    13   105   107   ar
    14   104   106   ar
    15   107   106   ar
    16    92    91    2
    17    93    91   am
    18    91    90    1
    19    31    30   ar
    20    29    30    1
    21    29    26    1
    22    30    32   ar
    23    11     9    1
    24    28    27    2
    25    88    89    2
    26    88    87    1
    27    27    26    1
    28    90    87    1
    29    10     9    1
    30    26    25    1
    31    39    41   ar
    32    39    38   ar
    33    37    38    1
    34    37    34    1
    35     9     8    2
    36    41    42   ar
    37    38    40   ar
    38    87    86    1
    39   116   114   ar
    40   108   109    1
    41    42    40   ar
    42   113   114    1
    43   113   112    1
    44    33    34    1
    45   133   132    1
    46   132   129    1
    47   114   115   ar
    48    34    35    1
    49     8     7    1
    50   109   112    1
    51   109   110    1
    52    61    59    1
    53    24    21    1
    54   129   128    1
    55   129   130    1
    56    35    36    2
    57     7     6    1
    58    59    60    1
    59    59    58    2
    60   110   111    2
    61    49    48    2
    62    84    83    1
    63   134   130   am
    64   134   135    1
    65   130   131    2
    66    23    22    2
    67    48    47    1
    68    48    50   am
    69    58    57    1
    70    22    21    1
    71   127   125    1
    72    21    20    1
    73    47    44    1
    74     6     5    1
    75   135   136    1
    76    70    68   ar
    77    83    85    1
    78    83    80    1
    79    20    14   am
    80   124   125    2
    81   124   123    1
    82    82    81    2
    83   125   126    1
    84    57    56    1
    85    81    80    1
    86     5     2    1
    87   137   136    2
    88    44    43    1
    89    44    45    1
    90    77    76    2
    91    15    14    2
    92    78    76   am
    93    68    67    1
    94    68    69   ar
    95    14    13    1
    96    80    79    1
    97    67    66    1
    98    56    55    1
    99   123   122    1
   100    76    75    1
   101   122   121    1
   102    46    45    2
   103     2     3    1
   104     2     1    1
   105     4     3    2
   106    13    12    1
   107    13    16    1
   108     3    12   am
   109   117   118    1
   110    66    63    1
   111    55    52    1
   112    63    64    1
   113    63    62    1
   114    71    64   am
   115    71    72    1
   116   121   118    1
   117    75    72    1
   118    18    16    1
   119   118   119    1
   120    16    17    1
   121    64    65    2
   122    52    51    1
   123    52    53    1
   124    72    73    1
   125    17    19    1
   126   119   120    2
   127    53    54    2
   128    73    74    2
