@<TRIPOS>MOLECULE
tmp/5e8fA00.pdb
 175 168 0 0 0
SMALL
GASTEIGER

@<TRIPOS>ATOM
      1  N         -7.1350  -19.9960   12.5470 N.3    19  LEU19      -0.1245
      2  CA        -5.7640  -20.2420   12.9280 C.3    19  LEU19       0.1561
      3  C         -5.7170  -20.9250   14.2990 C.2    19  LEU19       0.2260
      4  O         -6.2760  -20.3860   15.2910 O.2    19  LEU19      -0.2867
      5  CB        -5.0450  -18.9550   13.0080 C.3    19  LEU19       0.0270
      6  CG        -4.8380  -18.2540   11.6420 C.3    19  LEU19       0.0019
      7  CD1       -4.3730  -16.8430   11.8410 C.3    19  LEU19       0.0001
      8  CD2       -3.8160  -19.0080   10.8600 C.3    19  LEU19       0.0001
      9  N          0.0410  -15.4050   19.3910 N.3    50  ILE50      -0.1231
     10  CA         0.2410  -16.2680   18.2310 C.3    50  ILE50       0.1692
     11  C          1.6860  -16.3550   17.8590 C.2    50  ILE50       0.2591
     12  O          2.1980  -17.4250   17.4580 O.2    50  ILE50      -0.2718
     13  CB        -0.6590  -15.8430   17.0080 C.3    50  ILE50       0.0266
     14  CG1       -0.8580  -17.0700   16.0720 C.3    50  ILE50       0.0019
     15  CG2       -0.0580  -14.6690   16.2330 C.3    50  ILE50       0.0020
     16  CD1       -2.0210  -16.8990   15.1340 C.3    50  ILE50       0.0001
     17  N          2.4010  -15.2430   18.0510 N.am   51  LEU51      -0.1980
     18  CA         3.8330  -15.2020   17.7870 C.3    51  LEU51       0.1596
     19  C          4.6700  -16.1190   18.6560 C.2    51  LEU51       0.2287
     20  O          5.8300  -16.3580   18.3270 O.2    51  LEU51      -0.2864
     21  CB         4.3720  -13.7590   17.8750 C.3    51  LEU51       0.0297
     22  CG         3.8870  -12.9000   16.6930 C.3    51  LEU51       0.0022
     23  CD1        4.0430  -11.4000   17.0170 C.3    51  LEU51       0.0001
     24  CD2        4.6170  -13.2720   15.3990 C.3    51  LEU51       0.0001
     25  N          3.6610  -19.3530   19.3270 N.3    53  CYS53      -0.1221
     26  CA         3.4580  -20.7420   18.9320 C.3    53  CYS53       0.1808
     27  C          4.6370  -21.3010   18.1450 C.2    53  CYS53       0.2601
     28  O          5.1970  -20.6350   17.2800 O.2    53  CYS53      -0.2717
     29  CB         2.2290  -20.8640   18.0490 C.3    53  CYS53       0.0970
     30  SG         0.7780  -20.1830   18.7940 S.3    53  CYS53      -0.0800
     31  N          4.9190  -22.5710   18.3600 N.am   54  LYS54      -0.1965
     32  CA         5.9090  -23.2800   17.5900 C.3    54  LYS54       0.1728
     33  C          5.3730  -23.5670   16.1780 C.2    54  LYS54       0.2616
     34  O          6.1400  -23.5270   15.2270 O.2    54  LYS54      -0.2715
     35  CB         6.3220  -24.5630   18.3060 C.3    54  LYS54       0.0311
     36  CG         7.1700  -24.2930   19.5500 C.3    54  LYS54       0.0038
     37  CD         7.0220  -25.3930   20.6060 C.3    54  LYS54       0.0206
     38  CE         7.0860  -26.8110   20.0280 C.3    54  LYS54       0.1093
     39  NZ         8.2510  -27.0660   19.1170 N.3    54  LYS54      -0.1314
     40  N          4.0690  -23.8200   16.0550 N.am   55  ALA55      -0.1963
     41  CA         3.4220  -24.0130   14.7370 C.3    55  ALA55       0.1728
     42  C          1.9840  -23.6540   14.8740 C.2    55  ALA55       0.2616
     43  O          1.3900  -23.7140   15.9780 O.2    55  ALA55      -0.2715
     44  CB         3.6020  -25.4440   14.2210 C.3    55  ALA55       0.0334
     45  N          1.4120  -23.2130   13.7530 N.am   56  VAL56      -0.1977
     46  CA         0.0260  -22.7910   13.7150 C.3    56  VAL56       0.1596
     47  C         -0.6350  -23.6020   12.5950 C.2    56  VAL56       0.2287
     48  O         -0.1010  -23.6710   11.5350 O.2    56  VAL56      -0.2864
     49  CB        -0.0860  -21.3040   13.4230 C.3    56  VAL56       0.0276
     50  CG1       -1.5160  -20.9250   13.1190 C.3    56  VAL56       0.0022
     51  CG2        0.4450  -20.4360   14.6140 C.3    56  VAL56       0.0022
     52  N          4.5990  -11.7050    2.5290 N.3    77  VAL77      -0.1245
     53  CA         4.4070  -11.0530    3.7890 C.3    77  VAL77       0.1561
     54  C          5.2860   -9.8140    3.7070 C.2    77  VAL77       0.2260
     55  O          6.5120   -9.9410    3.6800 O.2    77  VAL77      -0.2867
     56  CB         4.8970  -11.9380    4.9160 C.3    77  VAL77       0.0252
     57  CG1        4.7770  -11.1830    6.2020 C.3    77  VAL77       0.0019
     58  CG2        4.0980  -13.2290    4.9390 C.3    77  VAL77       0.0019
     59  N          9.3970   -9.5890    3.5020 N.3    84  LEU84      -0.1231
     60  CA        10.2040  -10.4070    4.3890 C.3    84  LEU84       0.1693
     61  C         10.1630  -11.9040    4.0560 C.2    84  LEU84       0.2591
     62  O         11.1750  -12.5860    4.2360 O.2    84  LEU84      -0.2718
     63  CB         9.7650  -10.2060    5.8350 C.3    84  LEU84       0.0284
     64  CG        10.4360   -9.1390    6.6930 C.3    84  LEU84       0.0019
     65  CD1       11.2340   -8.0990    5.9120 C.3    84  LEU84       0.0001
     66  CD2        9.3770   -8.4950    7.5460 C.3    84  LEU84       0.0001
     67  N          9.0090  -12.4140    3.6120 N.am   85  GLU85      -0.1979
     68  CA         8.7930  -13.8570    3.4570 C.3    85  GLU85       0.1602
     69  C          7.9670  -14.1820    2.2560 C.2    85  GLU85       0.2287
     70  O          7.1370  -13.3880    1.8560 O.2    85  GLU85      -0.2864
     71  CB         7.9870  -14.3750    4.6180 C.3    85  GLU85       0.0415
     72  CG         8.7950  -14.9690    5.7110 C.3    85  GLU85       0.1163
     73  CD         8.0710  -14.9370    7.0270 C.2    85  GLU85       0.3649
     74  OE1        6.8840  -15.2970    7.1100 O.co2  85  GLU85      -0.2457
     75  OE2        8.7350  -14.5580    7.9940 O.co2  85  GLU85      -0.2457
     76  N          5.6470  -17.5770    0.7580 N.3    87  TRP87      -0.1241
     77  CA         5.0380  -18.8650    1.1120 C.3    87  TRP87       0.1605
     78  C          4.2370  -19.3400   -0.0780 C.2    87  TRP87       0.2264
     79  O          3.5930  -18.5290   -0.7610 O.2    87  TRP87      -0.2867
     80  CB         4.1230  -18.6830    2.3010 C.3    87  TRP87       0.0550
     81  CG         4.8640  -18.4610    3.5430 C.ar   87  TRP87       0.0003
     82  CD1        5.2840  -17.2690    4.0360 C.ar   87  TRP87       0.0946
     83  CD2        5.2820  -19.4620    4.4750 C.ar   87  TRP87       0.0152
     84  NE1        5.9270  -17.4580    5.2190 N.ar   87  TRP87      -0.2442
     85  CE2        5.9560  -18.8020    5.5060 C.ar   87  TRP87       0.0810
     86  CE3        5.1440  -20.8600    4.5380 C.ar   87  TRP87       0.0012
     87  CZ2        6.5170  -19.4890    6.5860 C.ar   87  TRP87       0.0191
     88  CZ3        5.7100  -21.5500    5.6160 C.ar   87  TRP87       0.0001
     89  CH2        6.3810  -20.8640    6.6250 C.ar   87  TRP87       0.0015
     90  N          1.9680  -24.1390    9.5630 N.3   106  ILE106     -0.1231
     91  CA         2.9790  -23.0720    9.3810 C.3   106  ILE106      0.1692
     92  C          3.8890  -23.0910   10.6130 C.2   106  ILE106      0.2592
     93  O          3.4330  -22.8070   11.7280 O.2   106  ILE106     -0.2718
     94  CB         2.2730  -21.7180    9.3190 C.3   106  ILE106      0.0266
     95  CG1        1.3720  -21.6950    8.1160 C.3   106  ILE106      0.0019
     96  CG2        3.2630  -20.5530    9.3410 C.3   106  ILE106      0.0020
     97  CD1        2.1290  -21.5800    6.8220 C.3   106  ILE106      0.0001
     98  N          5.1450  -23.4190   10.4310 N.am  107  GLU107     -0.1966
     99  CA         6.0410  -23.6050   11.5420 C.3   107  GLU107      0.1733
    100  C          6.8100  -22.3140   11.7850 C.2   107  GLU107      0.2616
    101  O          7.2580  -21.6680   10.8340 O.2   107  GLU107     -0.2715
    102  CB         7.0220  -24.7260   11.2480 C.3   107  GLU107      0.0429
    103  CG         6.3460  -26.0950   11.1220 C.3   107  GLU107      0.1163
    104  CD         7.2500  -27.0950   10.4130 C.2   107  GLU107      0.3649
    105  OE1        8.4880  -27.0030   10.5610 O.co2 107  GLU107     -0.2457
    106  OE2        6.7260  -27.9540    9.6900 O.co2 107  GLU107     -0.2457
    107  N          6.9680  -21.9820   13.0610 N.am  108  ALA108     -0.1963
    108  CA         7.7350  -20.8120   13.4870 C.3   108  ALA108      0.1728
    109  C          9.2140  -20.9660   13.2310 C.2   108  ALA108      0.2616
    110  O          9.7620  -22.0500   13.4340 O.2   108  ALA108     -0.2715
    111  CB         7.5360  -20.5810   14.9840 C.3   108  ALA108      0.0334
    112  N          9.8590  -19.8580   12.8470 N.am  109  ALA109     -0.1964
    113  CA        11.3280  -19.7270   12.8800 C.3   109  ALA109      0.1713
    114  C         11.8890  -19.8540   14.3140 C.2   109  ALA109      0.2455
    115  O         11.1380  -19.6440   15.2180 O.2   109  ALA109     -0.2730
    116  CB        11.6890  -18.3520   12.3340 C.3   109  ALA109      0.0333
    117  N         13.2190  -20.1530   14.5180 N.am  110  PRO110     -0.2772
    118  CA        13.7360  -20.0870   15.9090 C.3   110  PRO110      0.1083
    119  C         13.3360  -18.7850   16.5790 C.3   110  PRO110      0.2017
    120  O         13.0830  -17.7210   15.8990 O.3   110  PRO110     -0.2186
    121  CB        15.2600  -20.1410   15.7520 C.3   110  PRO110      0.0243
    122  CG        15.4950  -20.7770   14.4000 C.3   110  PRO110      0.0233
    123  CD        14.2280  -20.6620   13.5740 C.3   110  PRO110      0.0935
    124  N         14.6840  -15.2230   15.7950 N.3   113  GLN113     -0.1231
    125  CA        14.3440  -14.5990   14.5120 C.3   113  GLN113      0.1698
    126  C         12.9640  -14.1610   14.4440 C.2   113  GLN113      0.2592
    127  O         12.6200  -13.5620   13.4460 O.2   113  GLN113     -0.2718
    128  CB        14.5240  -15.6230   13.3730 C.3   113  GLN113      0.0381
    129  CG        15.5960  -16.5960   13.7740 C.3   113  GLN113      0.0905
    130  CD        16.4970  -17.0260   12.6720 C.2   113  GLN113      0.2608
    131  OE1       16.6570  -18.2210   12.4210 O.2   113  GLN113     -0.2717
    132  NE2       17.1510  -16.0550   12.0360 N.am  113  GLN113     -0.0878
    133  N         12.1460  -14.5170   15.4480 N.am  114  MET114     -0.1965
    134  CA        10.7320  -14.0510   15.4870 C.3   114  MET114      0.1736
    135  C         10.6940  -12.5320   15.6430 C.2   114  MET114      0.2616
    136  O         11.4640  -11.9390   16.3520 O.2   114  MET114     -0.2715
    137  CB         9.9240  -14.7320   16.5970 C.3   114  MET114      0.0427
    138  CG         9.7590  -16.2410   16.4460 C.3   114  MET114      0.0599
    139  SD         9.1050  -16.7890   14.8360 S.3   114  MET114     -0.1393
    140  CE         7.4840  -15.9890   14.9310 C.3   114  MET114      0.0692
    141  N          9.8100  -11.8920   14.9230 N.am  115  MET115     -0.1977
    142  CA         9.6910  -10.4600   15.0190 C.3   115  MET115      0.1605
    143  C          8.7630  -10.1180   16.1690 C.2   115  MET115      0.2287
    144  O          7.7830  -10.8110   16.3710 O.2   115  MET115     -0.2864
    145  CB         9.1230   -9.9210   13.6990 C.3   115  MET115      0.0413
    146  CG         9.9900  -10.3690   12.5520 C.3   115  MET115      0.0598
    147  SD         9.7190   -9.5560   10.9870 S.3   115  MET115     -0.1393
    148  CE         9.9170   -7.7880   11.4300 C.3   115  MET115      0.0692
    149  N          5.6330   -5.3750   14.5630 N.3   120  LEU120     -0.1245
    150  CA         4.8250   -5.8310   13.4500 C.3   120  LEU120      0.1561
    151  C          3.5100   -5.1410   13.3320 C.2   120  LEU120      0.2260
    152  O          2.9920   -4.9110   12.2130 O.2   120  LEU120     -0.2867
    153  CB         4.5780   -7.3330   13.5850 C.3   120  LEU120      0.0270
    154  CG         5.7440   -8.2220   13.4050 C.3   120  LEU120      0.0019
    155  CD1        5.4470   -9.6470   13.9310 C.3   120  LEU120      0.0001
    156  CD2        6.2010   -8.2250   11.9570 C.3   120  LEU120      0.0001
    157  N          2.1630   -5.0010    8.7980 N.3   124  VAL124     -0.1245
    158  CA         2.2860   -6.2200    8.0070 C.3   124  VAL124      0.1561
    159  C          1.1120   -6.2790    7.0870 C.2   124  VAL124      0.2260
    160  O         -0.0190   -6.0930    7.5370 O.2   124  VAL124     -0.2867
    161  CB         2.2710   -7.4650    8.8910 C.3   124  VAL124      0.0252
    162  CG1        2.0660   -8.6940    8.0380 C.3   124  VAL124      0.0019
    163  CG2        3.5860   -7.5630    9.6710 C.3   124  VAL124      0.0019
    164  N         -1.5370   -7.2000   15.6710 N.3   146  TYR146     -0.1241
    165  CA        -1.1740   -8.2590   16.5810 C.3   146  TYR146      0.1605
    166  C         -1.4630   -7.6310   17.9260 C.2   146  TYR146      0.2264
    167  O         -0.7020   -6.7540   18.3610 O.2   146  TYR146     -0.2867
    168  CB         0.2880   -8.6580   16.4770 C.3   146  TYR146      0.0534
    169  CG         0.7720   -9.4250   15.2330 C.ar  146  TYR146     -0.0201
    170  CD1        0.9620   -8.7640   14.0380 C.ar  146  TYR146     -0.0009
    171  CD2        1.0640  -10.8150   15.2640 C.ar  146  TYR146     -0.0009
    172  CE1        1.4250   -9.4060   12.9200 C.ar  146  TYR146      0.0417
    173  CE2        1.5380  -11.4950   14.1110 C.ar  146  TYR146      0.0417
    174  CZ         1.7070  -10.7660   12.9390 C.ar  146  TYR146      0.1957
    175  OH         2.2190  -11.2670   11.7780 O.3   146  TYR146     -0.2866
@<TRIPOS>BOND
     1    79    78    2
     2    78    77    1
     3    76    77    1
     4    77    80    1
     5    70    69    2
     6    69    68    1
     7    80    81    1
     8    52    53    1
     9    68    67    1
    10    68    71    1
    11    59    60    1
    12    81    82   ar
    13    81    83   ar
    14    67    61   am
    15    55    54    2
    16    54    53    1
    17    53    56    1
    18    82    84   ar
    19    61    62    2
    20    61    60    1
    21    60    63    1
    22    83    86   ar
    23    83    85   ar
    24    86    88   ar
    25    71    72    1
    26    56    58    1
    27    56    57    1
    28    84    85   ar
    29    85    87   ar
    30    88    89   ar
    31    72    73    1
    32    63    64    1
    33    65    64    1
    34    87    89   ar
    35    64    66    1
    36    97    95    1
    37    73    74   ar
    38    73    75   ar
    39   159   160    2
    40   159   158    1
    41   158   157    1
    42   158   161    1
    43   162   161    1
    44    95    94    1
    45   161   163    1
    46    94    96    1
    47    94    91    1
    48    91    90    1
    49    91    92    1
    50   106   104   ar
    51   104   105   ar
    52   104   103    1
    53    98    92   am
    54    98    99    1
    55    92    93    2
    56   101   100    2
    57     8     6    1
    58   147   148    1
    59   147   146    1
    60   103   102    1
    61   102    99    1
    62    48    47    2
    63    99   100    1
    64     6     7    1
    65     6     5    1
    66   175   174    1
    67   100   107   am
    68   156   154    1
    69   132   130   am
    70   152   151    2
    71   116   113    1
    72   131   130    2
    73     1     2    1
    74   146   145    1
    75    47    46    1
    76   130   129    1
    77   112   113    1
    78   112   109   am
    79   113   114    1
    80   172   174   ar
    81   172   170   ar
    82     2     5    1
    83     2     3    1
    84   174   173   ar
    85   107   108    1
    86    50    49    1
    87   109   110    2
    88   109   108    1
    89   151   150    1
    90   128   129    1
    91   128   125    1
    92   154   153    1
    93   154   155    1
    94    49    46    1
    95    49    51    1
    96   127   126    2
    97   150   153    1
    98   150   149    1
    99   108   111    1
   100   123   122    1
   101   123   117    1
   102   145   142    1
   103    46    45    1
   104    45    42   am
   105   170   169   ar
   106   173   171   ar
   107    44    41    1
   108     3     4    2
   109   114   117   am
   110   114   115    2
   111   122   121    1
   112   126   125    1
   113   126   133   am
   114   125   124    1
   115   117   118    1
   116    41    42    1
   117    41    40    1
   118   139   140    1
   119   139   138    1
   120    42    43    2
   121   141   142    1
   122   141   135   am
   123   142   143    1
   124    16    14    1
   125    34    33    2
   126   169   171   ar
   127   169   168    1
   128    24    22    1
   129   133   134    1
   130   134   135    1
   131   134   137    1
   132   135   136    2
   133   164   165    1
   134   121   118    1
   135   120   119    1
   136   118   119    1
   137    40    33   am
   138    14    13    1
   139   143   144    2
   140    33    32    1
   141    15    13    1
   142   138   137    1
   143   168   165    1
   144   165   166    1
   145    22    23    1
   146    22    21    1
   147    13    10    1
   148    28    27    2
   149    12    11    2
   150    32    35    1
   151    32    31    1
   152    18    21    1
   153    18    17    1
   154    18    19    1
   155    11    17   am
   156    11    10    1
   157   166   167    2
   158    29    30    1
   159    29    26    1
   160    27    31   am
   161    27    26    1
   162    10     9    1
   163    35    36    1
   164    20    19    2
   165    26    25    1
   166    39    38    1
   167    36    37    1
   168    38    37    1
