@<TRIPOS>MOLECULE
tmp/5e8fA01.pdb
 221 203 0 0 0
SMALL
GASTEIGER

@<TRIPOS>ATOM
      1  N        -16.0660  -18.4000   -6.6990 N.3    12  PHE12      -0.1241
      2  CA       -15.2870  -18.7620   -5.5060 C.3    12  PHE12       0.1605
      3  C        -15.7650  -18.0620   -4.2090 C.2    12  PHE12       0.2264
      4  O        -16.2840  -16.9800   -4.2510 O.2    12  PHE12      -0.2867
      5  CB       -13.8350  -18.4290   -5.7460 C.3    12  PHE12       0.0534
      6  CG       -12.9260  -18.9230   -4.6680 C.ar   12  PHE12      -0.0203
      7  CD1      -12.6770  -18.1410   -3.5360 C.ar   12  PHE12      -0.0042
      8  CD2      -12.3480  -20.1750   -4.7590 C.ar   12  PHE12      -0.0042
      9  CE1      -11.8550  -18.6050   -2.5380 C.ar   12  PHE12      -0.0003
     10  CE2      -11.5190  -20.6240   -3.7620 C.ar   12  PHE12      -0.0003
     11  CZ       -11.2960  -19.8460   -2.6460 C.ar   12  PHE12      -0.0000
     12  N        -14.3010  -17.9850   -0.0380 N.3    14  LEU14      -0.1245
     13  CA       -13.7320  -18.3520    1.2670 C.3    14  LEU14       0.1561
     14  C        -14.8450  -18.2980    2.3240 C.2    14  LEU14       0.2260
     15  O        -15.3200  -17.2230    2.6200 O.2    14  LEU14      -0.2867
     16  CB       -12.5500  -17.4360    1.6250 C.3    14  LEU14       0.0270
     17  CG       -11.8730  -17.7440    2.9570 C.3    14  LEU14       0.0019
     18  CD1      -11.4630  -19.2200    2.8990 C.3    14  LEU14       0.0001
     19  CD2      -10.6810  -16.8480    3.2600 C.3    14  LEU14       0.0001
     20  N        -12.2270  -19.5790    8.0360 N.3    17  MET17      -0.1245
     21  CA       -10.8690  -19.7960    8.1740 C.3    17  MET17       0.1570
     22  C        -10.5060  -19.6670    9.6400 C.2    17  MET17       0.2261
     23  O        -10.9710  -18.7690   10.3410 O.2    17  MET17      -0.2867
     24  CB       -10.0680  -18.7590    7.3480 C.3    17  MET17       0.0387
     25  CG        -8.6130  -18.6630    7.7900 C.3    17  MET17       0.0595
     26  SD        -7.5970  -17.6440    6.6370 S.3    17  MET17      -0.1393
     27  CE        -6.1130  -17.4660    7.6190 C.3    17  MET17       0.0692
     28  N         -7.1350  -19.9960   12.5470 N.3    19  LEU19      -0.1245
     29  CA        -5.7640  -20.2420   12.9280 C.3    19  LEU19       0.1561
     30  C         -5.7170  -20.9250   14.2990 C.2    19  LEU19       0.2260
     31  O         -6.2760  -20.3860   15.2910 O.2    19  LEU19      -0.2867
     32  CB        -5.0450  -18.9550   13.0080 C.3    19  LEU19       0.0270
     33  CG        -4.8380  -18.2540   11.6420 C.3    19  LEU19       0.0019
     34  CD1       -4.3730  -16.8430   11.8410 C.3    19  LEU19       0.0001
     35  CD2       -3.8160  -19.0080   10.8600 C.3    19  LEU19       0.0001
     36  N         -7.7900  -17.6750   16.4100 N.3    29  TRP29      -0.1241
     37  CA        -8.3600  -16.7280   15.5140 C.3    29  TRP29       0.1605
     38  C         -9.2590  -17.4100   14.5320 C.2    29  TRP29       0.2264
     39  O         -8.9020  -18.4740   13.9700 O.2    29  TRP29      -0.2867
     40  CB        -7.2810  -15.9840   14.7080 C.3    29  TRP29       0.0550
     41  CG        -7.8380  -14.9310   13.8050 C.ar   29  TRP29       0.0003
     42  CD1       -8.0370  -13.6500   14.1210 C.ar   29  TRP29       0.0946
     43  CD2       -8.2490  -15.0660   12.4200 C.ar   29  TRP29       0.0152
     44  NE1       -8.5470  -12.9450   13.0320 N.ar   29  TRP29      -0.2442
     45  CE2       -8.6720  -13.7810   11.9740 C.ar   29  TRP29       0.0810
     46  CE3       -8.2580  -16.1240   11.5140 C.ar   29  TRP29       0.0012
     47  CZ2       -9.1220  -13.5210   10.6470 C.ar   29  TRP29       0.0191
     48  CZ3       -8.6860  -15.8740   10.1900 C.ar   29  TRP29       0.0001
     49  CH2       -9.1380  -14.5890    9.7760 C.ar   29  TRP29       0.0015
     50  N        -11.9230  -12.8220    2.9070 N.3    35  LEU35      -0.1231
     51  CA       -10.6710  -12.0730    2.9330 C.3    35  LEU35       0.1693
     52  C        -10.0260  -12.2530    1.6100 C.2    35  LEU35       0.2592
     53  O         -9.0180  -11.6130    1.3490 O.2    35  LEU35      -0.2718
     54  CB        -9.6990  -12.5450    4.0640 C.3    35  LEU35       0.0284
     55  CG        -9.9960  -12.0650    5.4870 C.3    35  LEU35       0.0019
     56  CD1       -9.2420  -12.8640    6.5410 C.3    35  LEU35       0.0001
     57  CD2       -9.6810  -10.5910    5.6720 C.3    35  LEU35       0.0001
     58  N        -10.5840  -13.1450    0.7810 N.am   36  SER36      -0.1952
     59  CA       -10.1210  -13.3960   -0.5960 C.3    36  SER36       0.1924
     60  C        -10.5070  -12.3390   -1.6830 C.2    36  SER36       0.2314
     61  O        -10.0260  -12.3720   -2.8110 O.2    36  SER36      -0.2863
     62  CB       -10.7180  -14.6930   -1.0980 C.3    36  SER36       0.2116
     63  OG       -10.5410  -14.7750   -2.5110 O.3    36  SER36      -0.2180
     64  N         -7.1200   -7.5900    9.8220 N.3    44  ALA44      -0.1245
     65  CA        -7.3080   -8.6910   10.7250 C.3    44  ALA44       0.1562
     66  C         -6.5550   -8.3860   12.0170 C.2    44  ALA44       0.2260
     67  O         -5.4020   -7.9530   11.9870 O.2    44  ALA44      -0.2867
     68  CB        -6.8300  -10.0040   10.0980 C.3    44  ALA44       0.0290
     69  N         -5.1190  -10.3870   15.1680 N.3    46  VAL46      -0.1245
     70  CA        -4.7570  -11.6410   15.7790 C.3    46  VAL46       0.1561
     71  C         -4.1330  -11.3810   17.1510 C.2    46  VAL46       0.2260
     72  O         -3.3630  -10.4060   17.3250 O.2    46  VAL46      -0.2867
     73  CB        -3.7580  -12.4640   14.9270 C.3    46  VAL46       0.0252
     74  CG1       -4.2520  -12.5780   13.4600 C.3    46  VAL46       0.0019
     75  CG2       -2.3860  -11.8530   14.9530 C.3    46  VAL46       0.0019
     76  N          0.0410  -15.4050   19.3910 N.3    50  ILE50      -0.1245
     77  CA         0.2410  -16.2680   18.2310 C.3    50  ILE50       0.1561
     78  C          1.6860  -16.3550   17.8590 C.2    50  ILE50       0.2260
     79  O          2.1980  -17.4250   17.4580 O.2    50  ILE50      -0.2867
     80  CB        -0.6590  -15.8430   17.0080 C.3    50  ILE50       0.0252
     81  CG1       -0.8580  -17.0700   16.0720 C.3    50  ILE50       0.0019
     82  CG2       -0.0580  -14.6690   16.2330 C.3    50  ILE50       0.0019
     83  CD1       -2.0210  -16.8990   15.1340 C.3    50  ILE50       0.0001
     84  N          1.4120  -23.2130   13.7530 N.3    56  VAL56      -0.1245
     85  CA         0.0260  -22.7910   13.7150 C.3    56  VAL56       0.1561
     86  C         -0.6350  -23.6020   12.5950 C.2    56  VAL56       0.2260
     87  O         -0.1010  -23.6710   11.5350 O.2    56  VAL56      -0.2867
     88  CB        -0.0860  -21.3040   13.4230 C.3    56  VAL56       0.0252
     89  CG1       -1.5160  -20.9250   13.1190 C.3    56  VAL56       0.0019
     90  CG2        0.4450  -20.4360   14.6140 C.3    56  VAL56       0.0019
     91  N         -3.3420  -23.5870   10.0270 N.3    58  ARG58      -0.1245
     92  CA        -4.3660  -22.8190    9.2950 C.3    58  ARG58       0.1563
     93  C         -5.3630  -23.6890    8.5540 C.2    58  ARG58       0.2260
     94  O         -4.9530  -24.5620    7.7400 O.2    58  ARG58      -0.2867
     95  CB        -3.6630  -21.9150    8.2970 C.3    58  ARG58       0.0307
     96  CG        -4.6300  -20.9180    7.6500 C.3    58  ARG58       0.0489
     97  CD        -3.9310  -20.0190    6.6190 C.3    58  ARG58       0.2205
     98  NE        -3.4940  -20.7760    5.4620 N.pl3  58  ARG58      -0.0865
     99  CZ        -2.5700  -20.3540    4.5930 C.cat  58  ARG58       0.5346
    100  NH1       -1.9560  -19.1990    4.7740 N.pl3  58  ARG58       0.1354
    101  NH2       -2.2380  -21.1190    3.5600 N.pl3  58  ARG58       0.1354
    102  N         -8.7570  -23.6040    6.1100 N.3    60  LEU60      -0.1245
    103  CA        -9.5100  -22.7030    5.1820 C.3    60  LEU60       0.1561
    104  C        -10.6370  -23.5030    4.5580 C.2    60  LEU60       0.2260
    105  O        -10.4060  -24.5930    4.0640 O.2    60  LEU60      -0.2867
    106  CB        -8.5760  -22.2780    4.0590 C.3    60  LEU60       0.0270
    107  CG        -7.8760  -20.9490    3.9110 C.3    60  LEU60       0.0019
    108  CD1       -7.2350  -20.6080    5.2350 C.3    60  LEU60       0.0001
    109  CD2       -6.8090  -20.9170    2.8160 C.3    60  LEU60       0.0001
    110  N        -13.5150  -23.4700    1.6620 N.3    62  PHE62      -0.1241
    111  CA       -13.7650  -22.6840    0.4500 C.3    62  PHE62       0.1605
    112  C        -14.7440  -23.4860   -0.4660 C.2    62  PHE62       0.2264
    113  O        -14.8010  -24.7330   -0.4460 O.2    62  PHE62      -0.2867
    114  CB       -12.4230  -22.2830   -0.2400 C.3    62  PHE62       0.0534
    115  CG       -11.6990  -23.4430   -0.9130 C.ar   62  PHE62      -0.0203
    116  CD1      -11.9760  -23.7800   -2.2540 C.ar   62  PHE62      -0.0042
    117  CD2      -10.7180  -24.1270   -0.2660 C.ar   62  PHE62      -0.0042
    118  CE1      -11.3600  -24.8630   -2.8570 C.ar   62  PHE62      -0.0003
    119  CE2      -10.0400  -25.2020   -0.8920 C.ar   62  PHE62      -0.0003
    120  CZ       -10.3700  -25.5680   -2.1810 C.ar   62  PHE62      -0.0000
    121  N         -5.3170  -25.6120   -7.8890 N.3    71  PHE71      -0.1241
    122  CA        -5.5470  -24.4670   -7.0680 C.3    71  PHE71       0.1605
    123  C         -4.3570  -24.3190   -6.1110 C.2    71  PHE71       0.2264
    124  O         -3.8660  -25.2980   -5.5380 O.2    71  PHE71      -0.2867
    125  CB        -6.8650  -24.6510   -6.3280 C.3    71  PHE71       0.0534
    126  CG        -7.1740  -23.5830   -5.3220 C.ar   71  PHE71      -0.0203
    127  CD1       -6.9420  -22.2280   -5.5940 C.ar   71  PHE71      -0.0042
    128  CD2       -7.7060  -23.9260   -4.0970 C.ar   71  PHE71      -0.0042
    129  CE1       -7.2420  -21.2560   -4.6510 C.ar   71  PHE71      -0.0003
    130  CE2       -8.0160  -22.9400   -3.1490 C.ar   71  PHE71      -0.0003
    131  CZ        -7.8010  -21.6040   -3.4260 C.ar   71  PHE71      -0.0000
    132  N         -1.8710  -21.1450   -3.7490 N.3    73  LEU73      -0.1245
    133  CA        -1.6430  -19.7400   -3.3270 C.3    73  LEU73       0.1561
    134  C         -0.1750  -19.3840   -3.2620 C.2    73  LEU73       0.2260
    135  O          0.7000  -20.2260   -2.9170 O.2    73  LEU73      -0.2867
    136  CB        -2.2270  -19.4890   -1.9220 C.3    73  LEU73       0.0270
    137  CG        -3.6240  -19.9230   -1.6760 C.3    73  LEU73       0.0019
    138  CD1       -3.9880  -19.7540   -0.2330 C.3    73  LEU73       0.0001
    139  CD2       -4.5730  -19.1040   -2.5160 C.3    73  LEU73       0.0001
    140  N          1.8140  -16.3440   -1.1900 N.3    75  GLN75      -0.1245
    141  CA         1.5500  -15.3280   -0.1970 C.3    75  GLN75       0.1566
    142  C          2.8740  -14.6650    0.1360 C.2    75  GLN75       0.2260
    143  O          3.8880  -15.3670    0.4510 O.2    75  GLN75      -0.2867
    144  CB         0.9380  -15.9180    1.0670 C.3    75  GLN75       0.0367
    145  CG        -0.4880  -16.2920    0.9170 C.3    75  GLN75       0.0905
    146  CD        -1.1150  -16.8990    2.1600 C.2    75  GLN75       0.2608
    147  OE1       -0.5550  -17.7930    2.8820 O.2    75  GLN75      -0.2717
    148  NE2       -2.2630  -16.4260    2.4190 N.am   75  GLN75      -0.0878
    149  N          1.9680  -24.1390    9.5630 N.3   106  ILE106     -0.1245
    150  CA         2.9790  -23.0720    9.3810 C.3   106  ILE106      0.1561
    151  C          3.8890  -23.0910   10.6130 C.2   106  ILE106      0.2260
    152  O          3.4330  -22.8070   11.7280 O.2   106  ILE106     -0.2867
    153  CB         2.2730  -21.7180    9.3190 C.3   106  ILE106      0.0252
    154  CG1        1.3720  -21.6950    8.1160 C.3   106  ILE106      0.0019
    155  CG2        3.2630  -20.5530    9.3410 C.3   106  ILE106      0.0019
    156  CD1        2.1290  -21.5800    6.8220 C.3   106  ILE106      0.0001
    157  N         -0.2430   -9.0680    4.1470 N.3   126  ILE126     -0.1245
    158  CA        -0.1680  -10.3390    3.4660 C.3   126  ILE126      0.1561
    159  C         -0.8150  -10.2080    2.1080 C.2   126  ILE126      0.2260
    160  O         -1.9750   -9.8920    2.0000 O.2   126  ILE126     -0.2867
    161  CB        -0.8800  -11.3970    4.2960 C.3   126  ILE126      0.0252
    162  CG1       -0.1510  -11.5340    5.6200 C.3   126  ILE126      0.0019
    163  CG2       -0.8580  -12.7680    3.6370 C.3   126  ILE126      0.0019
    164  CD1       -0.7750  -12.6520    6.3950 C.3   126  ILE126      0.0001
    165  N         -1.8730  -12.0590   -1.1390 N.3   128  THR128     -0.1218
    166  CA        -2.1420  -13.4040   -1.5580 C.3   128  THR128      0.1862
    167  C         -2.5050  -13.4010   -3.0570 C.2   128  THR128      0.2287
    168  O         -3.4800  -12.8000   -3.4560 O.2   128  THR128     -0.2866
    169  CB        -3.3250  -14.0070   -0.7710 C.3   128  THR128      0.1770
    170  OG1       -3.0230  -14.0480    0.6220 O.3   128  THR128     -0.2211
    171  CG2       -3.6010  -15.4410   -1.2520 C.3   128  THR128      0.0375
    172  N         -4.0240  -15.8500   -5.8230 N.3   130  PHE130     -0.1241
    173  CA        -4.8460  -17.0520   -6.0170 C.3   130  PHE130      0.1605
    174  C         -4.6350  -17.4870   -7.4710 C.2   130  PHE130      0.2264
    175  O         -4.9980  -16.7580   -8.3770 O.2   130  PHE130     -0.2867
    176  CB        -6.2860  -16.6440   -5.7130 C.3   130  PHE130      0.0534
    177  CG        -7.3790  -17.6180   -6.1260 C.ar  130  PHE130     -0.0203
    178  CD1       -7.1740  -18.7070   -6.9790 C.ar  130  PHE130     -0.0042
    179  CD2       -8.6890  -17.3640   -5.7060 C.ar  130  PHE130     -0.0042
    180  CE1       -8.2190  -19.5520   -7.3260 C.ar  130  PHE130     -0.0003
    181  CE2       -9.7410  -18.2070   -6.0650 C.ar  130  PHE130     -0.0003
    182  CZ        -9.5030  -19.3030   -6.8790 C.ar  130  PHE130     -0.0000
    183  N         -6.7040  -13.9220   -8.8440 N.3   138  SER138     -0.1217
    184  CA        -6.9280  -12.6840   -8.0880 C.3   138  SER138      0.1889
    185  C         -5.7970  -12.4620   -7.1330 C.2   138  SER138      0.2288
    186  O         -4.9480  -13.3450   -6.9320 O.2   138  SER138     -0.2866
    187  CB        -8.2070  -12.7360   -7.2700 C.3   138  SER138      0.2089
    188  OG        -8.1100  -13.7460   -6.2640 O.3   138  SER138     -0.2183
    189  N         -5.2550  -10.4180   -3.2870 N.3   140  SER140     -0.1217
    190  CA        -5.9820   -9.8530   -2.1790 C.3   140  SER140      0.1889
    191  C         -4.9410   -9.4630   -1.1530 C.2   140  SER140      0.2288
    192  O         -3.7960   -9.9330   -1.1750 O.2   140  SER140     -0.2866
    193  CB        -7.0160  -10.8240   -1.5990 C.3   140  SER140      0.2089
    194  OG        -6.4380  -12.1240   -1.2720 O.3   140  SER140     -0.2183
    195  N         -4.3000   -8.2790    3.0810 N.3   142  VAL142     -0.1245
    196  CA        -4.7400   -8.1430    4.4570 C.3   142  VAL142      0.1561
    197  C         -3.7020   -7.4510    5.3010 C.2   142  VAL142      0.2260
    198  O         -2.5380   -7.8660    5.3160 O.2   142  VAL142     -0.2867
    199  CB        -5.0700   -9.5000    5.1740 C.3   142  VAL142      0.0252
    200  CG1       -5.7770   -9.2010    6.4910 C.3   142  VAL142      0.0019
    201  CG2       -5.9630  -10.3190    4.3040 C.3   142  VAL142      0.0019
    202  N         -2.3990   -6.7420    9.0260 N.3   144  LEU144     -0.1245
    203  CA        -2.4510   -7.4300   10.3070 C.3   144  LEU144      0.1561
    204  C         -2.1090   -6.5740   11.5160 C.2   144  LEU144      0.2260
    205  O         -1.0810   -5.8680   11.5510 O.2   144  LEU144     -0.2867
    206  CB        -1.4270   -8.5410   10.2990 C.3   144  LEU144      0.0270
    207  CG        -1.7030   -9.6290    9.2850 C.3   144  LEU144      0.0019
    208  CD1       -0.6420  -10.6760    9.4360 C.3   144  LEU144      0.0001
    209  CD2       -3.0870  -10.2220    9.4800 C.3   144  LEU144      0.0001
    210  N         -1.5370   -7.2000   15.6710 N.3   146  TYR146     -0.1241
    211  CA        -1.1740   -8.2590   16.5810 C.3   146  TYR146      0.1605
    212  C         -1.4630   -7.6310   17.9260 C.2   146  TYR146      0.2264
    213  O         -0.7020   -6.7540   18.3610 O.2   146  TYR146     -0.2867
    214  CB         0.2880   -8.6580   16.4770 C.3   146  TYR146      0.0534
    215  CG         0.7720   -9.4250   15.2330 C.ar  146  TYR146     -0.0201
    216  CD1        0.9620   -8.7640   14.0380 C.ar  146  TYR146     -0.0009
    217  CD2        1.0640  -10.8150   15.2640 C.ar  146  TYR146     -0.0009
    218  CE1        1.4250   -9.4060   12.9200 C.ar  146  TYR146      0.0417
    219  CE2        1.5380  -11.4950   14.1110 C.ar  146  TYR146      0.0417
    220  CZ         1.7070  -10.7660   12.9390 C.ar  146  TYR146      0.1957
    221  OH         2.2190  -11.2670   11.7780 O.3   146  TYR146     -0.2866
@<TRIPOS>BOND
     1   183   184    1
     2   175   174    2
     3   184   187    1
     4   184   185    1
     5   121   122    1
     6   174   173    1
     7   180   178   ar
     8   180   182   ar
     9   187   188    1
    10   185   186    2
    11   122   125    1
    12   122   123    1
    13   178   177   ar
    14   182   181   ar
    15     1     2    1
    16   125   126    1
    17   177   176    1
    18   177   179   ar
    19   123   124    2
    20   181   179   ar
    21   173   172    1
    22   173   176    1
    23     5     2    1
    24     5     6    1
    25   127   126   ar
    26   127   129   ar
    27     2     3    1
    28   126   128   ar
    29     8     6   ar
    30     8    10   ar
    31     6     7   ar
    32   129   131   ar
    33     4     3    2
    34   128   130   ar
    35    10    11   ar
    36   132   133    1
    37     7     9   ar
    38   168   167    2
    39   131   130   ar
    40   133   134    1
    41   133   136    1
    42   189   190    1
    43   134   135    2
    44   167   166    1
    45   118   116   ar
    46   118   120   ar
    47    61    60    2
    48    11     9   ar
    49   139   137    1
    50    63    62    1
    51   116   115   ar
    52   120   119   ar
    53   190   193    1
    54   190   191    1
    55   136   137    1
    56    60    59    1
    57   137   138    1
    58   193   194    1
    59   166   165    1
    60   166   169    1
    61   171   169    1
    62   140   141    1
    63   192   191    2
    64    62    59    1
    65   115   117   ar
    66   115   114    1
    67   119   117   ar
    68   169   170    1
    69    59    58    1
    70   112   113    2
    71   112   111    1
    72   114   111    1
    73   141   142    1
    74   141   144    1
    75    12    13    1
    76   142   143    2
    77   111   110    1
    78    58    52   am
    79   145   144    1
    80   145   146    1
    81    13    16    1
    82    13    14    1
    83    53    52    2
    84    52    51    1
    85    16    17    1
    86   160   159    2
    87   159   158    1
    88   146   148   am
    89   146   147    2
    90    14    15    2
    91   109   107    1
    92    18    17    1
    93    50    51    1
    94    51    54    1
    95    17    19    1
    96   195   196    1
    97   158   157    1
    98   158   161    1
    99   101    99    1
   100   163   161    1
   101   107   106    1
   102   107   108    1
   103   106   103    1
   104   105   104    2
   105    54    55    1
   106   161   162    1
   107   201   199    1
   108   196   199    1
   109   196   197    1
   110   104   103    1
   111    99   100    1
   112    99    98    2
   113   199   200    1
   114   103   102    1
   115   197   198    2
   116    98    97    1
   117    55    57    1
   118    55    56    1
   119   162   164    1
   120    97    96    1
   121    26    27    1
   122    26    25    1
   123   156   154    1
   124    24    25    1
   125    24    21    1
   126    96    95    1
   127    94    93    2
   128    20    21    1
   129   154   153    1
   130    21    22    1
   131    95    92    1
   132    93    92    1
   133   202   203    1
   134   207   208    1
   135   207   209    1
   136   207   206    1
   137    92    91    1
   138   153   155    1
   139   153   150    1
   140   150   149    1
   141   150   151    1
   142    22    23    2
   143    49    48   ar
   144    49    47   ar
   145    64    65    1
   146    68    65    1
   147    48    46   ar
   148   206   203    1
   149   203   204    1
   150   151   152    2
   151    47    45   ar
   152    65    66    1
   153    35    33    1
   154    46    43   ar
   155   204   205    2
   156    87    86    2
   157    33    34    1
   158    33    32    1
   159   221   220    1
   160    45    43   ar
   161    45    44   ar
   162    67    66    2
   163    43    41   ar
   164    28    29    1
   165    86    85    1
   166   218   220   ar
   167   218   216   ar
   168    29    32    1
   169    29    30    1
   170   220   219   ar
   171    44    42   ar
   172    89    88    1
   173    88    85    1
   174    88    90    1
   175    74    73    1
   176    85    84    1
   177    41    42   ar
   178    41    40    1
   179    39    38    2
   180   216   215   ar
   181   219   217   ar
   182    30    31    2
   183    38    37    1
   184    40    37    1
   185    73    75    1
   186    73    70    1
   187    83    81    1
   188    69    70    1
   189   215   217   ar
   190   215   214    1
   191    37    36    1
   192   210   211    1
   193    70    71    1
   194    81    80    1
   195    82    80    1
   196   214   211    1
   197   211   212    1
   198    80    77    1
   199    71    72    2
   200    79    78    2
   201    78    77    1
   202   212   213    2
   203    77    76    1
