@<TRIPOS>MOLECULE
tmp/5e8jA00.pdb
 180 172 0 0 0
SMALL
GASTEIGER

@<TRIPOS>ATOM
      1  N          5.6790    5.2230   -5.5360 N.3    14  LYS14      -0.1245
      2  CA         6.0960    4.1320   -4.6660 C.3    14  LYS14       0.1561
      3  C          7.5920    4.2000   -4.3680 C.2    14  LYS14       0.2260
      4  O          8.0140    3.9620   -3.2360 O.2    14  LYS14      -0.2867
      5  CB         5.7270    2.7830   -5.2900 C.3    14  LYS14       0.0271
      6  CG         4.2260    2.5210   -5.2940 C.3    14  LYS14       0.0035
      7  CD         3.8910    1.0720   -5.6110 C.3    14  LYS14       0.0206
      8  CE         4.0530    0.7710   -7.0910 C.3    14  LYS14       0.1093
      9  NZ         3.9490   -0.6870   -7.3750 N.3    14  LYS14      -0.1314
     10  N          6.2040   -7.2400    2.1670 N.3    37  ASP37      -0.1225
     11  CA         5.4950   -6.7160    1.0070 C.3    37  ASP37       0.1805
     12  C          4.1330   -7.3970    0.8880 C.2    37  ASP37       0.2598
     13  O          4.0150   -8.4780    0.3110 O.2    37  ASP37      -0.2718
     14  CB         6.3190   -6.9230   -0.2660 C.3    37  ASP37       0.1424
     15  CG         5.7100   -6.2400   -1.4750 C.2    37  ASP37       0.3668
     16  OD1        4.8050   -5.3990   -1.2910 O.co2  37  ASP37      -0.2456
     17  OD2        6.1360   -6.5460   -2.6090 O.co2  37  ASP37      -0.2456
     18  N          3.1080   -6.7560    1.4410 N.am   38  LEU38      -0.1966
     19  CA         1.7990   -7.3830    1.5920 C.3    38  LEU38       0.1728
     20  C          0.9060   -7.0880    0.3930 C.2    38  LEU38       0.2617
     21  O          0.5520   -5.9370    0.1340 O.2    38  LEU38      -0.2715
     22  CB         1.1270   -6.9100    2.8820 C.3    38  LEU38       0.0311
     23  CG         0.0970   -7.8560    3.5030 C.3    38  LEU38       0.0022
     24  CD1       -0.1490   -7.4860    4.9580 C.3    38  LEU38       0.0001
     25  CD2       -1.2030   -7.8430    2.7130 C.3    38  LEU38       0.0001
     26  N          0.5460   -8.1380   -0.3350 N.am   39  GLY39      -0.1940
     27  CA        -0.1720   -7.9910   -1.5860 C.3    39  GLY39       0.2014
     28  C          0.8360   -7.6030   -2.6470 C.2    39  GLY39       0.2639
     29  O          0.6810   -6.5960   -3.3360 O.2    39  GLY39      -0.2714
     30  N          1.8700   -8.4270   -2.7780 N.am   40  CYS40      -0.1953
     31  CA         3.0470   -8.0820   -3.5640 C.3    40  CYS40       0.1843
     32  C          2.7840   -8.1040   -5.0630 C.2    40  CYS40       0.2626
     33  O          3.5420   -7.5240   -5.8400 O.2    40  CYS40      -0.2714
     34  CB         4.1940   -9.0350   -3.2290 C.3    40  CYS40       0.0997
     35  SG         3.8060  -10.7820   -3.5070 S.3    40  CYS40      -0.0797
     36  N          1.7100   -8.7740   -5.4660 N.am   41  GLY41      -0.1940
     37  CA         1.4070   -8.9240   -6.8760 C.3    41  GLY41       0.2014
     38  C          2.4670   -9.7580   -7.5650 C.2    41  GLY41       0.2638
     39  O          2.9570  -10.7390   -7.0060 O.2    41  GLY41      -0.2714
     40  N          2.8260   -9.3660   -8.7830 N.am   42  LYS42      -0.1977
     41  CA         3.8340  -10.0870   -9.5470 C.3    42  LYS42       0.1596
     42  C          5.2410   -9.5400   -9.3050 C.2    42  LYS42       0.2287
     43  O          6.1870   -9.9060  -10.0030 O.2    42  LYS42      -0.2864
     44  CB         3.4920  -10.0430  -11.0370 C.3    42  LYS42       0.0298
     45  CG         2.4140  -11.0440  -11.4300 C.3    42  LYS42       0.0038
     46  CD         1.4850  -10.4890  -12.4980 C.3    42  LYS42       0.0206
     47  CE         0.0660  -11.0110  -12.3140 C.3    42  LYS42       0.1093
     48  NZ        -0.9210  -10.2430  -13.1240 N.3    42  LYS42      -0.1314
     49  N          6.1580   -5.9590   -8.6570 N.3    44  GLY44      -0.1210
     50  CA         6.4410   -4.6760   -9.2720 C.3    44  GLY44       0.1956
     51  C          7.3970   -3.8290   -8.4530 C.2    44  GLY44       0.2611
     52  O          7.9480   -2.8440   -8.9460 O.2    44  GLY44      -0.2717
     53  N          7.5990   -4.2210   -7.1990 N.am   45  ASP45      -0.1973
     54  CA         8.4170   -3.4500   -6.2710 C.3    45  ASP45       0.1709
     55  C          9.7000   -4.1800   -5.8940 C.2    45  ASP45       0.2293
     56  O         10.4740   -3.6960   -5.0680 O.2    45  ASP45      -0.2864
     57  CB         7.6180   -3.1140   -5.0120 C.3    45  ASP45       0.1436
     58  CG         6.6090   -2.0080   -5.2410 C.2    45  ASP45       0.3671
     59  OD1        6.6320   -1.3960   -6.3300 O.co2  45  ASP45      -0.2456
     60  OD2        5.7930   -1.7510   -4.3310 O.co2  45  ASP45      -0.2456
     61  N          3.9950  -11.6590   -0.1580 N.3    60  THR60      -0.1203
     62  CA         2.7880  -12.4390    0.0630 C.3    60  THR60       0.1994
     63  C          1.6270  -11.8400   -0.7150 C.2    60  THR60       0.2618
     64  O          1.5400  -10.6240   -0.8870 O.2    60  THR60      -0.2717
     65  CB         2.4200  -12.5160    1.5620 C.3    60  THR60       0.1784
     66  OG1        1.2710  -13.3540    1.7340 O.3    60  THR60      -0.2211
     67  CG2        2.1200  -11.1290    2.1120 C.3    60  THR60       0.0376
     68  N          0.7360  -12.7070   -1.1770 N.am   61  ASP61      -0.1959
     69  CA        -0.4080  -12.2910   -1.9750 C.3    61  ASP61       0.1840
     70  C         -1.4610  -13.3880   -1.9480 C.2    61  ASP61       0.2622
     71  O         -1.1520  -14.5420   -1.6510 O.2    61  ASP61      -0.2715
     72  CB         0.0200  -11.9940   -3.4140 C.3    61  ASP61       0.1450
     73  CG        -1.0360  -11.2380   -4.1950 C.2    61  ASP61       0.3671
     74  OD1       -2.0850  -11.8360   -4.5190 O.co2  61  ASP61      -0.2456
     75  OD2       -0.8060  -10.0490   -4.5010 O.co2  61  ASP61      -0.2456
     76  N         -2.7060  -13.0310   -2.2460 N.am   62  ILE62      -0.1963
     77  CA        -3.7820  -14.0140   -2.2810 C.3    62  ILE62       0.1727
     78  C         -3.7300  -14.8590   -3.5540 C.2    62  ILE62       0.2616
     79  O         -4.1470  -16.0170   -3.5540 O.2    62  ILE62      -0.2715
     80  CB        -5.1630  -13.3420   -2.1780 C.3    62  ILE62       0.0290
     81  CG1       -6.2290  -14.3770   -1.8160 C.3    62  ILE62       0.0022
     82  CG2       -5.5110  -12.6330   -3.4810 C.3    62  ILE62       0.0023
     83  CD1       -7.5460  -13.7700   -1.3960 C.3    62  ILE62       0.0001
     84  N         -3.2150  -14.2750   -4.6320 N.am   63  ALA63      -0.1977
     85  CA        -3.1700  -14.9540   -5.9250 C.3    63  ALA63       0.1597
     86  C         -1.8970  -15.7840   -6.0670 C.2    63  ALA63       0.2287
     87  O         -0.8020  -15.2400   -6.2180 O.2    63  ALA63      -0.2864
     88  CB        -3.2750  -13.9450   -7.0570 C.3    63  ALA63       0.0319
     89  N          0.3320  -15.2040   -9.0570 N.3    66  SER66      -0.1217
     90  CA         1.0770  -13.9560   -8.9440 C.3    66  SER66       0.1889
     91  C          2.3160  -14.1270   -8.0700 C.2    66  SER66       0.2288
     92  O          3.4120  -13.7110   -8.4470 O.2    66  SER66      -0.2866
     93  CB         0.1830  -12.8490   -8.3810 C.3    66  SER66       0.2089
     94  OG        -0.8660  -12.5360   -9.2810 O.3    66  SER66      -0.2183
     95  N         -1.3620  -16.4410    0.3670 N.3    94  ALA94      -0.1231
     96  CA        -2.2060  -16.3050    1.5480 C.3    94  ALA94       0.1694
     97  C         -3.2000  -15.1570    1.4330 C.2    94  ALA94       0.2592
     98  O         -2.9010  -14.1110    0.8580 O.2    94  ALA94      -0.2718
     99  CB        -1.3410  -16.1190    2.7880 C.3    94  ALA94       0.0304
    100  N         -4.3890  -15.3730    1.9860 N.am   95  ASP95      -0.1960
    101  CA        -5.3780  -14.3160    2.1380 C.3    95  ASP95       0.1840
    102  C         -5.0750  -13.5800    3.4390 C.2    95  ASP95       0.2623
    103  O         -5.3700  -14.0720    4.5290 O.2    95  ASP95      -0.2715
    104  CB        -6.7960  -14.8990    2.1390 C.3    95  ASP95       0.1450
    105  CG        -7.8800  -13.8330    2.2250 C.2    95  ASP95       0.3671
    106  OD1       -7.5970  -12.6960    2.6570 O.co2  95  ASP95      -0.2456
    107  OD2       -9.0340  -14.1430    1.8610 O.co2  95  ASP95      -0.2456
    108  N         -4.4810  -12.3980    3.3190 N.am   96  SER96      -0.1936
    109  CA        -4.0610  -11.6370    4.4880 C.3    96  SER96       0.2055
    110  C         -5.2320  -10.9510    5.1860 C.2    96  SER96       0.2643
    111  O         -5.0340  -10.1530    6.1030 O.2    96  SER96      -0.2714
    112  CB        -3.0110  -10.5990    4.0890 C.3    96  SER96       0.2130
    113  OG        -1.7730  -11.2220    3.8020 O.3    96  SER96      -0.2179
    114  N         -6.4500  -11.2650    4.7550 N.am   97  SER97      -0.1949
    115  CA        -7.6420  -10.7380    5.4090 C.3    97  SER97       0.1924
    116  C         -8.3810  -11.8230    6.1870 C.2    97  SER97       0.2314
    117  O         -9.3150  -11.5320    6.9350 O.2    97  SER97      -0.2863
    118  CB        -8.5800  -10.1000    4.3810 C.3    97  SER97       0.2116
    119  OG        -9.4070  -11.0730    3.7710 O.3    97  SER97      -0.2180
    120  N          0.8930   -1.6100   -1.0690 N.3   118  GLN118     -0.1231
    121  CA         0.6250   -0.6970   -2.1710 C.3   118  GLN118      0.1698
    122  C         -0.6020   -1.1280   -2.9720 C.2   118  GLN118      0.2592
    123  O         -0.5730   -2.1430   -3.6690 O.2   118  GLN118     -0.2718
    124  CB         1.8470   -0.6010   -3.0890 C.3   118  GLN118      0.0381
    125  CG         3.1460   -0.2440   -2.3740 C.3   118  GLN118      0.0905
    126  CD         3.0400    1.0350   -1.5650 C.2   118  GLN118      0.2608
    127  OE1        2.3770    1.9890   -1.9730 O.2   118  GLN118     -0.2717
    128  NE2        3.6960    1.0620   -0.4100 N.am  118  GLN118     -0.0878
    129  N         -1.6780   -0.3520   -2.8610 N.am  119  PHE119     -0.1962
    130  CA        -2.9100   -0.6020   -3.6100 C.3   119  PHE119      0.1771
    131  C         -3.6120   -1.8940   -3.1970 C.2   119  PHE119      0.2619
    132  O         -4.1640   -2.5950   -4.0420 O.2   119  PHE119     -0.2715
    133  CB        -2.6250   -0.6500   -5.1160 C.3   119  PHE119      0.0574
    134  CG        -2.0090    0.6050   -5.6650 C.ar  119  PHE119     -0.0200
    135  CD1       -2.7940    1.7110   -5.9410 C.ar  119  PHE119     -0.0042
    136  CD2       -0.6490    0.6740   -5.9200 C.ar  119  PHE119     -0.0042
    137  CE1       -2.2360    2.8690   -6.4510 C.ar  119  PHE119     -0.0003
    138  CE2       -0.0830    1.8280   -6.4320 C.ar  119  PHE119     -0.0003
    139  CZ        -0.8780    2.9270   -6.6980 C.ar  119  PHE119     -0.0000
    140  N         -3.6140   -2.2000   -1.9040 N.am  120  VAL120     -0.1977
    141  CA        -4.1810   -3.4630   -1.4390 C.3   120  VAL120      0.1596
    142  C         -5.2020   -3.3000   -0.3120 C.2   120  VAL120      0.2287
    143  O         -6.2000   -4.0190   -0.2670 O.2   120  VAL120     -0.2864
    144  CB        -3.0730   -4.4190   -0.9520 C.3   120  VAL120      0.0276
    145  CG1       -3.6630   -5.7760   -0.5960 C.3   120  VAL120      0.0022
    146  CG2       -1.9890   -4.5600   -2.0080 C.3   120  VAL120      0.0022
    147  N         -9.2150   -3.7730   -0.3010 N.3   123  TYR123     -0.1241
    148  CA        -9.8430   -5.0770   -0.5040 C.3   123  TYR123      0.1605
    149  C        -10.2000   -5.7310    0.8300 C.2   123  TYR123      0.2264
    150  O        -11.0830   -6.5850    0.8950 O.2   123  TYR123     -0.2867
    151  CB        -8.9270   -6.0050   -1.3070 C.3   123  TYR123      0.0534
    152  CG        -8.6380   -5.5310   -2.7120 C.ar  123  TYR123     -0.0201
    153  CD1       -9.6480   -5.4550   -3.6610 C.ar  123  TYR123     -0.0009
    154  CD2       -7.3550   -5.1600   -3.0890 C.ar  123  TYR123     -0.0009
    155  CE1       -9.3890   -5.0230   -4.9460 C.ar  123  TYR123      0.0417
    156  CE2       -7.0850   -4.7260   -4.3720 C.ar  123  TYR123      0.0417
    157  CZ        -8.1060   -4.6600   -5.2960 C.ar  123  TYR123      0.1957
    158  OH        -7.8470   -4.2290   -6.5750 O.3   123  TYR123     -0.2866
    159  N         -6.0810   -7.8950    8.2210 N.3   134  MET134     -0.1245
    160  CA        -5.0230   -7.3580    7.3720 C.3   134  MET134      0.1570
    161  C         -4.1830   -6.3450    8.1390 C.2   134  MET134      0.2261
    162  O         -2.9570   -6.3300    8.0280 O.2   134  MET134     -0.2867
    163  CB        -5.5960   -6.7140    6.1100 C.3   134  MET134      0.0387
    164  CG        -4.5210   -6.1820    5.1700 C.3   134  MET134      0.0595
    165  SD        -5.0620   -6.0010    3.4610 S.3   134  MET134     -0.1393
    166  CE        -5.2660   -7.7150    2.9860 C.3   134  MET134      0.0692
    167  N         -5.0120   -1.9110  -16.1860 N.3   199  VAL199     -0.1231
    168  CA        -4.5100   -2.4940  -14.9440 C.3   199  VAL199      0.1692
    169  C         -5.5420   -3.3800  -14.2340 C.2   199  VAL199      0.2591
    170  O         -5.3040   -4.5610  -14.0010 O.2   199  VAL199     -0.2718
    171  CB        -4.0160   -1.3850  -13.9970 C.3   199  VAL199      0.0266
    172  CG1       -3.4170   -1.9810  -12.7370 C.3   199  VAL199      0.0020
    173  CG2       -2.9880   -0.5110  -14.7240 C.3   199  VAL199      0.0020
    174  N         -6.6910   -2.8110  -13.8920 N.am  200  VAL200     -0.1980
    175  CA        -7.6980   -3.5510  -13.1290 C.3   200  VAL200      0.1595
    176  C         -9.0930   -3.5330  -13.7240 C.2   200  VAL200      0.2287
    177  O         -9.4610   -2.6050  -14.4440 O.2   200  VAL200     -0.2864
    178  CB        -7.8070   -3.0080  -11.7020 C.3   200  VAL200      0.0276
    179  CG1       -8.9360   -3.7000  -10.9640 C.3   200  VAL200      0.0022
    180  CG2       -6.4810   -3.1920  -10.9850 C.3   200  VAL200      0.0022
@<TRIPOS>BOND
     1   167   168    1
     2   168   169    1
     3   168   171    1
     4   173   171    1
     5   177   176    2
     6   169   170    2
     7   169   174   am
     8   171   172    1
     9   174   175    1
    10   176   175    1
    11   175   178    1
    12    48    47    1
    13    46    47    1
    14    46    45    1
    15   178   180    1
    16   178   179    1
    17    45    44    1
    18    44    41    1
    19    43    42    2
    20    41    42    1
    21    41    40    1
    22    94    93    1
    23    50    49    1
    24    50    51    1
    25    89    90    1
    26    52    51    2
    27    90    93    1
    28    90    91    1
    29    40    38   am
    30    51    53   am
    31    92    91    2
    32    38    39    2
    33    38    37    1
    34     9     8    1
    35    53    54    1
    36     8     7    1
    37    88    85    1
    38    37    36    1
    39   139   137   ar
    40   139   138   ar
    41   158   157    1
    42   137   135   ar
    43   138   136   ar
    44    59    58   ar
    45    54    55    1
    46    54    57    1
    47    87    86    2
    48    86    85    1
    49   135   134   ar
    50    85    84    1
    51   136   134   ar
    52    55    56    2
    53    33    32    2
    54   134   133    1
    55     7     6    1
    56     1     2    1
    57    36    32   am
    58   157   155   ar
    59   157   156   ar
    60     6     5    1
    61     5     2    1
    62    58    57    1
    63    58    60   ar
    64   133   130    1
    65    32    31    1
    66   155   153   ar
    67     2     3    1
    68    84    78   am
    69    74    73   ar
    70    75    73   ar
    71   156   154   ar
    72     3     4    2
    73    73    72    1
    74   132   131    2
    75   123   122    2
    76   153   152   ar
    77   130   131    1
    78   130   129    1
    79    31    34    1
    80    31    30    1
    81    78    79    2
    82    78    77    1
    83    35    34    1
    84    82    80    1
    85    72    69    1
    86    29    28    2
    87   131   140   am
    88   154   152   ar
    89   124   125    1
    90   124   121    1
    91   122   129   am
    92   122   121    1
    93    30    28   am
    94   152   151    1
    95    28    27    1
    96    17    15   ar
    97   125   126    1
    98    77    76    1
    99    77    80    1
   100    76    70   am
   101    80    81    1
   102   121   120    1
   103   146   144    1
   104    69    70    1
   105    69    68    1
   106   127   126    2
   107    70    71    2
   108   140   141    1
   109    81    83    1
   110    27    26    1
   111   126   128   am
   112    15    16   ar
   113    15    14    1
   114   141   144    1
   115   141   142    1
   116   151   148    1
   117    68    63   am
   118   144   145    1
   119    64    63    2
   120    63    62    1
   121   148   147    1
   122   148   149    1
   123    26    20   am
   124   142   143    2
   125    14    11    1
   126    61    62    1
   127    62    65    1
   128    21    20    2
   129    13    12    2
   130    95    96    1
   131    20    19    1
   132   149   150    2
   133    98    97    2
   134    12    11    1
   135    12    18   am
   136    11    10    1
   137    97    96    1
   138    97   100   am
   139    18    19    1
   140    96    99    1
   141    65    66    1
   142    65    67    1
   143    19    22    1
   144   107   105   ar
   145   100   101    1
   146   101   104    1
   147   101   102    1
   148   104   105    1
   149   105   106   ar
   150    25    23    1
   151    22    23    1
   152   166   165    1
   153   108   102   am
   154   108   109    1
   155   102   103    2
   156   165   164    1
   157    23    24    1
   158   119   118    1
   159   113   112    1
   160   112   109    1
   161   118   115    1
   162   109   110    1
   163   114   110   am
   164   114   115    1
   165   164   163    1
   166   110   111    2
   167   115   116    1
   168   163   160    1
   169   116   117    2
   170   160   161    1
   171   160   159    1
   172   162   161    2
