@<TRIPOS>MOLECULE
tmp/5e8pA00.pdb
 175 169 0 0 0
SMALL
GASTEIGER

@<TRIPOS>ATOM
      1  N         -4.9180    7.5240   79.1160 N.3    70  GLN70      -0.1245
      2  CA        -5.6160    7.0060   80.2890 C.3    70  GLN70       0.1566
      3  C         -6.1800    8.1420   81.1240 C.2    70  GLN70       0.2260
      4  O         -7.2770    8.0270   81.6830 O.2    70  GLN70      -0.2867
      5  CB        -4.6730    6.1450   81.1330 C.3    70  GLN70       0.0367
      6  CG        -4.2240    4.8640   80.4520 C.3    70  GLN70       0.0905
      7  CD        -5.3990    3.9550   80.0880 C.2    70  GLN70       0.2608
      8  OE1       -5.8470    3.1620   80.9070 O.2    70  GLN70      -0.2717
      9  NE2       -5.9080    4.0880   78.8560 N.am   70  GLN70      -0.0878
     10  N         -9.3810    9.0490   79.6570 N.3    73  TRP73      -0.1241
     11  CA       -10.3170    7.9660   79.9230 C.3    73  TRP73       0.1605
     12  C        -10.8730    8.0530   81.3390 C.2    73  TRP73       0.2264
     13  O        -12.0560    7.8100   81.5510 O.2    73  TRP73      -0.2867
     14  CB        -9.5960    6.6400   79.7150 C.3    73  TRP73       0.0550
     15  CG       -10.4220    5.4450   79.7870 C.ar   73  TRP73       0.0003
     16  CD1      -10.9370    4.7370   78.7340 C.ar   73  TRP73       0.0946
     17  CD2      -10.8100    4.7460   80.9740 C.ar   73  TRP73       0.0152
     18  NE1      -11.6200    3.6490   79.1930 N.ar   73  TRP73      -0.2442
     19  CE2      -11.5650    3.6310   80.5660 C.ar   73  TRP73       0.0810
     20  CE3      -10.5980    4.9630   82.3470 C.ar   73  TRP73       0.0012
     21  CZ2      -12.1240    2.7320   81.4790 C.ar   73  TRP73       0.0191
     22  CZ3      -11.1400    4.0670   83.2500 C.ar   73  TRP73       0.0001
     23  CH2      -11.8980    2.9630   82.8130 C.ar   73  TRP73       0.0015
     24  N        -13.3990   11.2430   81.5780 N.3    76  VAL76      -0.1231
     25  CA       -14.7040   10.8600   81.0610 C.3    76  VAL76       0.1692
     26  C        -15.3790    9.8750   82.0080 C.2    76  VAL76       0.2592
     27  O        -16.5710    9.9840   82.2850 O.2    76  VAL76      -0.2718
     28  CB       -14.5650   10.2690   79.6460 C.3    76  VAL76       0.0266
     29  CG1      -15.8800    9.6500   79.2130 C.3    76  VAL76       0.0020
     30  CG2      -14.1290   11.3330   78.6410 C.3    76  VAL76       0.0020
     31  N        -14.6240    8.9070   82.5270 N.am   77  SER77      -0.1952
     32  CA       -15.2430    7.9090   83.3990 C.3    77  SER77       0.1924
     33  C        -15.7240    8.5300   84.7010 C.2    77  SER77       0.2314
     34  O        -16.8120    8.1890   85.1870 O.2    77  SER77      -0.2863
     35  CB       -14.2660    6.7840   83.6710 C.3    77  SER77       0.2116
     36  OG       -14.1470    5.9930   82.5140 O.3    77  SER77      -0.2180
     37  N        -18.9650   10.2250   83.8780 N.3    80  ASN80      -0.1225
     38  CA       -20.1070    9.3200   83.7270 C.3    80  ASN80       0.1785
     39  C        -20.5710    8.7820   85.0730 C.2    80  ASN80       0.2597
     40  O        -21.7730    8.6430   85.3040 O.2    80  ASN80      -0.2718
     41  CB       -19.7650    8.1600   82.7920 C.3    80  ASN80       0.1169
     42  CG       -19.5090    8.6150   81.3580 C.2    80  ASN80       0.2627
     43  OD1      -19.7970    9.7530   80.9900 O.2    80  ASN80      -0.2716
     44  ND2      -18.9470    7.7160   80.5450 N.am   80  ASN80      -0.0877
     45  N        -19.6320    8.4460   85.9640 N.am   81  LEU81      -0.1980
     46  CA       -19.9910    7.8700   87.2530 C.3    81  LEU81       0.1596
     47  C        -20.8050    8.8460   88.0830 C.2    81  LEU81       0.2287
     48  O        -21.7080    8.4400   88.8250 O.2    81  LEU81      -0.2864
     49  CB       -18.7380    7.4720   88.0150 C.3    81  LEU81       0.0297
     50  CG       -18.0190    6.2000   87.5880 C.3    81  LEU81       0.0022
     51  CD1      -16.6000    6.2680   88.0990 C.3    81  LEU81       0.0001
     52  CD2      -18.7250    5.0160   88.1710 C.3    81  LEU81       0.0001
     53  N        -24.2670    8.2790   87.0240 N.3    84  TYR84      -0.1241
     54  CA       -24.7460    6.9600   87.4180 C.3    84  TYR84       0.1605
     55  C        -25.2270    6.9460   88.8530 C.2    84  TYR84       0.2264
     56  O        -26.2340    6.3020   89.1660 O.2    84  TYR84      -0.2867
     57  CB       -23.6390    5.9190   87.2630 C.3    84  TYR84       0.0534
     58  CG       -23.1710    5.6380   85.8480 C.ar   84  TYR84      -0.0201
     59  CD1      -23.8490    6.1260   84.7250 C.ar   84  TYR84      -0.0009
     60  CD2      -22.0520    4.8590   85.6460 C.ar   84  TYR84      -0.0009
     61  CE1      -23.3760    5.8510   83.4300 C.ar   84  TYR84       0.0417
     62  CE2      -21.5760    4.5810   84.3840 C.ar   84  TYR84       0.0417
     63  CZ       -22.2280    5.0650   83.2780 C.ar   84  TYR84       0.1957
     64  OH       -21.6940    4.7260   82.0420 O.3    84  TYR84      -0.2866
     65  N        -11.5590    7.5650   91.4980 N.3    95  LEU95      -0.1245
     66  CA       -11.6380    6.3520   90.7020 C.3    95  LEU95       0.1561
     67  C        -10.2840    5.6740   90.8060 C.2    95  LEU95       0.2260
     68  O         -9.2460    6.3250   90.6250 O.2    95  LEU95      -0.2867
     69  CB       -12.0310    6.7040   89.2490 C.3    95  LEU95       0.0270
     70  CG       -12.4720    5.6210   88.2660 C.3    95  LEU95       0.0019
     71  CD1      -13.4830    4.6920   88.9300 C.3    95  LEU95       0.0001
     72  CD2      -13.0560    6.2630   86.9820 C.3    95  LEU95       0.0001
     73  N         -7.8100    2.0280   90.0710 N.3    97  GLN97      -0.1245
     74  CA        -7.6260    0.8420   89.2620 C.3    97  GLN97       0.1566
     75  C         -6.3640    0.1210   89.7090 C.2    97  GLN97       0.2260
     76  O         -5.3520    0.7550   90.0360 O.2    97  GLN97      -0.2867
     77  CB        -7.5330    1.1860   87.7750 C.3    97  GLN97       0.0367
     78  CG        -7.4080   -0.0260   86.8420 C.3    97  GLN97       0.0905
     79  CD        -7.1340    0.4040   85.4080 C.2    97  GLN97       0.2608
     80  OE1       -7.3210    1.5730   85.0690 O.2    97  GLN97      -0.2717
     81  NE2       -6.7080   -0.5350   84.5590 N.am   97  GLN97      -0.0878
     82  N         -7.7590   -7.1250   87.0240 N.3   114  LEU114     -0.1245
     83  CA        -8.2190   -5.8370   86.5260 C.3   114  LEU114      0.1561
     84  C         -9.4590   -5.4820   87.3370 C.2   114  LEU114      0.2260
     85  O        -10.5190   -6.0960   87.1590 O.2   114  LEU114     -0.2867
     86  CB        -8.5060   -5.8960   85.0350 C.3   114  LEU114      0.0270
     87  CG        -9.2850   -4.7480   84.4140 C.3   114  LEU114      0.0019
     88  CD1       -8.5870   -3.4410   84.6320 C.3   114  LEU114      0.0001
     89  CD2       -9.4580   -5.0270   82.9350 C.3   114  LEU114      0.0001
     90  N        -11.6180   -2.1690   89.5510 N.3   116  PHE116     -0.1241
     91  CA       -11.8480   -0.7460   89.7290 C.3   116  PHE116      0.1605
     92  C        -12.5830   -0.4950   91.0360 C.2   116  PHE116      0.2264
     93  O        -13.4140   -1.3030   91.4780 O.2   116  PHE116     -0.2867
     94  CB       -12.6720   -0.1690   88.5890 C.3   116  PHE116      0.0534
     95  CG       -11.9330   -0.0570   87.3000 C.ar  116  PHE116     -0.0203
     96  CD1      -11.1740    1.0800   87.0220 C.ar  116  PHE116     -0.0042
     97  CD2      -12.0050   -1.0680   86.3530 C.ar  116  PHE116     -0.0042
     98  CE1      -10.4890    1.1950   85.8250 C.ar  116  PHE116     -0.0003
     99  CE2      -11.3070   -0.9550   85.1510 C.ar  116  PHE116     -0.0003
    100  CZ       -10.5620    0.1870   84.8890 C.ar  116  PHE116     -0.0000
    101  N        -16.1210   -1.4330   92.3800 N.3   123  TYR123     -0.1241
    102  CA       -17.0470   -0.9790   91.3540 C.3   123  TYR123      0.1605
    103  C        -17.2480   -2.0520   90.2970 C.2   123  TYR123      0.2264
    104  O        -18.3710   -2.4760   90.0600 O.2   123  TYR123     -0.2867
    105  CB       -16.5610    0.3390   90.7040 C.3   123  TYR123      0.0534
    106  CG       -17.5160    0.8570   89.6370 C.ar  123  TYR123     -0.0201
    107  CD1      -18.7630    1.3620   89.9810 C.ar  123  TYR123     -0.0009
    108  CD2      -17.1840    0.8000   88.2890 C.ar  123  TYR123     -0.0009
    109  CE1      -19.6480    1.8250   89.0120 C.ar  123  TYR123      0.0417
    110  CE2      -18.0540    1.2620   87.3080 C.ar  123  TYR123      0.0417
    111  CZ       -19.2960    1.7670   87.6770 C.ar  123  TYR123      0.1957
    112  OH       -20.1870    2.2250   86.7180 O.3   123  TYR123     -0.2866
    113  N        -22.0130    0.0560   83.2960 N.3   143  THR143     -0.1218
    114  CA       -20.6760   -0.1490   82.7410 C.3   143  THR143      0.1862
    115  C        -20.4930   -1.5790   82.2450 C.2   143  THR143      0.2287
    116  O        -19.9890   -1.8020   81.1390 O.2   143  THR143     -0.2866
    117  CB       -19.6220    0.1720   83.7920 C.3   143  THR143      0.1770
    118  OG1      -19.7620    1.5400   84.1800 O.3   143  THR143     -0.2211
    119  CG2      -18.2030   -0.0750   83.2210 C.3   143  THR143      0.0375
    120  N        -22.1650   -2.0800   78.8510 N.3   146  LYS146     -0.1231
    121  CA       -21.3480   -1.4110   77.8440 C.3   146  LYS146      0.1693
    122  C        -20.1170   -2.2360   77.5070 C.2   146  LYS146      0.2592
    123  O        -19.8080   -2.4710   76.3350 O.2   146  LYS146     -0.2718
    124  CB       -20.9340   -0.0230   78.3280 C.3   146  LYS146      0.0285
    125  CG       -21.9240    1.0700   77.9980 C.3   146  LYS146      0.0035
    126  CD       -21.8480    2.2100   79.0060 C.3   146  LYS146      0.0206
    127  CE       -20.4860    2.8810   79.0030 C.3   146  LYS146      0.1093
    128  NZ       -20.6060    4.3640   79.1380 N.3   146  LYS146     -0.1314
    129  N        -19.4040   -2.6980   78.5300 N.am  147  TRP147     -0.1976
    130  CA       -18.1480   -3.3700   78.2550 C.3   147  TRP147      0.1640
    131  C        -18.3810   -4.7530   77.6720 C.2   147  TRP147      0.2290
    132  O        -17.5700   -5.2260   76.8600 O.2   147  TRP147     -0.2864
    133  CB       -17.3100   -3.4320   79.5260 C.3   147  TRP147      0.0576
    134  CG       -16.7770   -2.0980   79.9160 C.ar  147  TRP147      0.0006
    135  CD1      -16.9990   -0.9010   79.2850 C.ar  147  TRP147      0.0946
    136  CD2      -15.9360   -1.8170   81.0300 C.ar  147  TRP147      0.0152
    137  NE1      -16.3180    0.1050   79.9320 N.ar  147  TRP147     -0.2442
    138  CE2      -15.6680   -0.4310   81.0150 C.ar  147  TRP147      0.0810
    139  CE3      -15.3690   -2.6040   82.0300 C.ar  147  TRP147      0.0012
    140  CZ2      -14.8620    0.1760   81.9600 C.ar  147  TRP147      0.0191
    141  CZ3      -14.5860   -2.0040   82.9700 C.ar  147  TRP147      0.0001
    142  CH2      -14.3260   -0.6190   82.9270 C.ar  147  TRP147      0.0015
    143  N        -19.1790   -4.0290   73.9310 N.3   150  SER150     -0.1217
    144  CA       -17.9990   -3.6650   73.1620 C.3   150  SER150      0.1889
    145  C        -16.9710   -4.7850   73.0860 C.2   150  SER150      0.2288
    146  O        -15.9990   -4.6560   72.3350 O.2   150  SER150     -0.2866
    147  CB       -17.3450   -2.4210   73.7650 C.3   150  SER150      0.2089
    148  OG       -16.5960   -2.7620   74.9230 O.3   150  SER150     -0.2183
    149  N        -14.8360   -5.4810   75.4130 N.3   152  ALA152     -0.1245
    150  CA       -13.6040   -4.9120   75.9570 C.3   152  ALA152      0.1562
    151  C        -12.6940   -5.9720   76.5780 C.2   152  ALA152      0.2260
    152  O        -11.4700   -5.8700   76.4730 O.2   152  ALA152     -0.2867
    153  CB       -13.9540   -3.8360   76.9950 C.3   152  ALA152      0.0290
    154  N         -9.6300   -7.6060   74.6690 N.3   155  HIS155     -0.1226
    155  CA        -8.3830   -6.8570   74.6450 C.3   155  HIS155      0.1752
    156  C         -7.6400   -6.9680   75.9760 C.2   155  HIS155      0.2596
    157  O         -6.4060   -7.0320   76.0010 O.2   155  HIS155     -0.2718
    158  CB        -8.6840   -5.4010   74.2790 C.3   155  HIS155      0.0759
    159  CG        -7.5610   -4.4560   74.5580 C.ar  155  HIS155      0.0818
    160  ND1       -6.3280   -4.5620   73.9530 N.ar  155  HIS155     -0.2268
    161  CD2       -7.4890   -3.3760   75.3730 C.ar  155  HIS155      0.1154
    162  CE1       -5.5410   -3.5930   74.3900 C.ar  155  HIS155      0.1986
    163  NE2       -6.2220   -2.8590   75.2530 N.ar  155  HIS155     -0.2212
    164  N         -8.3710   -7.0200   77.0920 N.am  156  TYR156     -0.1976
    165  CA        -7.7180   -7.0760   78.3990 C.3   156  TYR156      0.1639
    166  C         -7.1380   -8.4570   78.6520 C.2   156  TYR156      0.2290
    167  O         -6.0500   -8.5860   79.2190 O.2   156  TYR156     -0.2864
    168  CB        -8.7140   -6.6850   79.5140 C.3   156  TYR156      0.0560
    169  CG        -9.2790   -5.2950   79.2960 C.ar  156  TYR156     -0.0198
    170  CD1       -8.5590   -4.3440   78.5630 C.ar  156  TYR156     -0.0009
    171  CD2      -10.5450   -4.9470   79.7550 C.ar  156  TYR156     -0.0009
    172  CE1       -9.0760   -3.0820   78.3230 C.ar  156  TYR156      0.0417
    173  CE2      -11.0680   -3.6770   79.5280 C.ar  156  TYR156      0.0417
    174  CZ       -10.3230   -2.7500   78.8150 C.ar  156  TYR156      0.1957
    175  OH       -10.8310   -1.4920   78.5690 O.3   156  TYR156     -0.2866
@<TRIPOS>BOND
     1   146   145    2
     2   145   144    1
     3   144   147    1
     4   144   143    1
     5   147   148    1
     6   160   162   ar
     7   160   159   ar
     8   158   159    1
     9   158   155    1
    10   162   163   ar
    11   159   161   ar
    12   155   154    1
    13   155   156    1
    14   163   161   ar
    15   149   150    1
    16   150   151    1
    17   150   153    1
    18   156   157    2
    19   156   164   am
    20   123   122    2
    21   152   151    2
    22   132   131    2
    23   164   165    1
    24   122   121    1
    25   122   129   am
    26   131   130    1
    27   121   124    1
    28   121   120    1
    29   125   124    1
    30   125   126    1
    31   130   129    1
    32   130   133    1
    33   172   170   ar
    34   172   174   ar
    35   165   166    1
    36   165   168    1
    37   170   169   ar
    38   175   174    1
    39    30    28    1
    40   166   167    2
    41    16    18   ar
    42    16    15   ar
    43   174   173   ar
    44     9     7   am
    45   127   126    1
    46   127   128    1
    47     1     2    1
    48    18    19   ar
    49    29    28    1
    50   135   134   ar
    51   135   137   ar
    52   169   168    1
    53   169   171   ar
    54   133   134    1
    55   173   171   ar
    56    28    25    1
    57    10    11    1
    58    14    15    1
    59    14    11    1
    60    15    17   ar
    61   134   136   ar
    62    11    12    1
    63   137   138   ar
    64     7     6    1
    65     7     8    2
    66     2     3    1
    67     2     5    1
    68     6     5    1
    69    44    42   am
    70    19    17   ar
    71    19    21   ar
    72    17    20   ar
    73    43    42    2
    74   138   136   ar
    75   138   140   ar
    76   136   139   ar
    77    25    24    1
    78    25    26    1
    79     3     4    2
    80   116   115    2
    81    12    13    2
    82    42    41    1
    83    21    23   ar
    84   140   142   ar
    85    26    27    2
    86    26    31   am
    87   139   141   ar
    88    64    63    1
    89   115   114    1
    90    20    22   ar
    91    36    35    1
    92    31    32    1
    93   114   113    1
    94   114   117    1
    95    41    38    1
    96    23    22   ar
    97   142   141   ar
    98    89    87    1
    99   119   117    1
   100    63    61   ar
   101    63    62   ar
   102    32    35    1
   103    32    33    1
   104    61    59   ar
   105    38    37    1
   106    38    39    1
   107   117   118    1
   108    62    60   ar
   109    87    88    1
   110    87    86    1
   111    81    79   am
   112    33    34    2
   113    59    58   ar
   114   100    99   ar
   115   100    98   ar
   116    86    83    1
   117    80    79    2
   118    39    40    2
   119    39    45   am
   120    99    97   ar
   121    79    78    1
   122    60    58   ar
   123    98    96   ar
   124    58    57    1
   125    45    46    1
   126    97    95   ar
   127    83    82    1
   128    83    84    1
   129   112   111    1
   130    78    77    1
   131    72    70    1
   132    96    95   ar
   133    53    54    1
   134    85    84    2
   135    46    49    1
   136    46    47    1
   137    57    54    1
   138    95    94    1
   139   110   111   ar
   140   110   108   ar
   141    54    55    1
   142    50    49    1
   143    50    51    1
   144    50    52    1
   145   111   109   ar
   146    77    74    1
   147    47    48    2
   148    70    71    1
   149    70    69    1
   150   108   106   ar
   151    94    91    1
   152    55    56    2
   153   109   107   ar
   154    69    66    1
   155    74    75    1
   156    74    73    1
   157    90    91    1
   158   106   107   ar
   159   106   105    1
   160    75    76    2
   161    91    92    1
   162   104   103    2
   163   103   102    1
   164    68    67    2
   165    66    67    1
   166    66    65    1
   167   105   102    1
   168    92    93    2
   169   102   101    1
