@<TRIPOS>MOLECULE
tmp/5e8rB01.pdb
 182 181 0 0 0
SMALL
GASTEIGER

@<TRIPOS>ATOM
      1  N        -41.5330   16.2870  -31.8480 N.3     8  TYR8       -0.1241
      2  CA       -42.4610   17.3980  -31.6000 C.3     8  TYR8        0.1605
      3  C        -43.8830   16.8940  -31.3390 C.2     8  TYR8        0.2264
      4  O        -44.5230   17.3060  -30.3660 O.2     8  TYR8       -0.2867
      5  CB       -42.4480   18.3940  -32.7780 C.3     8  TYR8        0.0534
      6  CG       -43.5430   19.4480  -32.7440 C.ar    8  TYR8       -0.0201
      7  CD1      -43.5600   20.4390  -31.7610 C.ar    8  TYR8       -0.0009
      8  CD2      -44.5560   19.4600  -33.7040 C.ar    8  TYR8       -0.0009
      9  CE1      -44.5580   21.4050  -31.7310 C.ar    8  TYR8        0.0417
     10  CE2      -45.5580   20.4220  -33.6830 C.ar    8  TYR8        0.0417
     11  CZ       -45.5540   21.3940  -32.6970 C.ar    8  TYR8        0.1957
     12  OH       -46.5510   22.3460  -32.6730 O.3     8  TYR8       -0.2866
     13  N        -44.9180   15.1410  -27.8870 N.3    11  CYS11      -0.1221
     14  CA       -45.4180   15.9960  -26.8000 C.3    11  CYS11       0.1808
     15  C        -46.9340   16.0320  -26.8220 C.2    11  CYS11       0.2601
     16  O        -47.5670   15.8610  -25.7860 O.2    11  CYS11      -0.2717
     17  CB       -44.8840   17.4270  -26.9200 C.3    11  CYS11       0.0970
     18  SG       -43.1530   17.5390  -27.4340 S.3    11  CYS11      -0.0800
     19  N        -47.5010   16.2390  -28.0130 N.am   12  TYR12      -0.1976
     20  CA       -48.9560   16.3260  -28.1930 C.3    12  TYR12       0.1639
     21  C        -49.6930   14.9910  -28.1760 C.2    12  TYR12       0.2290
     22  O        -50.9210   14.9780  -28.1730 O.2    12  TYR12      -0.2864
     23  CB       -49.3000   17.0860  -29.4760 C.3    12  TYR12       0.0560
     24  CG       -49.0340   18.5590  -29.3610 C.ar   12  TYR12      -0.0198
     25  CD1      -49.8460   19.3650  -28.5690 C.ar   12  TYR12      -0.0009
     26  CD2      -47.9680   19.1540  -30.0310 C.ar   12  TYR12      -0.0009
     27  CE1      -49.6130   20.7240  -28.4550 C.ar   12  TYR12       0.0417
     28  CE2      -47.7290   20.5120  -29.9210 C.ar   12  TYR12       0.0417
     29  CZ       -48.5540   21.2920  -29.1330 C.ar   12  TYR12       0.1957
     30  OH       -48.3180   22.6410  -29.0150 O.3    12  TYR12      -0.2866
     31  N        -50.4650   18.0090  -21.7440 N.3    17  VAL17      -0.1245
     32  CA       -50.4790   19.2250  -22.5510 C.3    17  VAL17       0.1561
     33  C        -51.8950   19.6550  -22.9460 C.2    17  VAL17       0.2260
     34  O        -52.1990   20.8470  -22.9550 O.2    17  VAL17      -0.2867
     35  CB       -49.6510   19.0340  -23.8310 C.3    17  VAL17       0.0252
     36  CG1      -49.4120   20.3730  -24.5090 C.3    17  VAL17       0.0019
     37  CG2      -48.3310   18.3500  -23.5060 C.3    17  VAL17       0.0019
     38  N        -53.6990   20.8820  -19.8880 N.3    20  GLU20      -0.1231
     39  CA       -53.2760   22.2680  -19.6620 C.3    20  GLU20       0.1699
     40  C        -53.9680   23.2530  -20.6140 C.2    20  GLU20       0.2592
     41  O        -54.3400   24.3430  -20.1960 O.2    20  GLU20      -0.2718
     42  CB       -51.7470   22.4380  -19.7320 C.3    20  GLU20       0.0402
     43  CG       -51.2950   23.8380  -19.3170 C.3    20  GLU20       0.1161
     44  CD       -49.7950   23.9820  -19.0870 C.2    20  GLU20       0.3649
     45  OE1      -48.9890   23.3870  -19.8310 O.co2  20  GLU20      -0.2457
     46  OE2      -49.4130   24.7270  -18.1630 O.co2  20  GLU20      -0.2457
     47  N        -54.1550   22.8690  -21.8700 N.am   21  MET21      -0.1979
     48  CA       -54.8040   23.7520  -22.8410 C.3    21  MET21       0.1605
     49  C        -56.2990   23.9320  -22.5810 C.2    21  MET21       0.2287
     50  O        -56.8030   25.0450  -22.6230 O.2    21  MET21      -0.2864
     51  CB       -54.5670   23.2510  -24.2660 C.3    21  MET21       0.0413
     52  CG       -53.1660   23.5570  -24.7580 C.3    21  MET21       0.0598
     53  SD       -52.8810   23.0490  -26.4520 S.3    21  MET21      -0.1393
     54  CE       -53.1230   21.2770  -26.3720 C.3    21  MET21       0.0692
     55  N        -55.6780   26.6750  -33.2780 N.3   116  GLU116     -0.1231
     56  CA       -54.9800   27.2240  -32.1320 C.3   116  GLU116      0.1699
     57  C        -53.5130   26.8800  -32.3230 C.2   116  GLU116      0.2592
     58  O        -53.0290   25.8380  -31.8900 O.2   116  GLU116     -0.2718
     59  CB       -55.5570   26.6840  -30.8210 C.3   116  GLU116      0.0402
     60  CG       -55.2290   27.5430  -29.6080 C.3   116  GLU116      0.1161
     61  CD       -53.8640   27.2320  -29.0330 C.2   116  GLU116      0.3649
     62  OE1      -53.7880   26.4900  -28.0320 O.co2 116  GLU116     -0.2457
     63  OE2      -52.8610   27.7160  -29.5910 O.co2 116  GLU116     -0.2457
     64  N        -52.8110   27.8090  -32.9540 N.am  117  TRP117     -0.1962
     65  CA       -51.4520   27.6020  -33.4330 C.3   117  TRP117      0.1771
     66  C        -50.4110   28.3560  -32.6120 C.2   117  TRP117      0.2620
     67  O        -49.2160   28.1560  -32.8100 O.2   117  TRP117     -0.2715
     68  CB       -51.3570   28.0220  -34.9060 C.3   117  TRP117      0.0590
     69  CG       -51.9050   29.3780  -35.1670 C.ar  117  TRP117      0.0006
     70  CD1      -53.1790   29.6850  -35.5540 C.ar  117  TRP117      0.0946
     71  CD2      -51.2180   30.6230  -35.0190 C.ar  117  TRP117      0.0152
     72  NE1      -53.3220   31.0440  -35.6680 N.ar  117  TRP117     -0.2442
     73  CE2      -52.1330   31.6450  -35.3470 C.ar  117  TRP117      0.0810
     74  CE3      -49.9140   30.9720  -34.6570 C.ar  117  TRP117      0.0012
     75  CZ2      -51.7880   32.9950  -35.3260 C.ar  117  TRP117      0.0191
     76  CZ3      -49.5680   32.3170  -34.6320 C.ar  117  TRP117      0.0001
     77  CH2      -50.5030   33.3130  -34.9670 C.ar  117  TRP117      0.0015
     78  N        -50.8550   29.2100  -31.6940 N.am  118  MET118     -0.1963
     79  CA       -49.9550   30.1120  -30.9790 C.3   118  MET118      0.1736
     80  C        -49.1200   29.3470  -29.9650 C.2   118  MET118      0.2617
     81  O        -49.6540   28.5880  -29.1580 O.2   118  MET118     -0.2715
     82  CB       -50.7480   31.2030  -30.2610 C.3   118  MET118      0.0427
     83  CG       -51.5380   32.0810  -31.2080 C.3   118  MET118      0.0599
     84  SD       -53.0850   31.3250  -31.7280 S.3   118  MET118     -0.1393
     85  CE       -54.0770   31.6190  -30.2650 C.3   118  MET118      0.0692
     86  N        -47.8100   29.5250  -30.0370 N.am  119  GLY119     -0.1940
     87  CA       -46.9080   29.0150  -29.0130 C.3   119  GLY119      0.2014
     88  C        -46.4880   30.1240  -28.0780 C.2   119  GLY119      0.2638
     89  O        -47.0340   31.2280  -28.1190 O.2   119  GLY119     -0.2714
     90  N        -45.4930   29.8320  -27.2480 N.am  120  TYR120     -0.1973
     91  CA       -44.8930   30.8520  -26.4020 C.3   120  TYR120      0.1639
     92  C        -44.2620   31.9270  -27.2940 C.2   120  TYR120      0.2290
     93  O        -43.6800   31.6180  -28.3420 O.2   120  TYR120     -0.2864
     94  CB       -43.8260   30.2660  -25.4870 C.3   120  TYR120      0.0560
     95  CG       -44.2720   29.1700  -24.5490 C.ar  120  TYR120     -0.0198
     96  CD1      -45.4660   29.2570  -23.8430 C.ar  120  TYR120     -0.0009
     97  CD2      -43.4630   28.0540  -24.3310 C.ar  120  TYR120     -0.0009
     98  CE1      -45.8550   28.2540  -22.9690 C.ar  120  TYR120      0.0417
     99  CE2      -43.8430   27.0500  -23.4540 C.ar  120  TYR120      0.0417
    100  CZ       -45.0370   27.1530  -22.7780 C.ar  120  TYR120      0.1957
    101  OH       -45.4170   26.1530  -21.9140 O.3   120  TYR120     -0.2866
    102  N        -43.1670   30.3770  -31.1030 N.3   124  HIS124     -0.1226
    103  CA       -42.5470   29.1090  -30.6940 C.3   124  HIS124      0.1752
    104  C        -43.3900   27.9480  -31.2280 C.2   124  HIS124      0.2595
    105  O        -44.6090   28.0470  -31.2870 O.2   124  HIS124     -0.2718
    106  CB       -42.4070   29.0110  -29.1770 C.3   124  HIS124      0.0759
    107  CG       -41.6010   27.8380  -28.7200 C.ar  124  HIS124      0.0818
    108  ND1      -40.2690   27.6960  -29.0330 N.ar  124  HIS124     -0.2268
    109  CD2      -41.9240   26.7650  -27.9590 C.ar  124  HIS124      0.1154
    110  CE1      -39.8050   26.5830  -28.4940 C.ar  124  HIS124      0.1986
    111  NE2      -40.7870   26.0030  -27.8310 N.ar  124  HIS124     -0.2212
    112  N        -42.7120   26.8770  -31.6410 N.am  125  GLU125     -0.1979
    113  CA       -43.3000   25.7450  -32.3880 C.3   125  GLU125      0.1602
    114  C        -43.4210   25.9650  -33.9010 C.2   125  GLU125      0.2287
    115  O        -43.4910   24.9870  -34.6430 O.2   125  GLU125     -0.2864
    116  CB       -44.6660   25.3040  -31.8480 C.3   125  GLU125      0.0415
    117  CG       -44.7080   25.0030  -30.3600 C.3   125  GLU125      0.1163
    118  CD       -46.1050   24.6580  -29.8860 C.2   125  GLU125      0.3649
    119  OE1      -46.5300   25.1950  -28.8370 O.co2 125  GLU125     -0.2457
    120  OE2      -46.7830   23.8550  -30.5710 O.co2 125  GLU125     -0.2457
    121  N        -45.8960   26.8720  -35.7930 N.3   127  MET127     -0.1245
    122  CA       -47.1070   26.2670  -36.3330 C.3   127  MET127      0.1570
    123  C        -47.8170   27.1660  -37.3540 C.2   127  MET127      0.2261
    124  O        -48.6090   26.6700  -38.1490 O.2   127  MET127     -0.2867
    125  CB       -48.0620   25.8960  -35.2000 C.3   127  MET127      0.0387
    126  CG       -49.2800   25.1260  -35.6700 C.3   127  MET127      0.0595
    127  SD       -50.0520   24.1450  -34.3840 S.3   127  MET127     -0.1393
    128  CE       -51.5790   23.7340  -35.2290 C.3   127  MET127      0.0692
    129  N        -52.0320   29.9030  -19.9720 N.3   276  HIS276     -0.1226
    130  CA       -50.9270   28.9480  -19.9480 C.3   276  HIS276      0.1752
    131  C        -49.7150   29.4390  -20.7590 C.2   276  HIS276      0.2596
    132  O        -48.6110   28.9430  -20.5770 O.2   276  HIS276     -0.2718
    133  CB       -51.4040   27.5680  -20.4200 C.3   276  HIS276      0.0759
    134  CG       -51.5130   27.4360  -21.9030 C.ar  276  HIS276      0.0818
    135  ND1      -52.5840   27.9230  -22.6200 N.ar  276  HIS276     -0.2268
    136  CD2      -50.6840   26.8660  -22.8060 C.ar  276  HIS276      0.1154
    137  CE1      -52.4110   27.6610  -23.9010 C.ar  276  HIS276      0.1986
    138  NE2      -51.2650   27.0220  -24.0400 N.ar  276  HIS276     -0.2212
    139  N        -49.9290   30.4020  -21.6530 N.am  277  TRP277     -0.1976
    140  CA       -48.8330   31.0690  -22.3650 C.3   277  TRP277      0.1640
    141  C        -47.9740   31.9690  -21.4780 C.2   277  TRP277      0.2290
    142  O        -46.7910   32.1630  -21.7690 O.2   277  TRP277     -0.2864
    143  CB       -49.3760   31.9020  -23.5310 C.3   277  TRP277      0.0576
    144  CG       -49.7960   31.0880  -24.6920 C.ar  277  TRP277      0.0006
    145  CD1      -48.9830   30.3770  -25.5220 C.ar  277  TRP277      0.0946
    146  CD2      -51.1270   30.9000  -25.1750 C.ar  277  TRP277      0.0152
    147  NE1      -49.7240   29.7590  -26.5010 N.ar  277  TRP277     -0.2442
    148  CE2      -51.0430   30.0630  -26.3100 C.ar  277  TRP277      0.0810
    149  CE3      -52.3820   31.3680  -24.7730 C.ar  277  TRP277      0.0012
    150  CZ2      -52.1610   29.6730  -27.0350 C.ar  277  TRP277      0.0191
    151  CZ3      -53.4990   30.9800  -25.5040 C.ar  277  TRP277      0.0001
    152  CH2      -53.3780   30.1410  -26.6250 C.ar  277  TRP277      0.0015
    153  N        -32.9640   23.9090  -34.6770 N.3   308  ASN308     -0.1240
    154  CA       -34.3480   23.4370  -34.6540 C.3   308  ASN308      0.1653
    155  C        -35.3300   24.5170  -35.1480 C.2   308  ASN308      0.2266
    156  O        -35.6060   25.4730  -34.4220 O.2   308  ASN308     -0.2867
    157  CB       -34.7240   22.9760  -33.2380 C.3   308  ASN308      0.1155
    158  CG       -36.0810   22.2630  -33.1820 C.2   308  ASN308      0.2627
    159  OD1      -36.8270   22.2020  -34.1710 O.2   308  ASN308     -0.2716
    160  ND2      -36.4010   21.7130  -32.0120 N.am  308  ASN308     -0.0877
    161  N        -38.5220   24.6550  -35.2590 N.3   310  ARG310     -0.1231
    162  CA       -39.6350   24.8610  -34.3150 C.3   310  ARG310      0.1694
    163  C        -39.2840   25.7030  -33.0780 C.2   310  ARG310      0.2591
    164  O        -40.1790   26.2980  -32.4750 O.2   310  ARG310     -0.2718
    165  CB       -40.2300   23.5180  -33.8870 C.3   310  ARG310      0.0321
    166  CG       -40.8100   22.7420  -35.0560 C.3   310  ARG310      0.0489
    167  CD       -41.8010   21.6820  -34.6150 C.3   310  ARG310      0.2205
    168  NE       -42.4360   21.0310  -35.7610 N.pl3 310  ARG310     -0.0865
    169  CZ       -43.3950   21.5670  -36.5230 C.cat 310  ARG310      0.5346
    170  NH1      -43.8710   22.7890  -36.2830 N.pl3 310  ARG310      0.1354
    171  NH2      -43.8940   20.8670  -37.5370 N.pl3 310  ARG310      0.1354
    172  N        -38.0060   25.7510  -32.7040 N.am  311  ARG311     -0.1980
    173  CA       -37.5480   26.5640  -31.5690 C.3   311  ARG311      0.1597
    174  C        -37.4670   28.0510  -31.9460 C.2   311  ARG311      0.2287
    175  O        -37.0370   28.3980  -33.0450 O.2   311  ARG311     -0.2864
    176  CB       -36.1830   26.0710  -31.0690 C.3   311  ARG311      0.0334
    177  CG       -35.7840   26.6010  -29.6990 C.3   311  ARG311      0.0492
    178  CD       -34.3550   26.2250  -29.3330 C.3   311  ARG311      0.2205
    179  NE       -34.0490   26.5320  -27.9320 N.pl3 311  ARG311     -0.0865
    180  CZ       -32.8430   26.4250  -27.3590 C.cat 311  ARG311      0.5346
    181  NH1      -31.7820   26.0150  -28.0540 N.pl3 311  ARG311      0.1354
    182  NH2      -32.6920   26.7380  -26.0700 N.pl3 311  ARG311      0.1354
@<TRIPOS>BOND
     1   124   123    2
     2   171   169    1
     3   123   122    1
     4   169   170    1
     5   169   168    2
     6   122   121    1
     7   122   125    1
     8   168   167    1
     9   126   125    1
    10   126   127    1
    11    72    70   ar
    12    72    73   ar
    13    70    69   ar
    14    73    75   ar
    15    73    71   ar
    16    75    77   ar
    17   161   162    1
    18   128   127    1
    19    69    71   ar
    20    69    68    1
    21   155   154    1
    22   155   156    2
    23   166   167    1
    24   166   165    1
    25    71    74   ar
    26    77    76   ar
    27    68    65    1
    28   153   154    1
    29    74    76   ar
    30   154   157    1
    31   115   114    2
    32   162   165    1
    33   162   163    1
    34   159   158    2
    35   114   113    1
    36     8    10   ar
    37     8     6   ar
    38    10    11   ar
    39    65    64    1
    40    65    66    1
    41    55    56    1
    42   157   158    1
    43   158   160   am
    44   163   172   am
    45   163   164    2
    46   175   174    2
    47    64    57   am
    48    67    66    2
    49     5     6    1
    50     5     2    1
    51     6     7   ar
    52   172   173    1
    53    11    12    1
    54    11     9   ar
    55    66    78   am
    56   113   116    1
    57   113   112    1
    58    57    56    1
    59    57    58    2
    60    56    59    1
    61   174   173    1
    62     1     2    1
    63   116   117    1
    64     7     9   ar
    65    84    83    1
    66    84    85    1
    67    78    79    1
    68   112   104   am
    69     2     3    1
    70   173   176    1
    71     3     4    2
    72   105   104    2
    73   104   103    1
    74    83    82    1
    75   102   103    1
    76   176   177    1
    77    79    82    1
    78    79    80    1
    79    59    60    1
    80   103   106    1
    81   120   118   ar
    82   117   118    1
    83    86    80   am
    84    86    87    1
    85    26    28   ar
    86    26    24   ar
    87    80    81    2
    88    28    29   ar
    89   118   119   ar
    90   177   178    1
    91    60    61    1
    92    63    61   ar
    93    23    24    1
    94    23    20    1
    95    24    25   ar
    96   178   179    1
    97   106   107    1
    98    29    30    1
    99    29    27   ar
   100    61    62   ar
   101   108   107   ar
   102   108   110   ar
   103    87    88    1
   104   107   109   ar
   105    25    27   ar
   106   110   111   ar
   107    93    92    2
   108    20    21    1
   109    20    19    1
   110    21    22    2
   111    89    88    2
   112    88    90   am
   113   181   180    1
   114    19    15   am
   115   109   111   ar
   116   179   180    2
   117    13    14    1
   118    18    17    1
   119   180   182    1
   120    92    91    1
   121    90    91    1
   122   150   152   ar
   123   150   148   ar
   124    17    14    1
   125    15    14    1
   126    15    16    2
   127   152   151   ar
   128   147   148   ar
   129   147   145   ar
   130    53    54    1
   131    53    52    1
   132    91    94    1
   133   148   146   ar
   134   145   144   ar
   135   151   149   ar
   136    94    95    1
   137   146   149   ar
   138   146   144   ar
   139    52    51    1
   140   144   143    1
   141    95    97   ar
   142    95    96   ar
   143    36    35    1
   144    97    99   ar
   145    51    48    1
   146   138   137   ar
   147   138   136   ar
   148   137   135   ar
   149    96    98   ar
   150    35    37    1
   151    35    32    1
   152   143   140    1
   153    99   100   ar
   154    98   100   ar
   155    34    33    2
   156    33    32    1
   157    48    49    1
   158    48    47    1
   159   136   134   ar
   160   100   101    1
   161    50    49    2
   162   135   134   ar
   163    32    31    1
   164   140   139    1
   165   140   141    1
   166   134   133    1
   167    47    40   am
   168   142   141    2
   169   139   131   am
   170   131   132    2
   171   131   130    1
   172    40    41    2
   173    40    39    1
   174   133   130    1
   175   129   130    1
   176    38    39    1
   177    45    44   ar
   178    42    39    1
   179    42    43    1
   180    43    44    1
   181    44    46   ar
