@<TRIPOS>MOLECULE
tmp/5e8xA00.pdb
 187 179 0 0 0
SMALL
GASTEIGER

@<TRIPOS>ATOM
      1  N        -18.2530  -21.1260    5.4110 N.3    12  VAL12      -0.1231
      2  CA       -18.7640  -20.3510    6.5540 C.3    12  VAL12       0.1692
      3  C        -18.8170  -18.8250    6.3180 C.2    12  VAL12       0.2593
      4  O        -19.4260  -18.1020    7.1110 O.2    12  VAL12      -0.2718
      5  CB       -18.0450  -20.6330    7.9070 C.3    12  VAL12       0.0266
      6  CG1      -18.2610  -22.0700    8.3800 C.3    12  VAL12       0.0020
      7  CG2      -16.5530  -20.2840    7.8440 C.3    12  VAL12       0.0020
      8  N        -18.1050  -18.3430    5.3130 N.am   13  GLY13      -0.1942
      9  CA       -18.0660  -16.9060    5.0430 C.3    13  GLY13       0.2014
     10  C        -17.1990  -16.5330    3.8690 C.2    13  GLY13       0.2639
     11  O        -16.5560  -17.3900    3.2580 O.2    13  GLY13      -0.2714
     12  N        -17.2360  -15.2350    3.5070 N.am   14  LYS14      -0.1963
     13  CA       -16.4790  -14.6580    2.4070 C.3    14  LYS14       0.1728
     14  C        -15.7590  -13.4410    2.9660 C.2    14  LYS14       0.2616
     15  O        -16.3920  -12.5700    3.5640 O.2    14  LYS14      -0.2715
     16  CB       -17.4320  -14.2680    1.2500 C.3    14  LYS14       0.0311
     17  CG       -16.7310  -13.6240    0.0830 C.3    14  LYS14       0.0038
     18  CD       -17.1480  -14.2590   -1.2160 C.3    14  LYS14       0.0206
     19  CE       -16.7200  -13.3760   -2.3790 C.3    14  LYS14       0.1093
     20  NZ       -15.2740  -13.0120   -2.2790 N.3    14  LYS14      -0.1314
     21  N        -14.4370  -13.4260    2.8480 N.am   15  GLY15      -0.1955
     22  CA       -13.6520  -12.3090    3.3580 C.3    15  GLY15       0.1869
     23  C        -13.5980  -11.2070    2.3250 C.2    15  GLY15       0.2309
     24  O        -14.2740  -11.2970    1.2920 O.2    15  GLY15      -0.2863
     25  N        -14.0570  -18.6260    3.1070 N.3    20  VAL20      -0.1245
     26  CA       -13.6520  -19.3640    4.3100 C.3    20  VAL20       0.1561
     27  C        -14.5050  -20.5680    4.5120 C.2    20  VAL20       0.2260
     28  O        -15.7260  -20.4650    4.5240 O.2    20  VAL20      -0.2867
     29  CB       -13.5870  -18.4640    5.5700 C.3    20  VAL20       0.0252
     30  CG1      -13.0650  -19.2370    6.7990 C.3    20  VAL20       0.0019
     31  CG2      -12.6960  -17.2580    5.2850 C.3    20  VAL20       0.0019
     32  N         -9.8230  -23.8440    9.8950 N.3    31  ALA31      -0.1245
     33  CA       -10.4550  -22.9540    8.9420 C.3    31  ALA31       0.1562
     34  C         -9.5510  -22.8750    7.7410 C.2    31  ALA31       0.2260
     35  O         -8.3230  -22.8230    7.8660 O.2    31  ALA31      -0.2867
     36  CB       -10.6690  -21.5630    9.5090 C.3    31  ALA31       0.0290
     37  N         -9.0740  -20.6580    4.2340 N.3    33  LYS33      -0.1245
     38  CA        -9.4210  -19.5640    3.3410 C.3    33  LYS33       0.1561
     39  C         -8.8570  -19.9630    1.9550 C.2    33  LYS33       0.2260
     40  O         -7.6470  -20.1240    1.7800 O.2    33  LYS33      -0.2867
     41  CB        -8.8590  -18.2450    3.8400 C.3    33  LYS33       0.0271
     42  CG        -9.4540  -17.0540    3.1320 C.3    33  LYS33       0.0035
     43  CD        -8.9460  -15.7980    3.7870 C.3    33  LYS33       0.0206
     44  CE       -10.0160  -14.7620    3.8210 C.3    33  LYS33       0.1093
     45  NZ        -9.4270  -13.4160    3.9660 N.3    33  LYS33      -0.1314
     46  N         -1.4440  -12.0660    2.4410 N.3    46  GLU46      -0.1245
     47  CA        -1.8880  -12.5470    3.7380 C.3    46  GLU46       0.1567
     48  C         -0.9890  -13.6660    4.2580 C.2    46  GLU46       0.2260
     49  O         -0.6020  -13.6360    5.4200 O.2    46  GLU46      -0.2867
     50  CB        -3.3710  -12.9230    3.7160 C.3    46  GLU46       0.0388
     51  CG        -3.9990  -12.9130    5.0960 C.3    46  GLU46       0.1160
     52  CD        -5.5020  -13.0960    5.1350 C.2    46  GLU46       0.3649
     53  OE1       -6.1130  -13.3670    4.0750 O.co2  46  GLU46      -0.2457
     54  OE2       -6.0740  -12.9520    6.2380 O.co2  46  GLU46      -0.2457
     55  N          1.3310  -13.6070    7.7650 N.3    50  PHE50      -0.1241
     56  CA         1.2470  -14.7250    8.7120 C.3    50  PHE50       0.1605
     57  C          2.5460  -15.4380    8.9830 C.2    50  PHE50       0.2264
     58  O          2.7330  -15.9780   10.0690 O.2    50  PHE50      -0.2867
     59  CB         0.2260  -15.7330    8.2230 C.3    50  PHE50       0.0534
     60  CG        -1.1660  -15.4790    8.7220 C.ar   50  PHE50      -0.0203
     61  CD1       -1.4260  -15.3650   10.0840 C.ar   50  PHE50      -0.0042
     62  CD2       -2.2270  -15.3690    7.8380 C.ar   50  PHE50      -0.0042
     63  CE1       -2.7270  -15.1850   10.5470 C.ar   50  PHE50      -0.0003
     64  CE2       -3.5270  -15.1820    8.3040 C.ar   50  PHE50      -0.0003
     65  CZ        -3.7670  -15.0970    9.6530 C.ar   50  PHE50      -0.0000
     66  N         -4.9500  -14.5430   15.0360 N.3    61  LEU61      -0.1245
     67  CA        -5.4100  -15.8080   14.4520 C.3    61  LEU61       0.1561
     68  C         -4.2100  -16.7430   14.1830 C.2    61  LEU61       0.2260
     69  O         -3.2350  -16.3320   13.5680 O.2    61  LEU61      -0.2867
     70  CB        -6.2170  -15.5320   13.1890 C.3    61  LEU61       0.0270
     71  CG        -6.7190  -16.7680   12.4500 C.3    61  LEU61       0.0019
     72  CD1       -7.6330  -17.5910   13.2870 C.3    61  LEU61       0.0001
     73  CD2       -7.3710  -16.3660   11.1350 C.3    61  LEU61       0.0001
     74  N         -5.8500  -21.9860    8.9550 N.3    81  THR81      -0.1203
     75  CA        -5.6940  -21.4240   10.2990 C.3    81  THR81       0.1994
     76  C         -6.5210  -22.1860   11.3070 C.2    81  THR81       0.2618
     77  O         -7.3130  -23.0650   10.9630 O.2    81  THR81      -0.2717
     78  CB        -6.1630  -19.9320   10.3330 C.3    81  THR81       0.1784
     79  OG1       -7.5920  -19.8810   10.1830 O.3    81  THR81      -0.2211
     80  CG2       -5.4720  -19.0570    9.2790 C.3    81  THR81       0.0376
     81  N         -6.4390  -21.7700   12.5830 N.am   82  ASP82      -0.1959
     82  CA        -7.2950  -22.2910   13.6110 C.3    82  ASP82       0.1840
     83  C         -8.7600  -21.9470   13.2820 C.2    82  ASP82       0.2622
     84  O         -9.0680  -20.9400   12.5970 O.2    82  ASP82      -0.2715
     85  CB        -6.9800  -21.6310   14.9710 C.3    82  ASP82       0.1450
     86  CG        -5.6430  -22.0060   15.5590 C.2    82  ASP82       0.3671
     87  OD1       -5.0900  -23.0480   15.1570 O.co2  82  ASP82      -0.2456
     88  OD2       -5.1370  -21.2570   16.4190 O.co2  82  ASP82      -0.2456
     89  N         -9.6410  -22.7790   13.8280 N.am   83  PHE83      -0.1960
     90  CA       -11.0760  -22.5970   13.6930 C.3    83  PHE83       0.1771
     91  C        -11.6530  -22.2040   15.0410 C.2    83  PHE83       0.2620
     92  O        -11.3620  -22.8520   16.0570 O.2    83  PHE83      -0.2715
     93  CB       -11.7630  -23.8940   13.2110 C.3    83  PHE83       0.0574
     94  CG       -13.2410  -23.7210   12.9790 C.ar   83  PHE83      -0.0200
     95  CD1      -13.7100  -23.0250   11.8690 C.ar   83  PHE83      -0.0042
     96  CD2      -14.1660  -24.2370   13.8770 C.ar   83  PHE83      -0.0042
     97  CE1      -15.0840  -22.8280   11.6740 C.ar   83  PHE83      -0.0003
     98  CE2      -15.5370  -24.0550   13.6660 C.ar   83  PHE83      -0.0003
     99  CZ       -15.9810  -23.3390   12.5790 C.ar   83  PHE83      -0.0000
    100  N        -12.4880  -21.1510   15.0480 N.am   84  HIS84      -0.1959
    101  CA       -13.1620  -20.6360   16.2250 C.3    84  HIS84       0.1787
    102  C        -14.6500  -20.6670   16.0240 C.2    84  HIS84       0.2620
    103  O        -15.1890  -19.8260   15.3190 O.2    84  HIS84      -0.2715
    104  CB       -12.6250  -19.2330   16.5700 C.3    84  HIS84       0.0785
    105  CG       -11.1560  -19.2700   16.9140 C.ar   84  HIS84       0.0821
    106  ND1      -10.6870  -19.9850   18.0100 N.ar   84  HIS84      -0.2267
    107  CD2      -10.0960  -18.7070   16.2790 C.ar   84  HIS84       0.1154
    108  CE1       -9.3730  -19.8310   18.0050 C.ar   84  HIS84       0.1986
    109  NE2       -8.9640  -19.1000   16.9690 N.ar   84  HIS84      -0.2212
    110  N        -15.3030  -21.6960   16.6080 N.am   85  GLU85      -0.1963
    111  CA       -16.7330  -21.9840   16.4740 C.3    85  GLU85       0.1733
    112  C        -17.6620  -20.7960   16.7050 C.2    85  GLU85       0.2616
    113  O        -18.6660  -20.6900   15.9860 O.2    85  GLU85      -0.2715
    114  CB       -17.1170  -23.1530   17.4050 C.3    85  GLU85       0.0429
    115  CG       -18.4580  -23.8210   17.0690 C.3    85  GLU85       0.1163
    116  CD       -18.3710  -24.7500   15.8520 C.2    85  GLU85       0.3649
    117  OE1      -17.7370  -25.8170   15.9670 O.co2  85  GLU85      -0.2457
    118  OE2      -18.9380  -24.4260   14.7800 O.co2  85  GLU85      -0.2457
    119  N        -17.3610  -19.8980   17.6670 N.am   86  HIS86      -0.1959
    120  CA       -18.2240  -18.7350   17.9030 C.3    86  HIS86       0.1787
    121  C        -18.3020  -17.7910   16.7070 C.2    86  HIS86       0.2621
    122  O        -19.2790  -17.0580   16.5500 O.2    86  HIS86      -0.2715
    123  CB       -17.7430  -17.8920   19.1000 C.3    86  HIS86       0.0785
    124  CG       -18.0270  -18.4380   20.4580 C.ar   86  HIS86       0.0821
    125  ND1      -19.3260  -18.6930   20.8840 N.ar   86  HIS86      -0.2267
    126  CD2      -17.1840  -18.6220   21.5010 C.ar   86  HIS86       0.1154
    127  CE1      -19.2140  -19.1030   22.1440 C.ar   86  HIS86       0.1986
    128  NE2      -17.9460  -19.0750   22.5590 N.ar   86  HIS86      -0.2212
    129  N        -17.2740  -17.7540   15.8890 N.am   87  GLY87      -0.1940
    130  CA       -17.2710  -16.7920   14.8170 C.3    87  GLY87       0.2014
    131  C        -16.8240  -15.4270   15.3170 C.2    87  GLY87       0.2638
    132  O        -16.0390  -15.3220   16.2680 O.2    87  GLY87      -0.2714
    133  N        -17.3200  -14.3810   14.6670 N.am   88  ASN88      -0.1972
    134  CA       -16.7890  -13.0660   14.9540 C.3    88  ASN88       0.1688
    135  C        -17.4600  -12.3210   16.1150 C.2    88  ASN88       0.2292
    136  O        -18.5270  -12.6800   16.6230 O.2    88  ASN88      -0.2864
    137  CB       -16.7370  -12.2060   13.7040 C.3    88  ASN88       0.1181
    138  CG       -18.0690  -11.7880   13.1630 C.2    88  ASN88       0.2629
    139  OD1      -19.0590  -11.7460   13.8660 O.2    88  ASN88      -0.2716
    140  ND2      -18.0720  -11.3800   11.9020 N.am   88  ASN88      -0.0877
    141  N        -21.0310  -10.8440   15.6600 N.3    91  ASP91      -0.1239
    142  CA       -22.1150  -11.7910   15.9060 C.3    91  ASP91       0.1674
    143  C        -22.2310  -12.1210   17.3650 C.2    91  ASP91       0.2266
    144  O        -23.3420  -12.2010   17.8890 O.2    91  ASP91      -0.2867
    145  CB       -21.9120  -13.0490   15.0820 C.3    91  ASP91       0.1410
    146  CG       -22.1690  -12.8790   13.5980 C.2    91  ASP91       0.3668
    147  OD1      -22.7800  -11.8560   13.2040 O.co2  91  ASP91      -0.2456
    148  OD2      -21.8020  -13.7790   12.8380 O.co2  91  ASP91      -0.2456
    149  N        -16.2240   -7.1380   13.0420 N.3   138  LYS138     -0.1231
    150  CA       -16.4010   -8.2550   12.0920 C.3   138  LYS138      0.1693
    151  C        -15.0780   -8.9790   11.8100 C.2   138  LYS138      0.2592
    152  O        -15.1300  -10.0960   11.2770 O.2   138  LYS138     -0.2718
    153  CB       -17.0050   -7.7410   10.7890 C.3   138  LYS138      0.0285
    154  CG       -18.4840   -7.4420   10.9640 C.3   138  LYS138      0.0035
    155  CD       -19.2610   -7.5120    9.6970 C.3   138  LYS138      0.0206
    156  CE       -20.7220   -7.3140   10.0060 C.3   138  LYS138      0.1093
    157  NZ       -21.5490   -8.4040    9.4110 N.3   138  LYS138     -0.1314
    158  N        -13.9120   -8.3860   12.1660 N.am  139  ASN139     -0.1974
    159  CA       -12.5730   -8.9560   11.9170 C.3   139  ASN139      0.1688
    160  C        -11.8770   -9.4230   13.1620 C.2   139  ASN139      0.2292
    161  O        -10.6500   -9.5660   13.1800 O.2   139  ASN139     -0.2864
    162  CB       -11.6810   -7.9550   11.1910 C.3   139  ASN139      0.1181
    163  CG       -11.9800   -7.9040    9.7360 C.2   139  ASN139      0.2629
    164  OD1      -12.6160   -8.8170    9.1640 O.2   139  ASN139     -0.2716
    165  ND2      -11.5510   -6.8210    9.1200 N.am  139  ASN139     -0.0877
    166  N        -12.2690  -12.5470   16.0360 N.3   141  LEU141     -0.1245
    167  CA       -12.9380  -13.8060   16.3270 C.3   141  LEU141      0.1561
    168  C        -12.9600  -14.0470   17.8340 C.2   141  LEU141      0.2260
    169  O        -12.0720  -13.5620   18.5630 O.2   141  LEU141     -0.2867
    170  CB       -12.1770  -14.9750   15.6180 C.3   141  LEU141      0.0270
    171  CG       -12.2010  -14.8680   14.0710 C.3   141  LEU141      0.0019
    172  CD1      -11.1890  -15.7970   13.4410 C.3   141  LEU141      0.0001
    173  CD2      -13.5820  -15.2450   13.5220 C.3   141  LEU141      0.0001
    174  N         -8.1190  -11.2110   13.0180 N.3   151  CYS151     -0.1221
    175  CA        -7.9500  -11.8700   11.7310 C.3   151  CYS151      0.1808
    176  C         -8.0490  -10.8710   10.6020 C.2   151  CYS151      0.2601
    177  O         -8.3070   -9.6750   10.8160 O.2   151  CYS151     -0.2717
    178  CB        -8.9620  -12.9980   11.5530 C.3   151  CYS151      0.0970
    179  SG       -10.6720  -12.4510   11.3790 S.3   151  CYS151     -0.0800
    180  N         -7.8580  -11.3880    9.3800 N.am  152  ASP152     -0.1973
    181  CA        -7.9740  -10.6920    8.1050 C.3   152  ASP152      0.1709
    182  C         -6.8730   -9.6780    7.9200 C.2   152  ASP152      0.2293
    183  O         -7.0410   -8.4700    8.1620 O.2   152  ASP152     -0.2864
    184  CB        -9.3610  -10.0910    7.8660 C.3   152  ASP152      0.1436
    185  CG        -9.6270   -9.7800    6.3930 C.2   152  ASP152      0.3671
    186  OD1       -8.6410   -9.7090    5.6020 O.co2 152  ASP152     -0.2456
    187  OD2      -10.8080   -9.6490    6.0240 O.co2 152  ASP152     -0.2456
@<TRIPOS>BOND
     1    19    20    1
     2    19    18    1
     3    18    17    1
     4    17    16    1
     5    16    13    1
     6    24    23    2
     7    40    39    2
     8    39    38    1
     9    23    22    1
    10    13    14    1
    11    13    12    1
    12    46    47    1
    13    21    14   am
    14    21    22    1
    15    14    15    2
    16    25    26    1
    17    42    43    1
    18    42    41    1
    19    11    10    2
    20    38    41    1
    21    38    37    1
    22    12    10   am
    23    50    47    1
    24    50    51    1
    25    47    48    1
    26    43    44    1
    27    44    45    1
    28    10     9    1
    29    53    52   ar
    30    48    49    2
    31    26    27    1
    32    26    29    1
    33    27    28    2
    34     9     8    1
    35    51    52    1
    36    52    54   ar
    37    31    29    1
    38     8     3   am
    39     1     2    1
    40    29    30    1
    41   186   185   ar
    42   187   185   ar
    43     3     2    1
    44     3     4    2
    45   185   184    1
    46     2     5    1
    47    34    35    2
    48    34    33    1
    49    55    56    1
    50    62    64   ar
    51    62    60   ar
    52     7     5    1
    53   184   181    1
    54     5     6    1
    55   182   181    1
    56   182   183    2
    57   181   180    1
    58    59    56    1
    59    59    60    1
    60    64    65   ar
    61    56    57    1
    62    60    61   ar
    63    33    36    1
    64    33    32    1
    65    74    75    1
    66    57    58    2
    67   165   163   am
    68   164   163    2
    69    80    78    1
    70   180   176   am
    71   157   156    1
    72    65    63   ar
    73   155   156    1
    74   155   154    1
    75   163   162    1
    76    61    63   ar
    77    79    78    1
    78    75    78    1
    79    75    76    1
    80   176   177    2
    81   176   175    1
    82   153   154    1
    83   153   150    1
    84    77    76    2
    85    73    71    1
    86   162   159    1
    87   152   151    2
    88    76    81   am
    89   179   178    1
    90   178   175    1
    91    97    95   ar
    92    97    99   ar
    93   175   174    1
    94   151   150    1
    95   151   158   am
    96    95    94   ar
    97   140   138   am
    98   159   158    1
    99   159   160    1
   100   150   149    1
   101    71    70    1
   102    71    72    1
   103    99    98   ar
   104    81    82    1
   105    84    83    2
   106   148   146   ar
   107    94    93    1
   108    94    96   ar
   109   160   161    2
   110   138   137    1
   111   138   139    2
   112    70    67    1
   113   147   146   ar
   114    93    90    1
   115    83    82    1
   116    83    89   am
   117   172   171    1
   118   173   171    1
   119    69    68    2
   120   146   145    1
   121    82    85    1
   122    98    96   ar
   123    90    89    1
   124    90    91    1
   125   137   134    1
   126   171   170    1
   127    68    67    1
   128    67    66    1
   129   133   134    1
   130   133   131   am
   131   118   116   ar
   132   130   131    1
   133   130   129    1
   134   134   135    1
   135    85    86    1
   136    91   100   am
   137    91    92    2
   138   100   101    1
   139   145   142    1
   140    87    86   ar
   141   131   132    2
   142   103   102    2
   143    86    88   ar
   144   170   167    1
   145   141   142    1
   146   116   117   ar
   147   116   115    1
   148   129   121   am
   149   142   143    1
   150   113   112    2
   151   102   101    1
   152   102   110   am
   153   166   167    1
   154   135   136    2
   155   101   104    1
   156   107   105   ar
   157   107   109   ar
   158   167   168    1
   159   111   110    1
   160   111   112    1
   161   111   114    1
   162   122   121    2
   163   104   105    1
   164   112   119   am
   165   121   120    1
   166   105   106   ar
   167   109   108   ar
   168   115   114    1
   169   143   144    2
   170   119   120    1
   171   168   169    2
   172   120   123    1
   173   108   106   ar
   174   123   124    1
   175   124   125   ar
   176   124   126   ar
   177   125   127   ar
   178   126   128   ar
   179   127   128   ar
