@<TRIPOS>MOLECULE
tmp/5e8yA00.pdb
 168 160 0 0 0
SMALL
GASTEIGER

@<TRIPOS>ATOM
      1  N         16.2320   -6.5640    1.4340 N.3    11  VAL11      -0.1231
      2  CA        15.8980   -5.1400    1.3120 C.3    11  VAL11       0.1692
      3  C         17.0240   -4.2220    1.8050 C.2    11  VAL11       0.2593
      4  O         17.0260   -3.0210    1.4900 O.2    11  VAL11      -0.2718
      5  CB        14.5280   -4.7520    1.9330 C.3    11  VAL11       0.0266
      6  CG1       13.3620   -5.3270    1.1140 C.3    11  VAL11       0.0020
      7  CG2       14.4220   -5.1230    3.4200 C.3    11  VAL11       0.0020
      8  N         17.9590   -4.7750    2.5660 N.am   12  GLY12      -0.1942
      9  CA        19.0590   -3.9930    3.1220 C.3    12  GLY12       0.2014
     10  C         20.2080   -4.8060    3.6390 C.2    12  GLY12       0.2639
     11  O         20.0600   -5.9980    3.9060 O.2    12  GLY12      -0.2714
     12  N         21.3720   -4.1560    3.7570 N.am   13  LYS13      -0.1963
     13  CA        22.6150   -4.7500    4.2520 C.3    13  LYS13       0.1728
     14  C         23.3290   -3.6780    5.0980 C.2    13  LYS13       0.2616
     15  O         23.7650   -2.6560    4.5640 O.2    13  LYS13      -0.2715
     16  CB        23.4910   -5.1780    3.0520 C.3    13  LYS13       0.0311
     17  CG        24.5790   -6.2020    3.3350 C.3    13  LYS13       0.0038
     18  CD        24.9810   -6.8890    2.0250 C.3    13  LYS13       0.0206
     19  CE        26.4230   -7.3400    1.9860 C.3    13  LYS13       0.1093
     20  NZ        26.6430   -8.6180    2.7120 N.3    13  LYS13      -0.1314
     21  N         23.3580   -3.8930    6.4110 N.am   14  GLY14      -0.1955
     22  CA        24.0210   -3.0120    7.3650 C.3    14  GLY14       0.1869
     23  C         25.4450   -3.4680    7.5970 C.2    14  GLY14       0.2309
     24  O         25.9390   -4.3430    6.8750 O.2    14  GLY14      -0.2863
     25  N         18.8580   -7.4660    5.9490 N.3    19  VAL19      -0.1245
     26  CA        17.4400   -7.3210    6.2740 C.3    19  VAL19       0.1561
     27  C         16.6150   -7.8360    5.1030 C.2    19  VAL19       0.2260
     28  O         16.8610   -7.4700    3.9680 O.2    19  VAL19      -0.2867
     29  CB        17.0240   -5.9040    6.7360 C.3    19  VAL19       0.0252
     30  CG1       15.5590   -5.8780    7.1300 C.3    19  VAL19       0.0019
     31  CG2       17.8860   -5.4310    7.9180 C.3    19  VAL19       0.0019
     32  N          9.8580   -7.9220    8.8380 N.3    32  ALA32      -0.1245
     33  CA        11.2400   -7.7250    8.4320 C.3    32  ALA32       0.1562
     34  C         12.0560   -8.6870    9.2760 C.2    32  ALA32       0.2260
     35  O         11.7950   -8.8410   10.4780 O.2    32  ALA32      -0.2867
     36  CB        11.6860   -6.2970    8.6970 C.3    32  ALA32       0.0290
     37  N         15.9630   -9.4420   10.3470 N.3    34  LYS34      -0.1245
     38  CA        17.3430   -8.9630   10.4060 C.3    34  LYS34       0.1561
     39  C         18.2100  -10.1950   10.7520 C.2    34  LYS34       0.2260
     40  O         17.9660  -10.8430   11.7510 O.2    34  LYS34      -0.2867
     41  CB        17.4750   -7.8310   11.4350 C.3    34  LYS34       0.0271
     42  CG        18.8110   -7.1250   11.3590 C.3    34  LYS34       0.0035
     43  CD        18.8200   -5.8390   12.1360 C.3    34  LYS34       0.0206
     44  CE        20.1320   -5.1270   11.9440 C.3    34  LYS34       0.1093
     45  NZ        20.1590   -3.8490   12.6910 N.3    34  LYS34      -0.1314
     46  N         21.1600   -5.4720   20.3280 N.3    47  GLU47      -0.1245
     47  CA        19.8560   -5.0790   19.7960 C.3    47  GLU47       0.1567
     48  C         18.7250   -5.8250   20.4850 C.2    47  GLU47       0.2260
     49  O         17.7230   -5.2050   20.8490 O.2    47  GLU47      -0.2867
     50  CB        19.8040   -5.3230   18.2910 C.3    47  GLU47       0.0388
     51  CG        20.5460   -4.2860   17.4870 C.3    47  GLU47       0.1160
     52  CD        19.8310   -3.9830   16.1900 C.2    47  GLU47       0.3649
     53  OE1       20.0730   -4.7340   15.2230 O.co2  47  GLU47      -0.2457
     54  OE2       18.9800   -3.0610   16.1540 O.co2  47  GLU47      -0.2457
     55  N         15.7250   -4.0880   22.4210 N.3    51  PHE51      -0.1241
     56  CA        14.3590   -4.3970   21.9830 C.3    51  PHE51       0.1605
     57  C         13.5460   -5.2000   22.9900 C.2    51  PHE51       0.2264
     58  O         12.3220   -5.1660   22.9220 O.2    51  PHE51      -0.2867
     59  CB        14.3810   -5.1640   20.6420 C.3    51  PHE51       0.0534
     60  CG        14.4920   -4.2960   19.4040 C.ar   51  PHE51      -0.0203
     61  CD1       13.6400   -3.2070   19.2170 C.ar   51  PHE51      -0.0042
     62  CD2       15.4160   -4.5960   18.4070 C.ar   51  PHE51      -0.0042
     63  CE1       13.7320   -2.4200   18.0730 C.ar   51  PHE51      -0.0003
     64  CE2       15.5160   -3.7990   17.2670 C.ar   51  PHE51      -0.0003
     65  CZ        14.6850   -2.7080   17.1130 C.ar   51  PHE51      -0.0000
     66  N         10.9140    1.1050   16.2820 N.3    62  LEU62      -0.1245
     67  CA        10.5060   -0.0890   15.5410 C.3    62  LEU62       0.1561
     68  C          9.9350   -1.1690   16.4480 C.2    62  LEU62       0.2260
     69  O         10.5740   -1.5220   17.4310 O.2    62  LEU62      -0.2867
     70  CB        11.6860   -0.6420   14.7330 C.3    62  LEU62       0.0270
     71  CG        11.4810   -1.9450   13.9710 C.3    62  LEU62       0.0019
     72  CD1       10.4560   -1.7530   12.8100 C.3    62  LEU62       0.0001
     73  CD2       12.8290   -2.4500   13.4420 C.3    62  LEU62       0.0001
     74  N         10.9760   -8.1340   13.2360 N.3    82  THR82      -0.1203
     75  CA        10.3650   -6.8610   13.5910 C.3    82  THR82       0.1994
     76  C          9.2420   -6.5060   12.6360 C.2    82  THR82       0.2618
     77  O          9.0470   -7.2000   11.6230 O.2    82  THR82      -0.2717
     78  CB        11.4570   -5.7560   13.4890 C.3    82  THR82       0.1784
     79  OG1       11.7920   -5.5680   12.1180 O.3    82  THR82      -0.2211
     80  CG2       12.7480   -6.0600   14.3160 C.3    82  THR82       0.0376
     81  N          8.5370   -5.3980   12.9090 N.am   83  ALA83      -0.1965
     82  CA         7.5270   -4.9250   11.9460 C.3    83  ALA83       0.1728
     83  C          8.2550   -4.5110   10.6370 C.2    83  ALA83       0.2616
     84  O          9.4510   -4.1780   10.6610 O.2    83  ALA83      -0.2715
     85  CB         6.7680   -3.7360   12.5110 C.3    83  ALA83       0.0334
     86  N          7.5330   -4.5570    9.5180 N.am   84  PHE84      -0.1960
     87  CA         8.0310   -4.1470    8.2070 C.3    84  PHE84       0.1771
     88  C          7.3670   -2.8140    7.8290 C.2    84  PHE84       0.2620
     89  O          6.1510   -2.6980    7.9180 O.2    84  PHE84      -0.2715
     90  CB         7.6950   -5.2140    7.1380 C.3    84  PHE84       0.0574
     91  CG         8.2770   -4.9140    5.7760 C.ar   84  PHE84      -0.0200
     92  CD1        9.6380   -5.0660    5.5350 C.ar   84  PHE84      -0.0042
     93  CD2        7.4620   -4.5000    4.7300 C.ar   84  PHE84      -0.0042
     94  CE1       10.1770   -4.7910    4.2720 C.ar   84  PHE84      -0.0003
     95  CE2        7.9960   -4.2360    3.4630 C.ar   84  PHE84      -0.0003
     96  CZ         9.3500   -4.3540    3.2480 C.ar   84  PHE84      -0.0000
     97  N          8.1600   -1.8320    7.4060 N.am   85  HIS85      -0.1959
     98  CA         7.7040   -0.5140    6.9510 C.3    85  HIS85       0.1787
     99  C          8.0490   -0.3860    5.4800 C.2    85  HIS85       0.2620
    100  O          9.1740   -0.0480    5.1270 O.2    85  HIS85      -0.2715
    101  CB         8.2810    0.6140    7.8330 C.3    85  HIS85       0.0785
    102  CG         7.8120    0.4920    9.2480 C.ar   85  HIS85       0.0821
    103  ND1        6.4890    0.7660    9.6070 N.ar   85  HIS85      -0.2267
    104  CD2        8.4790    0.0620   10.3420 C.ar   85  HIS85       0.1154
    105  CE1        6.4080    0.5040   10.8990 C.ar   85  HIS85       0.1986
    106  NE2        7.5810    0.0890   11.3870 N.ar   85  HIS85      -0.2212
    107  N          7.0630   -0.7240    4.6130 N.am   86  ALA86      -0.1963
    108  CA         7.1890   -0.7840    3.1510 C.3    86  ALA86       0.1728
    109  C          7.8050    0.4600    2.5010 C.2    86  ALA86       0.2616
    110  O          8.4870    0.3030    1.5100 O.2    86  ALA86      -0.2715
    111  CB         5.8430   -1.1190    2.5070 C.3    86  ALA86       0.0334
    112  N          7.6020    1.6780    3.0600 N.am   87  LYS87      -0.1963
    113  CA         8.1810    2.9190    2.5000 C.3    87  LYS87       0.1728
    114  C          9.7070    2.9850    2.6020 C.2    87  LYS87       0.2617
    115  O         10.3430    3.7510    1.8690 O.2    87  LYS87      -0.2715
    116  CB         7.5190    4.1790    3.0930 C.3    87  LYS87       0.0311
    117  CG         6.1690    4.4170    2.4690 C.3    87  LYS87       0.0038
    118  CD         5.3740    5.5510    3.0940 C.3    87  LYS87       0.0206
    119  CE         4.0270    5.5910    2.4010 C.3    87  LYS87       0.1093
    120  NZ         3.0810    6.5220    3.0570 N.3    87  LYS87      -0.1314
    121  N         10.2840    2.1750    3.4830 N.am   88  GLY88      -0.1940
    122  CA        11.7330    2.0710    3.6080 C.3    88  GLY88       0.2014
    123  C         12.3630    3.1800    4.4180 C.2    88  GLY88       0.2638
    124  O         11.6830    3.8450    5.2030 O.2    88  GLY88      -0.2714
    125  N         13.6760    3.3820    4.2210 N.am   89  ASN89      -0.1972
    126  CA        14.4260    4.3560    4.9910 C.3    89  ASN89       0.1688
    127  C         14.1690    5.7760    4.5210 C.2    89  ASN89       0.2292
    128  O         13.7120    6.0020    3.3950 O.2    89  ASN89      -0.2864
    129  CB        15.9150    4.0000    5.0500 C.3    89  ASN89       0.1181
    130  CG        16.6420    4.1640    3.7500 C.2    89  ASN89       0.2629
    131  OD1       17.1130    5.2350    3.4120 O.2    89  ASN89      -0.2716
    132  ND2       16.7140    3.1170    2.9790 N.am   89  ASN89      -0.0877
    133  N         19.6000    7.3210    6.5930 N.3   140  SER140     -0.1202
    134  CA        19.5610    5.9550    6.0570 C.3   140  SER140      0.2020
    135  C         19.1350    4.9060    7.0720 C.2   140  SER140      0.2618
    136  O         18.7740    3.8050    6.6670 O.2   140  SER140     -0.2717
    137  CB        20.8910    5.5880    5.3990 C.3   140  SER140      0.2103
    138  OG        21.9440    5.3940    6.3330 O.3   140  SER140     -0.2182
    139  N         19.0920    5.2760    8.3670 N.am  141  ASN141     -0.1974
    140  CA        18.7670    4.4650    9.5500 C.3   141  ASN141      0.1688
    141  C         17.4180    4.7000   10.1240 C.2   141  ASN141      0.2292
    142  O         17.1230    4.1910   11.2090 O.2   141  ASN141     -0.2864
    143  CB        19.7680    4.8330   10.6930 C.3   141  ASN141      0.1181
    144  CG        20.8290    3.8210   10.8380 C.2   141  ASN141      0.2629
    145  OD1       20.8870    2.8490   10.0770 O.2   141  ASN141     -0.2716
    146  ND2       21.7030    4.0340   11.7970 N.am  141  ASN141     -0.0877
    147  N         13.3050    4.7320    9.5770 N.3   143  LEU143     -0.1245
    148  CA        12.2710    4.1880    8.6880 C.3   143  LEU143      0.1561
    149  C         11.1070    5.1450    8.5640 C.2   143  LEU143      0.2260
    150  O         10.8330    5.8990    9.5010 O.2   143  LEU143     -0.2867
    151  CB        11.8110    2.7820    9.1220 C.3   143  LEU143      0.0270
    152  CG        12.9100    1.7170    9.0040 C.3   143  LEU143      0.0019
    153  CD1       12.5420    0.4970    9.8080 C.3   143  LEU143      0.0001
    154  CD2       13.1820    1.3560    7.5250 C.3   143  LEU143      0.0001
    155  N         15.3790    2.4380   14.3740 N.3   153  CYS153     -0.1221
    156  CA        15.4450    0.9700   14.2870 C.3   153  CYS153      0.1808
    157  C         16.7840    0.2980   14.4830 C.2   153  CYS153      0.2601
    158  O         16.7800   -0.9010   14.7750 O.2   153  CYS153     -0.2717
    159  CB        14.8760    0.5440   12.9360 C.3   153  CYS153      0.0970
    160  SG        15.8600    1.1130   11.5220 S.3   153  CYS153     -0.0800
    161  N         17.8850    0.9490   14.1370 N.am  154  ASP154     -0.1973
    162  CA        19.1990    0.2900   14.0380 C.3   154  ASP154      0.1709
    163  C         20.0330    0.4860   15.3200 C.2   154  ASP154      0.2293
    164  O         20.7920    1.4480   15.4300 O.2   154  ASP154     -0.2864
    165  CB        19.9060    0.8510   12.7780 C.3   154  ASP154      0.1436
    166  CG        21.2950    0.3120   12.4850 C.2   154  ASP154      0.3671
    167  OD1       21.6350   -0.7930   12.9960 O.co2 154  ASP154     -0.2456
    168  OD2       22.0600    1.0080   11.7810 O.co2 154  ASP154     -0.2456
@<TRIPOS>BOND
     1     6     5    1
     2     2     1    1
     3     2     3    1
     4     2     5    1
     5     4     3    2
     6   110   109    2
     7     3     8   am
     8   115   114    2
     9     5     7    1
    10    19    18    1
    11    19    20    1
    12    18    17    1
    13   119   120    1
    14   119   118    1
    15   117   116    1
    16   117   118    1
    17   113   114    1
    18   113   112    1
    19   113   116    1
    20   109   112   am
    21   109   108    1
    22   111   108    1
    23     8     9    1
    24   114   121   am
    25   132   130   am
    26    16    17    1
    27    16    13    1
    28     9    10    1
    29   108   107    1
    30    96    95   ar
    31    96    94   ar
    32   128   127    2
    33   131   130    2
    34    95    93   ar
    35   121   122    1
    36   122   123    1
    37    10    12   am
    38    10    11    2
    39   130   129    1
    40    12    13    1
    41    28    27    2
    42   125   123   am
    43   125   126    1
    44    13    14    1
    45    94    92   ar
    46   123   124    2
    47   127   126    1
    48    15    14    2
    49   107    99   am
    50    93    91   ar
    51   126   129    1
    52    14    21   am
    53    27    26    1
    54   100    99    2
    55   137   134    1
    56   137   138    1
    57    99    98    1
    58    92    91   ar
    59    91    90    1
    60    25    26    1
    61   134   133    1
    62   134   135    1
    63    26    29    1
    64    21    22    1
    65   136   135    2
    66    29    30    1
    67    29    31    1
    68    24    23    2
    69    98    97    1
    70    98   101    1
    71   135   139   am
    72    90    87    1
    73    22    23    1
    74    97    88   am
    75   154   152    1
    76    88    89    2
    77    88    87    1
    78   101   102    1
    79    87    86    1
    80   139   140    1
    81    33    36    1
    82    33    32    1
    83    33    34    1
    84   149   148    1
    85   149   150    2
    86   148   151    1
    87   148   147    1
    88   152   151    1
    89   152   153    1
    90   102   103   ar
    91   102   104   ar
    92    34    35    2
    93    86    83   am
    94   140   141    1
    95   140   143    1
    96   103   105   ar
    97   145   144    2
    98   141   142    2
    99   104   106   ar
   100    37    38    1
   101    38    39    1
   102    38    41    1
   103    83    84    2
   104    83    82    1
   105   143   144    1
   106    39    40    2
   107   144   146   am
   108   105   106   ar
   109    42    41    1
   110    42    43    1
   111   160   159    1
   112    77    76    2
   113   168   166   ar
   114    44    43    1
   115    44    45    1
   116    82    85    1
   117    82    81    1
   118    79    78    1
   119   166   165    1
   120   166   167   ar
   121    76    81   am
   122    76    75    1
   123   165   162    1
   124    72    71    1
   125   159   156    1
   126    74    75    1
   127    73    71    1
   128    78    75    1
   129    78    80    1
   130    71    70    1
   131   162   161    1
   132   162   163    1
   133   161   157   am
   134   156   155    1
   135   156   157    1
   136   157   158    2
   137    70    67    1
   138    53    52   ar
   139   163   164    2
   140    67    66    1
   141    67    68    1
   142    54    52   ar
   143    52    51    1
   144    68    69    2
   145    65    64   ar
   146    65    63   ar
   147    64    62   ar
   148    51    50    1
   149    63    61   ar
   150    50    47    1
   151    62    60   ar
   152    61    60   ar
   153    60    59    1
   154    47    46    1
   155    47    48    1
   156    48    49    2
   157    59    56    1
   158    56    55    1
   159    56    57    1
   160    58    57    2
