@<TRIPOS>MOLECULE
tmp/5e8zA00.pdb
 176 168 0 0 0
SMALL
GASTEIGER

@<TRIPOS>ATOM
      1  N         -3.9180   12.0290    3.6430 N.3    15  ILE15      -0.1231
      2  CA        -3.8660   10.5820    3.8360 C.3    15  ILE15       0.1692
      3  C         -3.5440   10.2440    5.3340 C.2    15  ILE15       0.2593
      4  O         -3.7390    9.0910    5.7220 O.2    15  ILE15      -0.2718
      5  CB        -2.9900    9.8470    2.7800 C.3    15  ILE15       0.0266
      6  CG1       -1.5410   10.3410    2.7880 C.3    15  ILE15       0.0019
      7  CG2       -3.5930    9.9720    1.3450 C.3    15  ILE15       0.0020
      8  CD1       -0.6370    9.6780    1.7650 C.3    15  ILE15       0.0001
      9  N         -3.2270   11.2330    6.1750 N.am   16  GLY16      -0.1942
     10  CA        -3.0200   10.9210    7.5980 C.3    16  GLY16       0.2014
     11  C         -2.1060   11.8530    8.3570 C.2    16  GLY16       0.2639
     12  O         -1.7390   12.8960    7.8470 O.2    16  GLY16      -0.2714
     13  N         -1.8020   11.5290    9.6180 N.am   17  LYS17      -0.1963
     14  CA        -0.9060   12.3770   10.4090 C.3    17  LYS17       0.1728
     15  C          0.1340   11.5820   11.1270 C.2    17  LYS17       0.2616
     16  O         -0.1080   10.4210   11.4630 O.2    17  LYS17      -0.2715
     17  CB        -1.6780   13.2730   11.3970 C.3    17  LYS17       0.0311
     18  CG        -2.4260   12.5410   12.5030 C.3    17  LYS17       0.0038
     19  CD        -3.0150   13.5110   13.5240 C.3    17  LYS17       0.0206
     20  CE        -3.4410   12.7970   14.7860 C.3    17  LYS17       0.1093
     21  NZ        -4.0720   13.7180   15.7680 N.3    17  LYS17      -0.1314
     22  N          1.2780   12.2120   11.3870 N.am   18  GLY18      -0.1955
     23  CA         2.3410   11.6030   12.1870 C.3    18  GLY18       0.1869
     24  C          2.2470   12.1940   13.5710 C.2    18  GLY18       0.2309
     25  O          1.2440   12.8580   13.8680 O.2    18  GLY18      -0.2863
     26  N          0.3430   14.1460    6.6040 N.3    23  VAL23      -0.1245
     27  CA         0.7730   13.4800    5.3760 C.3    23  VAL23       0.1561
     28  C         -0.2900   13.5950    4.2840 C.2    23  VAL23       0.2260
     29  O         -1.4840   13.3650    4.5170 O.2    23  VAL23      -0.2867
     30  CB         1.1570   11.9920    5.6210 C.3    23  VAL23       0.0252
     31  CG1        1.7790   11.3590    4.3640 C.3    23  VAL23       0.0019
     32  CG2        2.1250   11.8680    6.8000 C.3    23  VAL23       0.0019
     33  N          4.5170   11.2510   -1.4790 N.3    34  ALA34      -0.1245
     34  CA         3.9480   11.5520   -0.1840 C.3    34  ALA34       0.1562
     35  C          4.6440   12.7820    0.3530 C.2    34  ALA34       0.2260
     36  O          5.8720   12.9400    0.2250 O.2    34  ALA34      -0.2867
     37  CB         4.1050   10.3910    0.7840 C.3    34  ALA34       0.0290
     38  N          4.9870   15.1560    3.8460 N.3    36  LYS36      -0.1245
     39  CA         4.6850   15.3280    5.2590 C.3    36  LYS36       0.1561
     40  C          4.9400   16.8010    5.5350 C.2    36  LYS36       0.2260
     41  O          6.0520   17.3200    5.3050 O.2    36  LYS36      -0.2867
     42  CB         5.5350   14.4180    6.1550 C.3    36  LYS36       0.0271
     43  CG         5.1310   14.5360    7.6300 C.3    36  LYS36       0.0035
     44  CD         5.3170   13.2680    8.4730 C.3    36  LYS36       0.0206
     45  CE         6.7360   12.8110    8.5810 C.3    36  LYS36       0.1093
     46  NZ         6.9130   11.7720    9.6610 N.3    36  LYS36      -0.1314
     47  N         11.7910    3.7950    3.7870 N.3    64  LEU64      -0.1245
     48  CA        11.0650    4.7390    2.9450 C.3    64  LEU64       0.1561
     49  C         12.0350    5.6110    2.1480 C.2    64  LEU64       0.2260
     50  O         12.9810    6.1810    2.7210 O.2    64  LEU64      -0.2867
     51  CB        10.1540    5.6110    3.8010 C.3    64  LEU64       0.0270
     52  CG         9.3620    6.6910    3.0110 C.3    64  LEU64       0.0019
     53  CD1        8.4030    6.0340    1.9780 C.3    64  LEU64       0.0001
     54  CD2        8.5620    7.5760    3.9650 C.3    64  LEU64       0.0001
     55  N          8.6260   12.1320    0.0220 N.3    84  SER84      -0.1202
     56  CA         9.0910   10.7570   -0.1120 C.3    84  SER84       0.2020
     57  C          8.3140   10.0130   -1.1610 C.2    84  SER84       0.2619
     58  O          7.3110   10.5140   -1.6850 O.2    84  SER84      -0.2717
     59  CB         8.8810   10.0340    1.2230 C.3    84  SER84       0.2103
     60  OG         7.4990    9.8040    1.4410 O.3    84  SER84      -0.2182
     61  N          8.7460    8.7560   -1.4280 N.am   85  ASP85      -0.1959
     62  CA         7.9650    7.8730   -2.2690 C.3    85  ASP85       0.1840
     63  C          6.5640    7.7240   -1.6700 C.2    85  ASP85       0.2622
     64  O          6.3820    7.8180   -0.4480 O.2    85  ASP85      -0.2715
     65  CB         8.6120    6.4800   -2.2750 C.3    85  ASP85       0.1450
     66  CG         9.9800    6.4330   -2.9030 C.2    85  ASP85       0.3671
     67  OD1       10.3750    7.4330   -3.5590 O.co2  85  ASP85      -0.2456
     68  OD2       10.6360    5.3750   -2.8010 O.co2  85  ASP85      -0.2456
     69  N          5.5920    7.4340   -2.5340 N.am   86  TYR86      -0.1960
     70  CA         4.2100    7.2250   -2.1030 C.3    86  TYR86       0.1771
     71  C          3.8880    5.7460   -2.1670 C.2    86  TYR86       0.2620
     72  O          4.1950    5.1030   -3.1750 O.2    86  TYR86      -0.2715
     73  CB         3.2640    7.9860   -3.0360 C.3    86  TYR86       0.0574
     74  CG         1.7980    7.6780   -2.8050 C.ar   86  TYR86      -0.0198
     75  CD1        1.1630    8.0500   -1.6200 C.ar   86  TYR86      -0.0009
     76  CD2        1.0540    6.9980   -3.7650 C.ar   86  TYR86      -0.0009
     77  CE1       -0.1860    7.7480   -1.4010 C.ar   86  TYR86       0.0417
     78  CE2       -0.2980    6.7110   -3.5650 C.ar   86  TYR86       0.0417
     79  CZ        -0.9050    7.0830   -2.3800 C.ar   86  TYR86       0.1957
     80  OH        -2.2420    6.7990   -2.1920 O.3    86  TYR86      -0.2866
     81  N          3.2810    5.2180   -1.0940 N.am   87  HIS87      -0.1959
     82  CA         2.8910    3.8040   -1.0660 C.3    87  HIS87       0.1787
     83  C          1.3970    3.7180   -0.8020 C.2    87  HIS87       0.2620
     84  O          0.9770    3.9310    0.3180 O.2    87  HIS87      -0.2715
     85  CB         3.7320    3.0230   -0.0410 C.3    87  HIS87       0.0785
     86  CG         5.1810    2.9970   -0.4180 C.ar   87  HIS87       0.0821
     87  ND1        5.6100    2.3810   -1.5720 N.ar   87  HIS87      -0.2267
     88  CD2        6.2480    3.5770    0.1920 C.ar   87  HIS87       0.1154
     89  CE1        6.9200    2.5730   -1.6320 C.ar   87  HIS87       0.1986
     90  NE2        7.3570    3.2900   -0.5890 N.ar   87  HIS87      -0.2212
     91  N          0.5960    3.4320   -1.8680 N.am   88  GLU88      -0.1963
     92  CA        -0.8730    3.4150   -1.8250 C.3    88  GLU88       0.1733
     93  C         -1.4750    2.6040   -0.6670 C.2    88  GLU88       0.2616
     94  O         -2.4760    3.0340   -0.0900 O.2    88  GLU88      -0.2715
     95  CB        -1.4270    2.9340   -3.1760 C.3    88  GLU88       0.0429
     96  CG        -2.8850    3.2950   -3.3950 C.3    88  GLU88       0.1163
     97  CD        -3.4390    2.9190   -4.7590 C.2    88  GLU88       0.3649
     98  OE1       -4.3580    3.6240   -5.2360 O.co2  88  GLU88      -0.2457
     99  OE2       -2.9610    1.9220   -5.3480 O.co2  88  GLU88      -0.2457
    100  N         -0.8610    1.4910   -0.3030 N.am   89  HIS89      -0.1959
    101  CA        -1.4010    0.6730    0.8010 C.3    89  HIS89       0.1787
    102  C         -1.3100    1.3460    2.1780 C.2    89  HIS89       0.2621
    103  O         -1.9530    0.8900    3.1340 O.2    89  HIS89      -0.2715
    104  CB        -0.6610   -0.6610    0.8920 C.3    89  HIS89       0.0785
    105  CG        -1.0370   -1.6440   -0.1620 C.ar   89  HIS89       0.0821
    106  ND1       -2.3690   -1.9080   -0.4700 N.ar   89  HIS89      -0.2267
    107  CD2       -0.2480   -2.4590   -0.8940 C.ar   89  HIS89       0.1154
    108  CE1       -2.3360   -2.8360   -1.4120 C.ar   89  HIS89       0.1986
    109  NE2       -1.0880   -3.2240   -1.6760 N.ar   89  HIS89      -0.2212
    110  N         -0.4420    2.3510    2.3040 N.am   90  GLY90      -0.1940
    111  CA        -0.2270    2.9740    3.6000 C.3    90  GLY90       0.2014
    112  C          0.4730    2.0570    4.5810 C.2    90  GLY90       0.2639
    113  O          1.3360    1.2730    4.1940 O.2    90  GLY90      -0.2714
    114  N          0.1160    2.1850    5.8690 N.am   91  SER91      -0.1949
    115  CA         0.8170    1.4350    6.8880 C.3    91  SER91       0.1924
    116  C          0.4710   -0.0170    6.9590 C.2    91  SER91       0.2314
    117  O         -0.6060   -0.4380    6.5250 O.2    91  SER91      -0.2863
    118  CB         0.6190    2.0590    8.2660 C.3    91  SER91       0.2116
    119  OG        -0.7130    1.7960    8.6930 O.3    91  SER91      -0.2180
    120  N         -2.7550   -0.2360    8.6850 N.3    94  ASP94      -0.1239
    121  CA        -3.9240   -0.1370    7.7840 C.3    94  ASP94       0.1674
    122  C         -4.1090   -1.4300    6.9860 C.2    94  ASP94       0.2266
    123  O         -5.2340   -1.9330    6.8490 O.2    94  ASP94      -0.2867
    124  CB        -3.7400    1.0210    6.7840 C.3    94  ASP94       0.1410
    125  CG        -3.6230    2.3990    7.3950 C.2    94  ASP94       0.3668
    126  OD1       -4.2750    2.6470    8.4360 O.co2  94  ASP94      -0.2456
    127  OD2       -2.7740    3.1910    6.9090 O.co2  94  ASP94      -0.2456
    128  N         -7.3500   -4.2140    7.1270 N.3    98  ARG98      -0.1245
    129  CA        -8.1890   -4.4510    5.9540 C.3    98  ARG98       0.1563
    130  C         -8.1010   -5.8780    5.4240 C.2    98  ARG98       0.2260
    131  O         -9.1020   -6.3980    4.9200 O.2    98  ARG98      -0.2867
    132  CB        -7.8030   -3.4510    4.8450 C.3    98  ARG98       0.0307
    133  CG        -8.2260   -2.0220    5.1000 C.3    98  ARG98       0.0489
    134  CD        -7.8450   -1.0400    3.9690 C.3    98  ARG98       0.2205
    135  NE        -6.3730   -1.0450    3.9080 N.pl3  98  ARG98      -0.0865
    136  CZ        -5.6990   -0.3480    2.9600 C.cat  98  ARG98       0.5346
    137  NH1       -6.4250    0.3300    2.0490 N.pl3  98  ARG98       0.1354
    138  NH2       -4.3740   -0.3650    2.9900 N.pl3  98  ARG98       0.1354
    139  N          2.0480    1.0950   12.6970 N.3   141  LYS141     -0.1231
    140  CA         1.6210    2.3500   12.0680 C.3   141  LYS141      0.1693
    141  C          2.7520    3.1250   11.3800 C.2   141  LYS141      0.2592
    142  O          2.4470    4.0680   10.6250 O.2   141  LYS141     -0.2718
    143  CB         0.9290    3.2640   13.1110 C.3   141  LYS141      0.0285
    144  CG        -0.4180    2.6990   13.5280 C.3   141  LYS141      0.0035
    145  CD        -1.0710    3.5590   14.6100 C.3   141  LYS141      0.0206
    146  CE        -2.3350    2.8590   15.0730 C.3   141  LYS141      0.1093
    147  NZ        -3.3200    3.8130   15.6460 N.3   141  LYS141     -0.1314
    148  N          4.0290    2.7440   11.6160 N.am  142  ASN142     -0.1974
    149  CA         5.2330    3.4170   11.0630 C.3   142  ASN142      0.1688
    150  C          5.9420    2.5850    9.9910 C.2   142  ASN142      0.2292
    151  O          7.0250    2.9620    9.5050 O.2   142  ASN142     -0.2864
    152  CB         6.2240    3.6760   12.2290 C.3   142  ASN142      0.1181
    153  CG         5.8710    4.9060   12.9500 C.2   142  ASN142      0.2629
    154  OD1        4.9930    5.6960   12.5280 O.2   142  ASN142     -0.2716
    155  ND2        6.5470    5.1110   14.0380 N.am  142  ASN142     -0.0877
    156  N          5.4250    0.8770    6.2060 N.3   144  LEU144     -0.1245
    157  CA         4.5280    1.0000    5.0680 C.3   144  LEU144      0.1561
    158  C          4.6080   -0.2430    4.2080 C.2   144  LEU144      0.2260
    159  O          5.6100   -0.9420    4.2160 O.2   144  LEU144     -0.2867
    160  CB         4.9330    2.2140    4.2100 C.3   144  LEU144      0.0270
    161  CG         4.9270    3.5610    4.9610 C.3   144  LEU144      0.0019
    162  CD1        5.5670    4.6090    4.1190 C.3   144  LEU144      0.0001
    163  CD2        3.4980    3.9940    5.3760 C.3   144  LEU144      0.0001
    164  N          9.3530    3.7980    8.0190 N.3   154  ALA154     -0.1231
    165  CA         9.1970    5.2450    7.9120 C.3   154  ALA154      0.1694
    166  C          9.1960    5.8750    9.3170 C.2   154  ALA154      0.2592
    167  O          9.4680    5.1900   10.3120 O.2   154  ALA154     -0.2718
    168  CB         7.8990    5.5840    7.1740 C.3   154  ALA154      0.0304
    169  N          8.9080    7.1680    9.3900 N.am  155  ASP155     -0.1974
    170  CA         8.7910    7.9590   10.6290 C.3   155  ASP155      0.1709
    171  C         10.1100    7.8610   11.4280 C.2   155  ASP155      0.2293
    172  O         10.1710    7.3330   12.5390 O.2   155  ASP155     -0.2864
    173  CB         7.5720    7.4730   11.4430 C.3   155  ASP155      0.1436
    174  CG         7.0120    8.4800   12.4040 C.2   155  ASP155      0.3671
    175  OD1        7.1910    9.6530   12.1680 O.co2 155  ASP155     -0.2456
    176  OD2        6.3730    8.0660   13.3950 O.co2 155  ASP155     -0.2456
@<TRIPOS>BOND
     1    99    97   ar
     2    98    97   ar
     3    97    96    1
     4    76    78   ar
     5    76    74   ar
     6    78    79   ar
     7    67    66   ar
     8    96    95    1
     9    95    92    1
    10    72    71    2
    11    73    74    1
    12    73    70    1
    13    66    68   ar
    14    66    65    1
    15    74    75   ar
    16    69    70    1
    17    69    63   am
    18    79    80    1
    19    79    77   ar
    20    65    62    1
    21    62    63    1
    22    62    61    1
    23    71    70    1
    24    71    81   am
    25    91    92    1
    26    91    83   am
    27    92    93    1
    28    58    57    2
    29   109   108   ar
    30   109   107   ar
    31    63    64    2
    32    89    87   ar
    33    89    90   ar
    34    75    77   ar
    35    87    86   ar
    36    33    34    1
    37    61    57   am
    38   108   106   ar
    39    57    56    1
    40    81    82    1
    41    82    83    1
    42    82    85    1
    43   107   105   ar
    44    83    84    2
    45    93   100   am
    46    93    94    2
    47    90    88   ar
    48   106   105   ar
    49    86    85    1
    50    86    88   ar
    51   100   101    1
    52    34    35    1
    53    34    37    1
    54   105   104    1
    55    56    55    1
    56    56    59    1
    57    36    35    2
    58   101   104    1
    59   101   102    1
    60    59    60    1
    61     7     5    1
    62     8     6    1
    63    53    52    1
    64   137   136    1
    65    49    50    2
    66    49    48    1
    67   102   110   am
    68   102   103    2
    69   110   111    1
    70     5     6    1
    71     5     2    1
    72    48    47    1
    73    48    51    1
    74   136   138    1
    75   136   135    2
    76    52    51    1
    77    52    54    1
    78   111   112    1
    79     1     2    1
    80     2     3    1
    81    38    39    1
    82   135   134    1
    83   134   133    1
    84   162   161    1
    85   113   112    2
    86   158   159    2
    87   158   157    1
    88   160   161    1
    89   160   157    1
    90    28    29    2
    91    28    27    1
    92    31    30    1
    93   112   114   am
    94   132   133    1
    95   132   129    1
    96   131   130    2
    97   161   163    1
    98   157   156    1
    99    39    40    1
   100    39    42    1
   101    41    40    2
   102     3     4    2
   103     3     9   am
   104    27    30    1
   105    27    26    1
   106   130   129    1
   107    30    32    1
   108   114   115    1
   109   129   128    1
   110    42    43    1
   111     9    10    1
   112   117   116    2
   113   124   125    1
   114   124   121    1
   115   123   122    2
   116   115   116    1
   117   115   118    1
   118   127   125   ar
   119   122   121    1
   120   168   165    1
   121   125   126   ar
   122    10    11    1
   123    43    44    1
   124   121   120    1
   125    12    11    2
   126   165   164    1
   127   165   166    1
   128   118   119    1
   129    11    13   am
   130    44    45    1
   131    45    46    1
   132   166   169   am
   133   166   167    2
   134   169   170    1
   135   151   150    2
   136    13    14    1
   137   150   149    1
   138    14    15    1
   139    14    17    1
   140   142   141    2
   141   170   171    1
   142   170   173    1
   143   149   148    1
   144   149   152    1
   145    15    22   am
   146    15    16    2
   147   141   148   am
   148   141   140    1
   149    22    23    1
   150    17    18    1
   151   171   172    2
   152   173   174    1
   153   140   139    1
   154   140   143    1
   155   175   174   ar
   156    23    24    1
   157   152   153    1
   158   174   176   ar
   159    18    19    1
   160   154   153    2
   161   153   155   am
   162   143   144    1
   163    19    20    1
   164   144   145    1
   165    24    25    2
   166   145   146    1
   167    20    21    1
   168   146   147    1
