@<TRIPOS>MOLECULE
tmp/5e91A00.pdb
 168 159 0 0 0
SMALL
GASTEIGER

@<TRIPOS>ATOM
      1  N         16.0900   -6.3150    1.2850 N.3    11  VAL11      -0.1231
      2  CA        15.6570   -4.9170    1.1840 C.3    11  VAL11       0.1692
      3  C         16.7370   -3.9440    1.7160 C.2    11  VAL11       0.2593
      4  O         16.7610   -2.7800    1.2960 O.2    11  VAL11      -0.2718
      5  CB        14.2420   -4.6560    1.8110 C.3    11  VAL11       0.0266
      6  CG1       13.1450   -5.3730    1.0300 C.3    11  VAL11       0.0020
      7  CG2       14.1760   -5.0020    3.3020 C.3    11  VAL11       0.0020
      8  N         17.6320   -4.4330    2.5780 N.am   12  GLY12      -0.1942
      9  CA        18.6420   -3.5970    3.1970 C.3    12  GLY12       0.2014
     10  C         19.8640   -4.3060    3.7010 C.2    12  GLY12       0.2639
     11  O         19.8920   -5.5260    3.8580 O.2    12  GLY12      -0.2714
     12  N         20.8780   -3.4960    3.9880 N.am   13  LYS13      -0.1963
     13  CA        22.1730   -3.9360    4.4640 C.3    13  LYS13       0.1728
     14  C         22.7200   -2.8530    5.3860 C.2    13  LYS13       0.2616
     15  O         22.9850   -1.7280    4.9450 O.2    13  LYS13      -0.2715
     16  CB        23.1350   -4.1810    3.2720 C.3    13  LYS13       0.0311
     17  CG        24.2630   -5.1630    3.5560 C.3    13  LYS13       0.0038
     18  CD        25.1110   -5.3990    2.3310 C.3    13  LYS13       0.0206
     19  CE        26.0960   -6.5230    2.5300 C.3    13  LYS13       0.1093
     20  NZ        25.5400   -7.8190    2.0740 N.3    13  LYS13      -0.1314
     21  N         22.8150   -3.1890    6.6730 N.am   14  GLY14      -0.1955
     22  CA        23.4000   -2.3460    7.7200 C.3    14  GLY14       0.1869
     23  C         24.8730   -2.6830    7.8920 C.2    14  GLY14       0.2309
     24  O         25.4180   -3.4570    7.0950 O.2    14  GLY14      -0.2863
     25  N         18.8190   -7.1620    5.8920 N.3    19  VAL19      -0.1245
     26  CA        17.4050   -7.0190    6.2040 C.3    19  VAL19       0.1561
     27  C         16.6060   -7.5550    5.0340 C.2    19  VAL19       0.2260
     28  O         16.8630   -7.2010    3.8850 O.2    19  VAL19      -0.2867
     29  CB        16.9930   -5.5670    6.5560 C.3    19  VAL19       0.0252
     30  CG1       15.5310   -5.5270    7.0050 C.3    19  VAL19       0.0019
     31  CG2       17.9030   -4.9820    7.6480 C.3    19  VAL19       0.0019
     32  N          9.8700   -7.8230    8.8850 N.3    29  ALA29      -0.1245
     33  CA        11.2360   -7.5770    8.4880 C.3    29  ALA29       0.1562
     34  C         12.0570   -8.5470    9.3100 C.2    29  ALA29       0.2260
     35  O         11.7650   -8.7580   10.4900 O.2    29  ALA29      -0.2867
     36  CB        11.6450   -6.1530    8.8200 C.3    29  ALA29       0.0290
     37  N         16.0290   -9.2360   10.2520 N.3    31  LYS31      -0.1245
     38  CA        17.3810   -8.7350   10.2300 C.3    31  LYS31       0.1561
     39  C         18.2700   -9.9190   10.6300 C.2    31  LYS31       0.2260
     40  O         18.1310  -10.4620   11.7260 O.2    31  LYS31      -0.2867
     41  CB        17.5320   -7.5500   11.1850 C.3    31  LYS31       0.0271
     42  CG        18.8280   -6.8090   10.9950 C.3    31  LYS31       0.0035
     43  CD        18.8770   -5.6020   11.8550 C.3    31  LYS31       0.0206
     44  CE        20.1150   -4.8130   11.5460 C.3    31  LYS31       0.1093
     45  NZ        20.1000   -3.5150   12.2470 N.3    31  LYS31      -0.1314
     46  N         10.8650    1.2060   16.3090 N.3    59  LEU59      -0.1245
     47  CA        10.4950   -0.0020   15.5840 C.3    59  LEU59       0.1561
     48  C          9.9640   -1.1190   16.4870 C.2    59  LEU59       0.2260
     49  O         10.6350   -1.5190   17.4450 O.2    59  LEU59      -0.2867
     50  CB        11.6570   -0.4870   14.7100 C.3    59  LEU59       0.0270
     51  CG        11.4180   -1.7550   13.9030 C.3    59  LEU59       0.0019
     52  CD1       10.2690   -1.5580   12.8530 C.3    59  LEU59       0.0001
     53  CD2       12.7270   -2.2470   13.2740 C.3    59  LEU59       0.0001
     54  N         10.9180   -8.0150   13.2450 N.3    79  THR79      -0.1203
     55  CA        10.2320   -6.7800   13.6040 C.3    79  THR79       0.1994
     56  C          9.1140   -6.4730   12.6250 C.2    79  THR79       0.2618
     57  O          8.9880   -7.1460   11.6020 O.2    79  THR79      -0.2717
     58  CB        11.2410   -5.5880   13.5350 C.3    79  THR79       0.1784
     59  OG1       11.6070   -5.3500   12.1820 O.3    79  THR79      -0.2211
     60  CG2       12.5040   -5.7550   14.4440 C.3    79  THR79       0.0376
     61  N          8.3470   -5.3930   12.8880 N.am   80  ALA80      -0.1965
     62  CA         7.3570   -4.8500   11.9460 C.3    80  ALA80       0.1728
     63  C          8.1240   -4.4200   10.6460 C.2    80  ALA80       0.2616
     64  O          9.3110   -4.0680   10.6850 O.2    80  ALA80      -0.2715
     65  CB         6.6870   -3.6260   12.5490 C.3    80  ALA80       0.0334
     66  N          7.4350   -4.4560    9.5150 N.am   81  PHE81      -0.1960
     67  CA         7.9960   -4.0520    8.2450 C.3    81  PHE81       0.1771
     68  C          7.3590   -2.7270    7.8110 C.2    81  PHE81       0.2620
     69  O          6.1340   -2.6240    7.8020 O.2    81  PHE81      -0.2715
     70  CB         7.7750   -5.1550    7.1840 C.3    81  PHE81       0.0574
     71  CG         8.2990   -4.8190    5.8060 C.ar   81  PHE81      -0.0200
     72  CD1        9.6410   -4.9860    5.4940 C.ar   81  PHE81      -0.0042
     73  CD2        7.4420   -4.3730    4.8080 C.ar   81  PHE81      -0.0042
     74  CE1       10.1210   -4.6860    4.2140 C.ar   81  PHE81      -0.0003
     75  CE2        7.9240   -4.0700    3.5360 C.ar   81  PHE81      -0.0003
     76  CZ         9.2610   -4.2100    3.2520 C.ar   81  PHE81      -0.0000
     77  N          8.1880   -1.7150    7.4670 N.am   82  HIS82      -0.1959
     78  CA         7.7430   -0.4070    6.9720 C.3    82  HIS82       0.1787
     79  C          8.1470   -0.2880    5.5310 C.2    82  HIS82       0.2620
     80  O          9.3070   -0.0030    5.2100 O.2    82  HIS82      -0.2715
     81  CB         8.2560    0.7740    7.8230 C.3    82  HIS82       0.0785
     82  CG         7.7150    0.7250    9.2170 C.ar   82  HIS82       0.0821
     83  ND1        6.3520    0.8260    9.4650 N.ar   82  HIS82      -0.2267
     84  CD2        8.3570    0.4940   10.3870 C.ar   82  HIS82       0.1154
     85  CE1        6.2140    0.6730   10.7720 C.ar   82  HIS82       0.1986
     86  NE2        7.3910    0.4550   11.3700 N.ar   82  HIS82      -0.2212
     87  N          7.1510   -0.5260    4.6550 N.am   83  ALA83      -0.1963
     88  CA         7.2760   -0.5580    3.2010 C.3    83  ALA83       0.1728
     89  C          7.9240    0.6690    2.5990 C.2    83  ALA83       0.2616
     90  O          8.6510    0.5190    1.6270 O.2    83  ALA83      -0.2715
     91  CB         5.9220   -0.8240    2.5560 C.3    83  ALA83       0.0334
     92  N          7.7010    1.8650    3.1770 N.am   84  LYS84      -0.1963
     93  CA         8.2210    3.1260    2.6230 C.3    84  LYS84       0.1728
     94  C          9.7380    3.2620    2.7400 C.2    84  LYS84       0.2617
     95  O         10.3270    4.1320    2.0880 O.2    84  LYS84      -0.2715
     96  CB         7.4820    4.3520    3.1760 C.3    84  LYS84       0.0311
     97  CG         6.1030    4.5010    2.5520 C.3    84  LYS84       0.0038
     98  CD         5.3300    5.7210    3.0530 C.3    84  LYS84       0.0206
     99  CE         4.0410    5.8400    2.2890 C.3    84  LYS84       0.1093
    100  NZ         3.0770    6.7580    2.9420 N.3    84  LYS84      -0.1314
    101  N         10.3540    2.3580    3.4950 N.am   85  GLY85      -0.1940
    102  CA        11.7970    2.3000    3.6600 C.3    85  GLY85       0.2014
    103  C         12.4050    3.4630    4.4170 C.2    85  GLY85       0.2638
    104  O         11.7350    4.0860    5.2400 O.2    85  GLY85      -0.2714
    105  N         13.6640    3.7770    4.1430 N.am   86  ASN86      -0.1972
    106  CA        14.3450    4.7930    4.9140 C.3    86  ASN86       0.1688
    107  C         14.1170    6.2310    4.4400 C.2    86  ASN86       0.2292
    108  O         13.7900    6.4860    3.2780 O.2    86  ASN86      -0.2864
    109  CB        15.8270    4.4760    5.0540 C.3    86  ASN86       0.1181
    110  CG        16.6630    4.6700    3.8090 C.2    86  ASN86       0.2629
    111  OD1       16.8150    5.7660    3.3100 O.2    86  ASN86      -0.2716
    112  ND2       17.3440    3.6560    3.3640 N.am   86  ASN86      -0.0877
    113  N         16.1250    7.6780    1.3210 N.3    89  GLU89      -0.1245
    114  CA        15.5100    7.2470    0.0630 C.3    89  GLU89       0.1567
    115  C         14.2370    8.0210   -0.1950 C.2    89  GLU89       0.2260
    116  O         14.0330    8.4990   -1.3060 O.2    89  GLU89      -0.2867
    117  CB        15.2830    5.7310    0.0350 C.3    89  GLU89       0.0388
    118  CG        16.5850    4.9510   -0.0550 C.3    89  GLU89       0.1160
    119  CD        17.5160    5.2900   -1.2090 C.2    89  GLU89       0.3649
    120  OE1       17.0200    5.4780   -2.3480 O.co2  89  GLU89      -0.2457
    121  OE2       18.7460    5.3580   -0.9710 O.co2  89  GLU89      -0.2457
    122  N         13.5750   10.8440   -3.3940 N.3    93  ARG93      -0.1245
    123  CA        12.4670   10.7070   -4.3360 C.3    93  ARG93       0.1563
    124  C         11.3960   11.7710   -4.2310 C.2    93  ARG93       0.2260
    125  O         10.7870   12.0910   -5.2480 O.2    93  ARG93      -0.2867
    126  CB        11.8180    9.3150   -4.2170 C.3    93  ARG93       0.0307
    127  CG        12.7320    8.1960   -4.6750 C.3    93  ARG93       0.0489
    128  CD        12.1510    6.8430   -4.4050 C.3    93  ARG93       0.2205
    129  NE        13.2190    5.9280   -4.0220 N.pl3  93  ARG93      -0.0865
    130  CZ        13.1080    4.6060   -4.0190 C.cat  93  ARG93       0.5346
    131  NH1       11.9600    4.0270   -4.3460 N.pl3  93  ARG93       0.1354
    132  NH2       14.1350    3.8520   -3.6510 N.pl3  93  ARG93       0.1354
    133  N         19.4140    7.3560    6.6400 N.3   137  SER137     -0.1202
    134  CA        19.3530    5.9830    6.1520 C.3   137  SER137      0.2020
    135  C         18.9800    4.9610    7.2480 C.2   137  SER137      0.2618
    136  O         18.6250    3.8520    6.8950 O.2   137  SER137     -0.2717
    137  CB        20.6430    5.6050    5.4260 C.3   137  SER137      0.2103
    138  OG        21.7580    5.5340    6.2960 O.3   137  SER137     -0.2182
    139  N         19.0090    5.3400    8.5360 N.am  138  ASN138     -0.1974
    140  CA        18.6820    4.5090    9.7140 C.3   138  ASN138      0.1688
    141  C         17.2580    4.7740   10.2320 C.2   138  ASN138      0.2292
    142  O         16.8240    4.1360   11.2060 O.2   138  ASN138     -0.2864
    143  CB        19.7310    4.7700   10.8790 C.3   138  ASN138      0.1181
    144  CG        20.8000    3.7640   10.8320 C.2   138  ASN138      0.2629
    145  OD1       20.6920    2.7840   10.0990 O.2   138  ASN138     -0.2716
    146  ND2       21.8670    3.9750   11.5530 N.am  138  ASN138     -0.0877
    147  N         13.2280    4.8960    9.5770 N.3   140  LEU140     -0.1245
    148  CA        12.1650    4.3170    8.7540 C.3   140  LEU140      0.1561
    149  C         10.9770    5.2680    8.6670 C.2   140  LEU140      0.2260
    150  O         10.6580    5.9560    9.6420 O.2   140  LEU140     -0.2867
    151  CB        11.7040    2.9440    9.2970 C.3   140  LEU140      0.0270
    152  CG        12.7530    1.8310    9.3490 C.3   140  LEU140      0.0019
    153  CD1       12.2770    0.6560   10.2090 C.3   140  LEU140      0.0001
    154  CD2       13.0160    1.3330    7.9800 C.3   140  LEU140      0.0001
    155  N         15.3780    2.6150   14.2740 N.3   150  CYS150     -0.1221
    156  CA        15.8760    1.2320   14.2030 C.3   150  CYS150      0.1808
    157  C         17.4110    1.2220   14.2390 C.2   150  CYS150      0.2601
    158  O         18.0030    2.2720   14.4740 O.2   150  CYS150     -0.2717
    159  CB        15.3190    0.5080   12.9760 C.3   150  CYS150      0.0970
    160  SG        15.9360    1.1290   11.3960 S.3   150  CYS150     -0.0800
    161  N         18.0490    0.0620   14.0170 N.am  151  ASP151     -0.1973
    162  CA        19.5080   -0.0670   13.9150 C.3   151  ASP151      0.1709
    163  C         20.2460    0.3470   15.1950 C.2   151  ASP151      0.2293
    164  O         21.0190    1.3150   15.2080 O.2   151  ASP151     -0.2864
    165  CB        20.0160    0.7140   12.6750 C.3   151  ASP151      0.1436
    166  CG        21.3350    0.2290   12.0970 C.2   151  ASP151      0.3671
    167  OD1       21.6650   -0.9800   12.2680 O.co2 151  ASP151     -0.2456
    168  OD2       22.0130    1.0290   11.4240 O.co2 151  ASP151     -0.2456
@<TRIPOS>BOND
     1   125   124    2
     2   127   128    1
     3   127   126    1
     4   128   129    1
     5   131   130    1
     6   123   124    1
     7   123   126    1
     8   123   122    1
     9   129   130    2
    10   130   132    1
    11   120   119   ar
    12   116   115    2
    13   119   121   ar
    14   119   118    1
    15   115   114    1
    16   118   117    1
    17   117   114    1
    18   114   113    1
    19     6     5    1
    20     2     1    1
    21     2     3    1
    22     2     5    1
    23     4     3    2
    24    90    89    2
    25     3     8   am
    26     5     7    1
    27    20    19    1
    28    95    94    2
    29    99   100    1
    30    99    98    1
    31    18    19    1
    32    18    17    1
    33    97    98    1
    34    97    96    1
    35    91    88    1
    36     8     9    1
    37    89    92   am
    38    89    88    1
    39    93    94    1
    40    93    96    1
    41    93    92    1
    42    94   101   am
    43     9    10    1
    44    88    87    1
    45    76    75   ar
    46    76    74   ar
    47    16    17    1
    48    16    13    1
    49   108   107    2
    50   111   110    2
    51   112   110   am
    52   101   102    1
    53    75    73   ar
    54   102   103    1
    55    10    11    2
    56    10    12   am
    57   110   109    1
    58    28    27    2
    59    12    13    1
    60   105   103   am
    61   105   106    1
    62    74    72   ar
    63   103   104    2
    64   107   106    1
    65    13    14    1
    66    87    79   am
    67    73    71   ar
    68   106   109    1
    69    15    14    2
    70    27    26    1
    71    80    79    2
    72    14    21   am
    73   137   134    1
    74   137   138    1
    75    72    71   ar
    76    79    78    1
    77    71    70    1
    78    25    26    1
    79   134   133    1
    80   134   135    1
    81    26    29    1
    82    29    30    1
    83    29    31    1
    84    21    22    1
    85   136   135    2
    86    78    77    1
    87    78    81    1
    88    24    23    2
    89    70    67    1
    90   135   139   am
    91    77    68   am
    92    22    23    1
    93    69    68    2
    94    68    67    1
    95    81    82    1
    96   154   152    1
    97    67    66    1
    98    33    36    1
    99    33    32    1
   100    33    34    1
   101   139   140    1
   102   149   148    1
   103   149   150    2
   104   148   151    1
   105   148   147    1
   106    82    83   ar
   107    82    84   ar
   108   151   152    1
   109    34    35    2
   110   152   153    1
   111    83    85   ar
   112    66    63   am
   113   140   141    1
   114   140   143    1
   115   145   144    2
   116    38    37    1
   117    38    39    1
   118    38    41    1
   119   141   142    2
   120    84    86   ar
   121    39    40    2
   122    63    64    2
   123    63    62    1
   124    85    86   ar
   125   144   143    1
   126   144   146   am
   127    42    41    1
   128    42    43    1
   129   160   159    1
   130   168   166   ar
   131    44    43    1
   132    44    45    1
   133    57    56    2
   134    62    65    1
   135    62    61    1
   136   166   167   ar
   137   166   165    1
   138    59    58    1
   139    56    61   am
   140    56    55    1
   141   165   162    1
   142    52    51    1
   143   159   156    1
   144    54    55    1
   145    53    51    1
   146    58    55    1
   147    58    60    1
   148    51    50    1
   149   162   161    1
   150   162   163    1
   151   161   157   am
   152   156   157    1
   153   156   155    1
   154   157   158    2
   155    50    47    1
   156   163   164    2
   157    47    46    1
   158    47    48    1
   159    48    49    2
