@<TRIPOS>MOLECULE
tmp/5e92A00.pdb
 204 192 0 0 0
SMALL
GASTEIGER

@<TRIPOS>ATOM
      1  N         16.1360   -5.2800    0.5950 N.3    11  VAL11      -0.1231
      2  CA        15.7490   -3.8470    0.6660 C.3    11  VAL11       0.1692
      3  C         16.8040   -2.9610    1.3560 C.2    11  VAL11       0.2593
      4  O         16.8270   -1.7430    1.1500 O.2    11  VAL11      -0.2718
      5  CB        14.3440   -3.6120    1.2870 C.3    11  VAL11       0.0266
      6  CG1       13.2380   -4.1150    0.3630 C.3    11  VAL11       0.0020
      7  CG2       14.2250   -4.2320    2.6850 C.3    11  VAL11       0.0020
      8  N         17.6140   -3.5650    2.2150 N.am   12  GLY12      -0.1942
      9  CA        18.6370   -2.8350    2.9410 C.3    12  GLY12       0.2014
     10  C         19.8320   -3.6770    3.2970 C.2    12  GLY12       0.2639
     11  O         19.7220   -4.8920    3.4390 O.2    12  GLY12      -0.2714
     12  N         20.9820   -3.0290    3.3920 N.am   13  LYS13      -0.1963
     13  CA        22.2530   -3.6440    3.7340 C.3    13  LYS13       0.1728
     14  C         23.1160   -2.6050    4.4890 C.2    13  LYS13       0.2617
     15  O         23.6030   -1.6390    3.8900 O.2    13  LYS13      -0.2715
     16  CB        22.9730   -4.1480    2.4790 C.3    13  LYS13       0.0311
     17  CG        24.2900   -4.8810    2.7710 C.3    13  LYS13       0.0038
     18  CD        24.8000   -5.6510    1.5720 C.3    13  LYS13       0.0206
     19  CE        26.1930   -6.2180    1.7930 C.3    13  LYS13       0.1093
     20  NZ        26.2090   -7.3450    2.7700 N.3    13  LYS13      -0.1314
     21  N         23.2810   -2.8180    5.7870 N.am   14  GLY14      -0.1940
     22  CA        24.0950   -1.9400    6.6110 C.3    14  GLY14       0.2014
     23  C         25.4350   -2.5550    6.9390 C.2    14  GLY14       0.2639
     24  O         25.8790   -3.4840    6.2670 O.2    14  GLY14      -0.2714
     25  N         26.0840   -2.0520    7.9960 N.am   15  ARG15      -0.1963
     26  CA        27.3850   -2.5620    8.4240 C.3    15  ARG15       0.1729
     27  C         27.2770   -3.9220    9.1370 C.2    15  ARG15       0.2616
     28  O         28.2580   -4.6650    9.1460 O.2    15  ARG15      -0.2715
     29  CB        28.1100   -1.5280    9.3120 C.3    15  ARG15       0.0348
     30  CG        28.5950   -0.3010    8.5530 C.3    15  ARG15       0.0492
     31  CD        29.2340    0.7210    9.4960 C.3    15  ARG15       0.2205
     32  NE        28.2660    1.2990   10.4210 N.pl3  15  ARG15      -0.0865
     33  CZ        28.4570    2.4180   11.1100 C.cat  15  ARG15       0.5346
     34  NH1       29.5930    3.0940   10.9980 N.pl3  15  ARG15       0.1354
     35  NH2       27.4700    2.9010   11.8530 N.pl3  15  ARG15       0.1354
     36  N         26.0900   -4.2740    9.6750 N.am   16  PHE16      -0.1960
     37  CA        25.9160   -5.5080   10.4460 C.3    16  PHE16       0.1771
     38  C         24.9830   -6.5600    9.8210 C.2    16  PHE16       0.2619
     39  O         25.2820   -7.7530    9.9050 O.2    16  PHE16      -0.2715
     40  CB        25.4620   -5.1570   11.8870 C.3    16  PHE16       0.0574
     41  CG        26.4490   -4.2160   12.5610 C.ar   16  PHE16      -0.0200
     42  CD1       27.5620   -4.7130   13.2290 C.ar   16  PHE16      -0.0042
     43  CD2       26.3330   -2.8300   12.4120 C.ar   16  PHE16      -0.0042
     44  CE1       28.5220   -3.8490   13.7700 C.ar   16  PHE16      -0.0003
     45  CE2       27.2970   -1.9640   12.9480 C.ar   16  PHE16      -0.0003
     46  CZ        28.3720   -2.4810   13.6510 C.ar   16  PHE16      -0.0000
     47  N         23.8680   -6.1360    9.1970 N.am   17  ALA17      -0.1977
     48  CA        22.9090   -7.0740    8.6250 C.3    17  ALA17       0.1597
     49  C         22.4260   -6.7480    7.1970 C.2    17  ALA17       0.2287
     50  O         22.7610   -5.7080    6.6420 O.2    17  ALA17      -0.2864
     51  CB        21.7190   -7.1580    9.5430 C.3    17  ALA17       0.0319
     52  N         18.6120   -6.6860    5.1570 N.3    19  VAL19      -0.1245
     53  CA        17.1820   -6.6370    5.4590 C.3    19  VAL19       0.1561
     54  C         16.4330   -7.0460    4.2020 C.2    19  VAL19       0.2260
     55  O         16.7580   -6.5630    3.1240 O.2    19  VAL19      -0.2867
     56  CB        16.7280   -5.2540    6.0150 C.3    19  VAL19       0.0252
     57  CG1       15.2160   -5.2450    6.2810 C.3    19  VAL19       0.0019
     58  CG2       17.5040   -4.9040    7.3000 C.3    19  VAL19       0.0019
     59  N          9.4530   -7.6350    7.5780 N.3    30  ALA30      -0.1245
     60  CA        10.8610   -7.3530    7.2690 C.3    30  ALA30       0.1562
     61  C         11.6870   -8.3690    8.0530 C.2    30  ALA30       0.2260
     62  O         11.3470   -8.6620    9.1930 O.2    30  ALA30      -0.2867
     63  CB        11.2420   -5.9440    7.6990 C.3    30  ALA30       0.0290
     64  N         15.6340   -9.0130    9.2730 N.3    32  LYS32      -0.1245
     65  CA        17.0120   -8.5240    9.4140 C.3    32  LYS32       0.1561
     66  C         17.8630   -9.7640    9.7100 C.2    32  LYS32       0.2260
     67  O         17.6700  -10.4310   10.7340 O.2    32  LYS32      -0.2867
     68  CB        17.0990   -7.4570   10.5370 C.3    32  LYS32       0.0271
     69  CG        18.4320   -6.7160   10.5710 C.3    32  LYS32       0.0035
     70  CD        18.4520   -5.5630   11.5610 C.3    32  LYS32       0.0206
     71  CE        19.8110   -4.9050   11.5420 C.3    32  LYS32       0.1093
     72  NZ        19.8580   -3.6540   12.3390 N.3    32  LYS32      -0.1314
     73  N         20.3960   -5.7340   19.7390 N.3    45  GLU45      -0.1245
     74  CA        19.0910   -5.2820   19.2100 C.3    45  GLU45       0.1567
     75  C         17.9650   -6.0850   19.8020 C.2    45  GLU45       0.2260
     76  O         16.9480   -5.5070   20.1840 O.2    45  GLU45      -0.2867
     77  CB        18.9890   -5.3580   17.6680 C.3    45  GLU45       0.0388
     78  CG        20.2040   -4.8910   16.8940 C.3    45  GLU45       0.1160
     79  CD        20.0210   -4.3630   15.4800 C.2    45  GLU45       0.3649
     80  OE1       21.0280   -4.3510   14.7300 O.co2  45  GLU45      -0.2457
     81  OE2       18.9120   -3.8810   15.1460 O.co2  45  GLU45      -0.2457
     82  N         10.1770    0.9580   15.7710 N.3    60  LEU60      -0.1245
     83  CA         9.8600   -0.2070   14.9250 C.3    60  LEU60       0.1561
     84  C          9.2360   -1.3640   15.7360 C.2    60  LEU60       0.2260
     85  O          9.7900   -1.7730   16.7590 O.2    60  LEU60      -0.2867
     86  CB        11.1030   -0.6940   14.1700 C.3    60  LEU60       0.0270
     87  CG        10.9840   -1.9410   13.2800 C.3    60  LEU60       0.0019
     88  CD1        9.9520   -1.7340   12.1280 C.3    60  LEU60       0.0001
     89  CD2       12.3480   -2.3000   12.6900 C.3    60  LEU60       0.0001
     90  N         10.4130   -8.0720   11.9750 N.3    80  THR80      -0.1203
     91  CA         9.6790   -6.8640   12.3490 C.3    80  THR80       0.1994
     92  C          8.6120   -6.5190   11.3060 C.2    80  THR80       0.2618
     93  O          8.5640   -7.1320   10.2340 O.2    80  THR80      -0.2717
     94  CB        10.6620   -5.6770   12.4550 C.3    80  THR80       0.1784
     95  OG1       11.1590   -5.3540   11.1390 O.3    80  THR80      -0.2211
     96  CG2       11.8250   -5.9320   13.4460 C.3    80  THR80       0.0376
     97  N          7.8270   -5.4600   11.5950 N.am   81  ALA81      -0.1965
     98  CA         6.8410   -4.9080   10.6700 C.3    81  ALA81       0.1728
     99  C          7.6030   -4.3210    9.4730 C.2    81  ALA81       0.2616
    100  O          8.7190   -3.8130    9.6380 O.2    81  ALA81      -0.2715
    101  CB         6.0320   -3.8200   11.3650 C.3    81  ALA81       0.0334
    102  N          7.0620   -4.4850    8.2690 N.am   82  PHE82      -0.1960
    103  CA         7.6980   -3.9510    7.0710 C.3    82  PHE82       0.1771
    104  C          7.0920   -2.5760    6.7480 C.2    82  PHE82       0.2619
    105  O          5.8660   -2.4170    6.7830 O.2    82  PHE82      -0.2715
    106  CB         7.5630   -4.9250    5.8850 C.3    82  PHE82       0.0574
    107  CG         8.1430   -4.4300    4.5760 C.ar   82  PHE82      -0.0200
    108  CD1        9.5180   -4.3680    4.3850 C.ar   82  PHE82      -0.0042
    109  CD2        7.3130   -4.0360    3.5320 C.ar   82  PHE82      -0.0042
    110  CE1       10.0490   -3.8880    3.1880 C.ar   82  PHE82      -0.0003
    111  CE2        7.8490   -3.5760    2.3280 C.ar   82  PHE82      -0.0003
    112  CZ         9.2120   -3.4930    2.1690 C.ar   82  PHE82      -0.0000
    113  N          7.9510   -1.5750    6.4760 N.am   83  HIS83      -0.1973
    114  CA         7.4950   -0.2310    6.0820 C.3    83  HIS83       0.1656
    115  C          7.8500   -0.0110    4.6230 C.2    83  HIS83       0.2291
    116  O          9.0220    0.1540    4.2820 O.2    83  HIS83      -0.2864
    117  CB         8.0180    0.8450    7.0380 C.3    83  HIS83       0.0771
    118  CG         7.4310    0.6970    8.4040 C.ar   83  HIS83       0.0820
    119  ND1        6.0670    0.8570    8.6270 N.ar   83  HIS83      -0.2267
    120  CD2        8.0230    0.3260    9.5620 C.ar   83  HIS83       0.1154
    121  CE1        5.8860    0.6060    9.9150 C.ar   83  HIS83       0.1986
    122  NE2        7.0400    0.3160   10.5230 N.ar   83  HIS83      -0.2212
    123  N         10.1680    2.6610    3.0310 N.3    86  GLY86      -0.1210
    124  CA        11.5990    2.5390    3.3170 C.3    86  GLY86       0.1956
    125  C         12.1690    3.5820    4.2490 C.2    86  GLY86       0.2611
    126  O         11.4190    4.2460    4.9790 O.2    86  GLY86      -0.2717
    127  N         13.5180    3.7240    4.2410 N.am   87  ASN87      -0.1974
    128  CA        14.1920    4.6650    5.1450 C.3    87  ASN87       0.1688
    129  C         14.0070    6.1250    4.7130 C.2    87  ASN87       0.2292
    130  O         13.7740    6.4050    3.5300 O.2    87  ASN87      -0.2864
    131  CB        15.6660    4.2930    5.3840 C.3    87  ASN87       0.1181
    132  CG        16.6110    4.6500    4.2840 C.2    87  ASN87       0.2629
    133  OD1       16.7550    5.7990    3.9370 O.2    87  ASN87      -0.2716
    134  ND2       17.3960    3.6970    3.8230 N.am   87  ASN87      -0.0877
    135  N         16.2440    7.7390    1.7140 N.3    90  GLU90      -0.1245
    136  CA        15.7600    7.3390    0.3830 C.3    90  GLU90       0.1567
    137  C         14.4360    8.0580    0.0700 C.2    90  GLU90       0.2260
    138  O         14.2380    8.4980   -1.0570 O.2    90  GLU90      -0.2867
    139  CB        15.5900    5.8100    0.3020 C.3    90  GLU90       0.0388
    140  CG        16.9080    5.0520    0.2350 C.3    90  GLU90       0.1160
    141  CD        16.8700    3.5600    0.5310 C.2    90  GLU90       0.3649
    142  OE1       15.7970    3.0390    0.9200 O.co2  90  GLU90      -0.2457
    143  OE2       17.9360    2.9140    0.3980 O.co2  90  GLU90      -0.2457
    144  N         23.1730    5.9250   17.0200 N.3   134  ASP134     -0.1239
    145  CA        23.3870    5.9350   15.5720 C.3   134  ASP134      0.1674
    146  C         22.1880    6.5360   14.8630 C.2   134  ASP134      0.2266
    147  O         21.6980    5.9730   13.8820 O.2   134  ASP134     -0.2867
    148  CB        23.7610    4.5430   15.0370 C.3   134  ASP134      0.1410
    149  CG        24.2800    4.5100   13.6080 C.2   134  ASP134      0.3668
    150  OD1       24.9120    5.5080   13.1790 O.co2 134  ASP134     -0.2456
    151  OD2       24.1000    3.4690   12.9380 O.co2 134  ASP134     -0.2456
    152  N         20.3320    8.7480   12.3850 N.3   136  LYS136     -0.1245
    153  CA        20.6030    9.2370   11.0350 C.3   136  LYS136      0.1561
    154  C         19.3810    8.9090   10.2040 C.2   136  LYS136      0.2260
    155  O         18.5850    8.0730   10.6200 O.2   136  LYS136     -0.2867
    156  CB        21.8790    8.5990   10.4310 C.3   136  LYS136      0.0271
    157  CG        21.8990    7.0890   10.3680 C.3   136  LYS136      0.0035
    158  CD        23.2680    6.5860    9.8980 C.3   136  LYS136      0.0206
    159  CE        23.3350    5.0770    9.9300 C.3   136  LYS136      0.1093
    160  NZ        24.5270    4.5570    9.2170 N.3   136  LYS136     -0.1314
    161  N         19.0030    7.2170    7.4750 N.3   138  SER138     -0.1202
    162  CA        18.9170    5.8250    7.0390 C.3   138  SER138      0.2020
    163  C         18.4600    4.8520    8.1660 C.2   138  SER138      0.2618
    164  O         18.0700    3.7290    7.8590 O.2   138  SER138     -0.2717
    165  CB        20.2120    5.3550    6.3760 C.3   138  SER138      0.2103
    166  OG        21.2150    5.0930    7.3370 O.3   138  SER138     -0.2182
    167  N         18.4550    5.2870    9.4390 N.am  139  ASN139     -0.1974
    168  CA        17.9930    4.4720   10.5880 C.3   139  ASN139      0.1688
    169  C         16.5850    4.8960   11.0550 C.2   139  ASN139      0.2292
    170  O         16.1950    4.6750   12.2050 O.2   139  ASN139     -0.2864
    171  CB        19.0320    4.5250   11.7330 C.3   139  ASN139      0.1181
    172  CG        20.2040    3.6270   11.4670 C.2   139  ASN139      0.2629
    173  OD1       20.1890    2.8210   10.5260 O.2   139  ASN139     -0.2716
    174  ND2       21.2460    3.7000   12.2940 N.am  139  ASN139     -0.0877
    175  N         12.4770    4.8750    9.5730 N.3   141  LEU141     -0.1245
    176  CA        11.5810    4.3420    8.5690 C.3   141  LEU141      0.1561
    177  C         10.3580    5.2340    8.4320 C.2   141  LEU141      0.2260
    178  O          9.8700    5.7740    9.4250 O.2   141  LEU141     -0.2867
    179  CB        11.1700    2.9050    8.9410 C.3   141  LEU141      0.0270
    180  CG        12.3450    1.9130    9.0920 C.3   141  LEU141      0.0019
    181  CD1       11.8750    0.6370    9.6900 C.3   141  LEU141      0.0001
    182  CD2       13.1030    1.7280    7.7480 C.3   141  LEU141      0.0001
    183  N         14.5900    2.7000   13.8690 N.3   151  CYS151     -0.1221
    184  CA        14.9870    1.3180   13.6780 C.3   151  CYS151      0.1808
    185  C         16.5040    1.2400   13.9330 C.2   151  CYS151      0.2601
    186  O         17.1120    2.2690   14.2400 O.2   151  CYS151     -0.2717
    187  CB        14.5960    0.8070   12.2820 C.3   151  CYS151      0.0970
    188  SG        15.6800    1.3540   10.9350 S.3   151  CYS151     -0.0800
    189  N         17.0860    0.0340   13.8490 N.am  152  ASP152     -0.1973
    190  CA        18.5260   -0.2570   13.9820 C.3   152  ASP152      0.1709
    191  C         19.0790    0.0950   15.3830 C.2   152  ASP152      0.2293
    192  O         19.5870    1.2020   15.6040 O.2   152  ASP152     -0.2864
    193  CB        19.3000    0.4460   12.8690 C.3   152  ASP152      0.1436
    194  CG        20.7440    0.0290   12.7430 C.2   152  ASP152      0.3671
    195  OD1       21.2120   -0.7910   13.5810 O.co2 152  ASP152     -0.2456
    196  OD2       21.4070    0.5130   11.8170 O.co2 152  ASP152     -0.2456
    197  N         23.8430   -0.5710   17.8660 N.3   155  LEU155     -0.1245
    198  CA        24.9010    0.1690   18.5660 C.3   155  LEU155      0.1561
    199  C         24.3280    0.8580   19.7880 C.2   155  LEU155      0.2260
    200  O         25.0310    1.6020   20.4590 O.2   155  LEU155     -0.2867
    201  CB        25.5520    1.1960   17.6250 C.3   155  LEU155      0.0270
    202  CG        26.3640    0.6330   16.4400 C.3   155  LEU155      0.0019
    203  CD1       26.7080    1.7520   15.4340 C.3   155  LEU155      0.0001
    204  CD2       27.6630   -0.0600   16.9300 C.3   155  LEU155      0.0001
@<TRIPOS>BOND
     1   138   137    2
     2   137   136    1
     3   140   139    1
     4   140   141    1
     5   139   136    1
     6     6     5    1
     7   136   135    1
     8   143   141   ar
     9   141   142   ar
    10     1     2    1
    11     2     5    1
    12     2     3    1
    13     4     3    2
    14     5     7    1
    15     3     8   am
    16    18    19    1
    17    18    17    1
    18    19    20    1
    19   112   111   ar
    20   112   110   ar
    21     8     9    1
    22   111   109   ar
    23    16    17    1
    24    16    13    1
    25     9    10    1
    26   123   124    1
    27    55    54    2
    28   110   108   ar
    29    10    12   am
    30    10    11    2
    31   124   125    1
    32    12    13    1
    33   130   129    2
    34   109   107   ar
    35    13    14    1
    36   134   132   am
    37    15    14    2
    38   133   132    2
    39    54    53    1
    40   127   125   am
    41   127   128    1
    42   125   126    2
    43   116   115    2
    44   132   131    1
    45   108   107   ar
    46    14    21   am
    47   107   106    1
    48   115   114    1
    49   129   128    1
    50   128   131    1
    51    52    53    1
    52    53    56    1
    53    21    22    1
    54   106   103    1
    55    56    57    1
    56    56    58    1
    57   114   113    1
    58   114   117    1
    59    24    23    2
    60   165   162    1
    61   165   166    1
    62   113   104   am
    63    22    23    1
    64    50    49    2
    65   104   105    2
    66   104   103    1
    67    23    25   am
    68   117   118    1
    69   162   161    1
    70   162   163    1
    71   103   102    1
    72    49    48    1
    73    60    59    1
    74    60    63    1
    75    60    61    1
    76   182   180    1
    77   164   163    2
    78    25    26    1
    79    61    62    2
    80   163   167   am
    81   102    99   am
    82   118   119   ar
    83   118   120   ar
    84    26    27    1
    85    26    29    1
    86   177   176    1
    87   177   178    2
    88    30    29    1
    89    30    31    1
    90   176   179    1
    91   176   175    1
    92    48    47    1
    93    48    51    1
    94   119   121   ar
    95   179   180    1
    96   180   181    1
    97    27    28    2
    98    27    36   am
    99    47    38   am
   100   160   159    1
   101    64    65    1
   102    65    66    1
   103    65    68    1
   104   167   168    1
   105    99   100    2
   106    99    98    1
   107    31    32    1
   108   120   122   ar
   109    36    37    1
   110    66    67    2
   111    38    39    2
   112    38    37    1
   113   158   159    1
   114   158   157    1
   115   121   122   ar
   116   154   155    2
   117   154   153    1
   118    93    92    2
   119   157   156    1
   120    32    33    2
   121   156   153    1
   122    37    40    1
   123   173   172    2
   124    68    69    1
   125    69    70    1
   126   168   169    1
   127   168   171    1
   128    98   101    1
   129    98    97    1
   130   188   187    1
   131    34    33    1
   132   153   152    1
   133   169   170    2
   134    33    35    1
   135    95    94    1
   136    92    97   am
   137    92    91    1
   138   172   171    1
   139   172   174   am
   140    71    70    1
   141    71    72    1
   142   196   194   ar
   143    40    41    1
   144    90    91    1
   145    88    87    1
   146   187   184    1
   147    91    94    1
   148    43    41   ar
   149    43    45   ar
   150    94    96    1
   151    41    42   ar
   152    89    87    1
   153   194   193    1
   154   194   195   ar
   155   193   190    1
   156   151   149   ar
   157    45    46   ar
   158   150   149   ar
   159    42    44   ar
   160    87    86    1
   161   149   148    1
   162    46    44   ar
   163   184   183    1
   164   184   185    1
   165   189   185   am
   166   189   190    1
   167   147   146    2
   168   185   186    2
   169   190   191    1
   170    86    83    1
   171    80    79   ar
   172   146   145    1
   173    83    84    1
   174    83    82    1
   175   148   145    1
   176    81    79   ar
   177   191   192    2
   178   203   202    1
   179    79    78    1
   180   145   144    1
   181    84    85    2
   182   202   204    1
   183   202   201    1
   184    78    77    1
   185   201   198    1
   186    77    74    1
   187   197   198    1
   188   198   199    1
   189    74    73    1
   190    74    75    1
   191   199   200    2
   192    75    76    2
