@<TRIPOS>MOLECULE
tmp/5e93A00.pdb
 135 129 0 0 0
SMALL
GASTEIGER

@<TRIPOS>ATOM
      1  N        -15.6370   17.8980  -14.6680 N.3    44  LYS44      -0.1231
      2  CA       -14.2270   17.8980  -14.2710 C.3    44  LYS44       0.1693
      3  C        -14.0740   17.8590  -12.7470 C.2    44  LYS44       0.2593
      4  O        -14.8020   18.6080  -12.0490 O.2    44  LYS44      -0.2718
      5  CB       -13.6300   19.2250  -14.7960 C.3    44  LYS44       0.0285
      6  CG       -12.2650   19.6180  -14.2340 C.3    44  LYS44       0.0035
      7  CD       -11.2380   18.6660  -14.7250 C.3    44  LYS44       0.0206
      8  CE        -9.8810   18.8850  -13.9640 C.3    44  LYS44       0.1093
      9  NZ        -8.9090   17.7750  -14.4900 N.3    44  LYS44      -0.1314
     10  N        -13.1410   17.0670  -12.2550 N.am   45  SER45      -0.1938
     11  CA       -12.9090   17.0490  -10.7780 C.3    45  SER45       0.2055
     12  C        -12.6110   18.4590  -10.2940 C.2    45  SER45       0.2643
     13  O        -11.7870   19.1860  -10.8520 O.2    45  SER45      -0.2714
     14  CB       -11.7450   16.1500  -10.3610 C.3    45  SER45       0.2130
     15  OG       -12.1120   14.8080  -10.6540 O.3    45  SER45      -0.2179
     16  N        -13.2730   18.8480   -9.2010 N.am   46  CYS46      -0.1953
     17  CA       -13.1230   20.2190   -8.6650 C.3    46  CYS46       0.1843
     18  C        -12.6220   20.2190   -7.2560 C.2    46  CYS46       0.2626
     19  O        -12.7660   19.2940   -6.4800 O.2    46  CYS46      -0.2714
     20  CB       -14.4470   20.9360   -8.8000 C.3    46  CYS46       0.0997
     21  SG       -15.8130   20.3480   -7.9030 S.3    46  CYS46      -0.0797
     22  N        -11.9940   21.3670   -6.9090 N.am   47  THR47      -0.1950
     23  CA       -11.6460   21.7300   -5.5430 C.3    47  THR47       0.1897
     24  C        -12.6200   22.7580   -5.1180 C.2    47  THR47       0.2313
     25  O        -13.3560   23.3820   -5.8890 O.2    47  THR47      -0.2863
     26  CB       -10.1980   22.1920   -5.4910 C.3    47  THR47       0.1794
     27  OG1      -10.0000   23.2280   -6.4500 O.3    47  THR47      -0.2208
     28  CG2       -9.2220   21.0800   -5.8030 C.3    47  THR47       0.0378
     29  N         -0.5630   12.7300  -19.0190 N.3    68  ASN68      -0.1240
     30  CA        -1.0230   14.0360  -18.5540 C.3    68  ASN68       0.1653
     31  C         -0.6120   14.3130  -17.1090 C.2    68  ASN68       0.2266
     32  O         -0.5970   13.4070  -16.2770 O.2    68  ASN68      -0.2867
     33  CB        -2.5660   14.2370  -18.6600 C.3    68  ASN68       0.1155
     34  CG        -3.3670   13.7350  -17.4680 C.2    68  ASN68       0.2627
     35  OD1       -3.4610   14.4550  -16.4550 O.2    68  ASN68      -0.2716
     36  ND2       -3.8870   12.5470  -17.4980 N.am   68  ASN68      -0.0877
     37  N         -2.2820   17.2000  -15.5180 N.3    70  MET70      -0.1230
     38  CA        -3.1060   18.4060  -15.4740 C.3    70  MET70       0.1702
     39  C         -3.0580   19.1440  -14.1250 C.2    70  MET70       0.2593
     40  O         -2.9760   20.3600  -14.1420 O.2    70  MET70      -0.2718
     41  CB        -4.5520   18.0790  -15.8820 C.3    70  MET70       0.0401
     42  CG        -4.8450   17.4760  -17.1920 C.3    70  MET70       0.0596
     43  SD        -4.2240   18.4320  -18.5780 S.3    70  MET70      -0.1393
     44  CE        -5.3880   19.7370  -18.5070 C.3    70  MET70       0.0692
     45  N         -3.1380   18.3550  -13.0660 N.am   71  GLY71      -0.1942
     46  CA        -3.0070   18.9320  -11.7270 C.3    71  GLY71       0.2014
     47  C         -4.2440   19.6970  -11.3420 C.2    71  GLY71       0.2639
     48  O         -5.2830   19.3020  -11.7000 O.2    71  GLY71      -0.2714
     49  N         -4.1860   20.8070  -10.6640 N.am   72  LEU72      -0.1963
     50  CA        -5.4860   21.3330  -10.2240 C.3    72  LEU72       0.1713
     51  C         -6.7440   21.7630  -11.2460 C.2    72  LEU72       0.2458
     52  O         -7.8210   21.9850  -10.7160 O.2    72  LEU72      -0.2730
     53  CB        -5.3090   22.2390   -8.9740 C.3    72  LEU72       0.0310
     54  CG        -3.9590   22.3600   -8.1670 C.3    72  LEU72       0.0022
     55  CD1       -4.3150   22.9230   -6.7890 C.3    72  LEU72       0.0001
     56  CD2       -3.0480   21.2430   -7.8380 C.3    72  LEU72       0.0001
     57  N         -6.6900   21.7480  -12.6610 N.am   73  PRO73      -0.2716
     58  CA        -7.4200   22.8960  -13.0940 C.3    73  PRO73       0.1536
     59  C         -8.9130   22.8370  -13.2020 C.2    73  PRO73       0.2598
     60  O         -9.4320   21.9660  -13.9680 O.2    73  PRO73      -0.2715
     61  CB        -6.9470   23.0730  -14.6070 C.3    73  PRO73       0.0310
     62  CG        -6.5860   21.6670  -15.0470 C.3    73  PRO73       0.0237
     63  CD        -6.2860   20.8600  -13.8000 C.3    73  PRO73       0.0939
     64  N         -9.5960   23.7520  -12.5320 N.am   74  ASN74      -0.1973
     65  CA       -11.0150   23.6930  -12.5970 C.3    74  ASN74       0.1688
     66  C        -11.5360   25.0470  -12.1940 C.2    74  ASN74       0.2292
     67  O        -10.8590   25.7890  -11.5800 O.2    74  ASN74      -0.2864
     68  CB       -11.5070   22.5690  -11.6350 C.3    74  ASN74       0.1181
     69  CG       -11.3700   22.9230  -10.1440 C.2    74  ASN74       0.2629
     70  OD1      -12.2780   23.2770   -9.5690 O.2    74  ASN74      -0.2716
     71  ND2      -10.2140   22.8680   -9.6280 N.am   74  ASN74      -0.0877
     72  N        -12.6940   16.4340   -6.0140 N.3   100  SER100     -0.1217
     73  CA       -11.3860   15.9770   -5.6200 C.3   100  SER100      0.1889
     74  C        -10.7640   17.0170   -4.7110 C.2   100  SER100      0.2288
     75  O         -9.7610   17.6040   -5.0440 O.2   100  SER100     -0.2866
     76  CB       -10.5430   15.7000   -6.8500 C.3   100  SER100      0.2089
     77  OG        -9.4290   14.9260   -6.5150 O.3   100  SER100     -0.2183
     78  N         -8.4550   18.3300   -1.5850 N.3   102  LEU102     -0.1245
     79  CA        -7.0650   18.0380   -1.1770 C.3   102  LEU102      0.1561
     80  C         -6.9540   17.4790    0.2510 C.2   102  LEU102      0.2260
     81  O         -5.8600   17.2020    0.7090 O.2   102  LEU102     -0.2867
     82  CB        -6.2020   19.2690   -1.3270 C.3   102  LEU102      0.0270
     83  CG        -6.1950   19.8220   -2.7670 C.3   102  LEU102      0.0019
     84  CD1       -5.1840   20.9450   -2.8150 C.3   102  LEU102      0.0001
     85  CD2       -5.8480   18.7420   -3.7890 C.3   102  LEU102      0.0001
     86  N        -13.4260   11.4780   -6.2880 N.3   128  ASN128     -0.1240
     87  CA       -12.1650   11.0910   -6.8770 C.3   128  ASN128      0.1653
     88  C        -11.1020   10.8190   -5.7890 C.2   128  ASN128      0.2266
     89  O        -10.6370   11.7730   -5.1690 O.2   128  ASN128     -0.2867
     90  CB       -11.7150   12.2130   -7.8260 C.3   128  ASN128      0.1155
     91  CG       -10.4430   11.8910   -8.5890 C.2   128  ASN128      0.2627
     92  OD1       -9.8140   10.8140   -8.3670 O.2   128  ASN128     -0.2716
     93  ND2      -10.0410   12.7800   -9.4500 N.am  128  ASN128     -0.0877
     94  N         -6.3960   10.8610   -8.0700 N.3   131  CYS131     -0.1221
     95  CA        -5.5690   11.7670   -8.8860 C.3   131  CYS131      0.1794
     96  C         -4.0820   11.5100   -8.6660 C.2   131  CYS131      0.2443
     97  O         -3.6330   11.5720   -7.5310 O.2   131  CYS131     -0.2733
     98  CB        -5.9210   13.2080   -8.4900 C.3   131  CYS131      0.0970
     99  SG        -4.9560   14.4140   -9.5040 S.3   131  CYS131     -0.0800
    100  N         -3.3000   11.2850   -9.7230 N.am  132  PRO132     -0.2718
    101  CA        -1.8560   10.9950   -9.5670 C.3   132  PRO132      0.1535
    102  C         -0.9290   12.1900   -9.8260 C.2   132  PRO132      0.2599
    103  O          0.3310   12.0170   -9.9270 O.2   132  PRO132     -0.2715
    104  CB        -1.6410    9.8930  -10.6370 C.3   132  PRO132      0.0310
    105  CG        -2.4890   10.4050  -11.8560 C.3   132  PRO132      0.0237
    106  CD        -3.7290   11.0610  -11.1440 C.3   132  PRO132      0.0939
    107  N         -1.5300   13.3800   -9.9580 N.am  133  ASN133     -0.1959
    108  CA        -0.7930   14.5700  -10.3860 C.3   133  ASN133      0.1819
    109  C         -0.6830   15.7990   -9.5190 C.2   133  ASN133      0.2621
    110  O         -0.2840   16.8310   -9.9640 O.2   133  ASN133     -0.2715
    111  CB        -1.3160   15.0140  -11.7440 C.3   133  ASN133      0.1195
    112  CG        -1.1420   13.9650  -12.7880 C.2   133  ASN133      0.2630
    113  OD1       -0.0790   13.3740  -12.8880 O.2   133  ASN133     -0.2716
    114  ND2       -2.1490   13.7830  -13.5620 N.am  133  ASN133     -0.0877
    115  N         -1.0630   15.6400   -8.2880 N.am  134  VAL134     -0.1977
    116  CA        -0.8810   16.7390   -7.2840 C.3   134  VAL134      0.1596
    117  C          0.4010   16.4690   -6.4260 C.2   134  VAL134      0.2287
    118  O          0.3870   15.5710   -5.6420 O.2   134  VAL134     -0.2864
    119  CB        -2.1510   16.9230   -6.4710 C.3   134  VAL134      0.0276
    120  CG1       -1.9710   18.0770   -5.4230 C.3   134  VAL134      0.0022
    121  CG2       -3.3210   17.2180   -7.4020 C.3   134  VAL134      0.0022
    122  N         -8.9290    5.3740  -12.9470 N.3   195  ASN195     -0.1225
    123  CA        -8.1620    6.5690  -13.2560 C.3   195  ASN195      0.1785
    124  C         -6.9240    6.1870  -14.0050 C.2   195  ASN195      0.2597
    125  O         -6.6010    5.0060  -14.2230 O.2   195  ASN195     -0.2718
    126  CB        -7.8890    7.3250  -11.9360 C.3   195  ASN195      0.1169
    127  CG        -7.8390    8.8260  -12.1040 C.2   195  ASN195      0.2627
    128  OD1       -7.3190    9.3440  -13.1040 O.2   195  ASN195     -0.2716
    129  ND2       -8.3720    9.5790  -11.1610 N.am  195  ASN195     -0.0877
    130  N         -6.1660    7.2140  -14.4330 N.am  196  SER196     -0.1952
    131  CA        -4.8910    7.0010  -15.1410 C.3   196  SER196      0.1924
    132  C         -3.9400    6.1770  -14.4400 C.2   196  SER196      0.2314
    133  O         -3.9050    6.1470  -13.1840 O.2   196  SER196     -0.2863
    134  CB        -4.1520    8.2980  -15.1410 C.3   196  SER196      0.2116
    135  OG        -4.9040    9.1920  -15.8450 O.3   196  SER196     -0.2180
@<TRIPOS>BOND
     1    29    30    1
     2    33    30    1
     3    33    34    1
     4    43    44    1
     5    43    42    1
     6    30    31    1
     7    36    34   am
     8    34    35    2
     9    42    41    1
    10    31    32    2
    11    41    38    1
    12   135   134    1
    13    37    38    1
    14    38    39    1
    15   131   134    1
    16   131   132    1
    17   131   130    1
    18    62    61    1
    19    62    63    1
    20     5     2    1
    21     5     6    1
    22     7     6    1
    23     7     8    1
    24     1     2    1
    25    61    58    1
    26     9     8    1
    27   132   133    2
    28   130   124   am
    29     2     3    1
    30   125   124    2
    31    40    39    2
    32    39    45   am
    33   124   123    1
    34    60    59    2
    35    63    57    1
    36   114   112   am
    37   123   122    1
    38   123   126    1
    39    59    58    1
    40    59    64   am
    41   128   127    2
    42    58    57    1
    43    45    46    1
    44   113   112    2
    45   112   111    1
    46     3    10   am
    47     3     4    2
    48    57    51   am
    49    65    64    1
    50    65    66    1
    51    65    68    1
    52    10    11    1
    53    66    67    2
    54   127   126    1
    55   127   129   am
    56   105   106    1
    57   105   104    1
    58   111   108    1
    59    46    47    1
    60    48    47    2
    61    68    69    1
    62    47    49   am
    63    51    52    2
    64    51    50    1
    65   106   100    1
    66    13    12    2
    67    11    14    1
    68    11    12    1
    69    49    50    1
    70    15    14    1
    71   104   101    1
    72   108   107    1
    73   108   109    1
    74    12    16   am
    75    50    53    1
    76    69    71   am
    77    69    70    2
    78   110   109    2
    79   107   102   am
    80   103   102    2
    81   102   101    1
    82   100   101    1
    83   100    96   am
    84   109   115   am
    85    99    98    1
    86    93    91   am
    87    16    17    1
    88    53    54    1
    89    95    96    1
    90    95    98    1
    91    95    94    1
    92    20    17    1
    93    20    21    1
    94    96    97    2
    95    17    18    1
    96    91    92    2
    97    91    90    1
    98   115   116    1
    99    54    56    1
   100    54    55    1
   101    90    87    1
   102   121   119    1
   103   116   119    1
   104   116   117    1
   105    18    22   am
   106    18    19    2
   107    22    23    1
   108    87    86    1
   109    87    88    1
   110    76    77    1
   111    76    73    1
   112   119   120    1
   113    27    26    1
   114   117   118    2
   115    72    73    1
   116    25    24    2
   117    28    26    1
   118    88    89    2
   119    73    74    1
   120    23    26    1
   121    23    24    1
   122    75    74    2
   123    85    83    1
   124    84    83    1
   125    83    82    1
   126    78    79    1
   127    82    79    1
   128    79    80    1
   129    80    81    2
