@<TRIPOS>MOLECULE
tmp/5e93B02.pdb
 72 70 0 0 0
SMALL
GASTEIGER

@<TRIPOS>ATOM
      1  N         13.9050  -17.1480  -22.5280 N.3    23  LEU23      -0.1245
      2  CA        15.0250  -17.8190  -23.1440 C.3    23  LEU23       0.1561
      3  C         16.1480  -18.1030  -22.1900 C.2    23  LEU23       0.2260
      4  O         17.3050  -17.9110  -22.4640 O.2    23  LEU23      -0.2867
      5  CB        15.5270  -17.0870  -24.4180 C.3    23  LEU23       0.0270
      6  CG        16.3930  -17.8390  -25.3780 C.3    23  LEU23       0.0019
      7  CD1       15.8100  -19.1430  -25.9230 C.3    23  LEU23       0.0001
      8  CD2       16.8280  -16.9520  -26.5740 C.3    23  LEU23       0.0001
      9  N         21.9480  -20.9750  -25.9300 N.3    32  CYS32      -0.1235
     10  CA        21.5120  -20.1800  -27.0490 C.3    32  CYS32       0.1677
     11  C         21.7230  -18.7000  -26.7090 C.2    32  CYS32       0.2270
     12  O         22.2590  -17.9440  -27.4960 O.2    32  CYS32      -0.2867
     13  CB        20.0390  -20.4700  -27.2780 C.3    32  CYS32       0.0956
     14  SG        19.2310  -19.4750  -28.5630 S.3    32  CYS32      -0.0801
     15  N         11.9890  -10.3490  -27.2000 N.3   275  LEU275     -0.1231
     16  CA        12.8780  -11.5070  -27.4250 C.3   275  LEU275      0.1693
     17  C         12.1210  -12.8290  -27.4430 C.2   275  LEU275      0.2592
     18  O         12.3750  -13.6900  -28.3080 O.2   275  LEU275     -0.2718
     19  CB        13.9300  -11.5670  -26.2520 C.3   275  LEU275      0.0284
     20  CG        14.7580  -12.8350  -26.1750 C.3   275  LEU275      0.0019
     21  CD1       15.6480  -13.0420  -27.3880 C.3   275  LEU275      0.0001
     22  CD2       15.6310  -12.7550  -24.8920 C.3   275  LEU275      0.0001
     23  N         11.1030  -12.9360  -26.6220 N.am  276  GLN276     -0.1966
     24  CA        10.2460  -14.1010  -26.6950 C.3   276  GLN276      0.1733
     25  C          9.5990  -14.2390  -28.0730 C.2   276  GLN276      0.2616
     26  O          9.4830  -15.3190  -28.6340 O.2   276  GLN276     -0.2715
     27  CB         9.1830  -14.0210  -25.5820 C.3   276  GLN276      0.0408
     28  CG         8.2180  -15.2260  -25.5550 C.3   276  GLN276      0.0908
     29  CD         8.8470  -16.5630  -25.4010 C.2   276  GLN276      0.2608
     30  OE1        8.3060  -17.5650  -25.9480 O.2   276  GLN276     -0.2717
     31  NE2        9.7780  -16.6090  -24.5490 N.am  276  GLN276     -0.0878
     32  N          9.2090  -13.1150  -28.6520 N.am  277  GLU277     -0.1963
     33  CA         8.5230  -13.1130  -29.9470 C.3   277  GLU277      0.1733
     34  C          9.4240  -13.1950  -31.1110 C.2   277  GLU277      0.2616
     35  O          9.0870  -13.9600  -32.0420 O.2   277  GLU277     -0.2715
     36  CB         7.6020  -11.8940  -30.0090 C.3   277  GLU277      0.0429
     37  CG         6.4190  -11.9420  -29.0200 C.3   277  GLU277      0.1163
     38  CD         5.6940  -13.2930  -29.0080 C.2   277  GLU277      0.3649
     39  OE1        5.1440  -13.5960  -30.1380 O.co2 277  GLU277     -0.2457
     40  OE2        5.7510  -14.0820  -28.0510 O.co2 277  GLU277     -0.2457
     41  N         10.5640  -12.5290  -31.1040 N.am  278  GLU278     -0.1963
     42  CA        11.4440  -12.5030  -32.2420 C.3   278  GLU278      0.1733
     43  C         12.6230  -13.4960  -32.2320 C.2   278  GLU278      0.2617
     44  O         13.1340  -13.8480  -33.2550 O.2   278  GLU278     -0.2715
     45  CB        11.9860  -11.0630  -32.3500 C.3   278  GLU278      0.0429
     46  CG        12.8220  -10.7670  -33.5810 C.3   278  GLU278      0.1163
     47  CD        13.1370   -9.3020  -33.7290 C.2   278  GLU278      0.3649
     48  OE1       12.3760   -8.4830  -33.2940 O.co2 278  GLU278     -0.2457
     49  OE2       14.1370   -8.9900  -34.3380 O.co2 278  GLU278     -0.2457
     50  N         13.0100  -13.9360  -31.0520 N.am  279  GLY279     -0.1941
     51  CA        14.1770  -14.7410  -30.9180 C.3   279  GLY279      0.1998
     52  C         15.4400  -13.9810  -30.8090 C.2   279  GLY279      0.2481
     53  O         15.4660  -12.7660  -30.9060 O.2   279  GLY279     -0.2729
     54  N         16.5380  -14.7210  -30.6280 N.am  280  PRO280     -0.2715
     55  CA        17.8050  -14.1170  -30.2180 C.3   280  PRO280      0.1536
     56  C         18.4870  -13.3020  -31.3110 C.2   280  PRO280      0.2599
     57  O         19.3940  -12.4930  -31.0310 O.2   280  PRO280     -0.2715
     58  CB        18.6610  -15.2900  -29.7720 C.3   280  PRO280      0.0310
     59  CG        18.1520  -16.4570  -30.5550 C.3   280  PRO280      0.0237
     60  CD        16.6420  -16.1930  -30.5030 C.3   280  PRO280      0.0939
     61  N         18.0220  -13.3890  -32.5610 N.am  281  GLY281     -0.1941
     62  CA        18.4680  -12.5200  -33.5920 C.3   281  GLY281      0.2014
     63  C         18.1680  -11.0510  -33.2730 C.2   281  GLY281      0.2638
     64  O         18.8160  -10.0940  -33.7880 O.2   281  GLY281     -0.2714
     65  N         17.1960  -10.8210  -32.3620 N.am  282  ILE282     -0.1977
     66  CA        16.8930   -9.4240  -32.0040 C.3   282  ILE282      0.1596
     67  C         18.1290   -8.6840  -31.5370 C.2   282  ILE282      0.2287
     68  O         18.2000   -7.4390  -31.7380 O.2   282  ILE282     -0.2864
     69  CB        15.7490   -9.3480  -30.9230 C.3   282  ILE282      0.0276
     70  CG1       15.1620   -7.9700  -30.8710 C.3   282  ILE282      0.0022
     71  CG2       16.2000   -9.8870  -29.5750 C.3   282  ILE282      0.0022
     72  CD1       13.8970   -7.8430  -30.0430 C.3   282  ILE282      0.0001
@<TRIPOS>BOND
     1    49    47   ar
     2    64    63    2
     3    47    46    1
     4    47    48   ar
     5    62    63    1
     6    62    61    1
     7    46    45    1
     8    63    65   am
     9    44    43    2
    10    61    56   am
    11    65    66    1
    12    45    42    1
    13    42    43    1
    14    42    41    1
    15    43    50   am
    16    35    34    2
    17    66    67    1
    18    66    69    1
    19    68    67    2
    20    56    57    2
    21    56    55    1
    22    34    41   am
    23    34    33    1
    24    50    51    1
    25    69    70    1
    26    69    71    1
    27    51    52    1
    28    53    52    2
    29    70    72    1
    30    52    54   am
    31    54    60    1
    32    54    55    1
    33    59    60    1
    34    59    58    1
    35    55    58    1
    36    39    38   ar
    37    36    33    1
    38    36    37    1
    39    33    32    1
    40    37    38    1
    41    38    40   ar
    42    32    25   am
    43    26    25    2
    44    14    13    1
    45    18    17    2
    46    25    24    1
    47    12    11    2
    48    17    16    1
    49    17    23   am
    50    16    15    1
    51    16    19    1
    52    21    20    1
    53    13    10    1
    54    10    11    1
    55    10     9    1
    56    24    23    1
    57    24    27    1
    58     8     6    1
    59    19    20    1
    60    20    22    1
    61    30    29    2
    62     7     6    1
    63    27    28    1
    64    28    29    1
    65    29    31   am
    66     6     5    1
    67     5     2    1
    68     2     1    1
    69     2     3    1
    70     4     3    2
