@<TRIPOS>MOLECULE
tmp/5e97A03.pdb
 71 67 0 0 0
SMALL
GASTEIGER

@<TRIPOS>ATOM
      1  N        -26.7940   19.8240   49.6300 N.3     2  PHE2       -0.1241
      2  CA       -25.5470   19.6870   48.8630 C.3     2  PHE2        0.1605
      3  C        -25.7090   19.6320   47.3310 C.2     2  PHE2        0.2264
      4  O        -26.3880   18.7550   46.7900 O.2     2  PHE2       -0.2867
      5  CB       -24.7340   18.5070   49.4030 C.3     2  PHE2        0.0534
      6  CG       -24.1610   18.7690   50.7730 C.ar    2  PHE2       -0.0203
      7  CD1      -24.9150   18.5040   51.9210 C.ar    2  PHE2       -0.0042
      8  CD2      -22.8840   19.3350   50.9170 C.ar    2  PHE2       -0.0042
      9  CE1      -24.3960   18.7730   53.1850 C.ar    2  PHE2       -0.0003
     10  CE2      -22.3630   19.6100   52.1780 C.ar    2  PHE2       -0.0003
     11  CZ       -23.1190   19.3270   53.3130 C.ar    2  PHE2       -0.0000
     12  N        -22.1810   22.7160   67.7460 N.3   145  ARG145     -0.1245
     13  CA       -23.1520   23.7520   68.0870 C.3   145  ARG145      0.1563
     14  C        -23.5330   23.8010   69.5540 C.2   145  ARG145      0.2260
     15  O        -23.7830   24.8970   70.1000 O.2   145  ARG145     -0.2867
     16  CB       -24.3760   23.5960   67.1930 C.3   145  ARG145      0.0307
     17  CG       -24.0440   23.9760   65.7700 C.3   145  ARG145      0.0489
     18  CD       -25.1940   23.7910   64.7920 C.3   145  ARG145      0.2205
     19  NE       -24.6660   23.7010   63.4200 N.pl3 145  ARG145     -0.0865
     20  CZ       -24.9110   22.7260   62.5380 C.cat 145  ARG145      0.5346
     21  NH1      -24.3350   22.7770   61.3320 N.pl3 145  ARG145      0.1354
     22  NH2      -25.7120   21.6960   62.8310 N.pl3 145  ARG145      0.1354
     23  N        -19.9980   20.0150   62.7510 N.3   191  GLY191     -0.1210
     24  CA       -20.5450   21.3270   62.4300 C.3   191  GLY191      0.1956
     25  C        -19.4530   22.3640   62.3210 C.2   191  GLY191      0.2612
     26  O        -19.6550   23.5000   62.6570 O.2   191  GLY191     -0.2717
     27  N        -18.2600   21.9420   61.9400 N.am  192  GLY192     -0.1956
     28  CA       -17.1030   22.8210   61.8750 C.3   192  GLY192      0.1869
     29  C        -16.3370   23.0440   63.1550 C.2   192  GLY192      0.2309
     30  O        -15.3730   23.8070   63.1390 O.2   192  GLY192     -0.2863
     31  N         -8.9640   16.1680   61.1950 N.3   225  GLN225     -0.1231
     32  CA        -9.8060   17.2180   60.6220 C.3   225  GLN225      0.1698
     33  C         -9.6010   18.4770   61.4670 C.2   225  GLN225      0.2592
     34  O         -9.9020   18.4670   62.6610 O.2   225  GLN225     -0.2718
     35  CB       -11.2770   16.7700   60.6050 C.3   225  GLN225      0.0381
     36  CG       -12.2680   17.8150   60.0900 C.3   225  GLN225      0.0905
     37  CD       -12.4010   17.7530   58.5810 C.2   225  GLN225      0.2608
     38  OE1      -11.6260   17.0780   57.8830 O.2   225  GLN225     -0.2717
     39  NE2      -13.4410   18.4220   58.0630 N.am  225  GLN225     -0.0878
     40  N         -9.0120   19.5590   60.9300 N.am  226  VAL226     -0.1980
     41  CA        -8.4780   19.7500   59.5710 C.3   226  VAL226      0.1595
     42  C         -7.1520   20.5110   59.7240 C.2   226  VAL226      0.2287
     43  O         -6.9450   21.1810   60.7610 O.2   226  VAL226     -0.2864
     44  CB        -9.5200   20.5380   58.7300 C.3   226  VAL226      0.0276
     45  CG1       -9.6540   21.9740   59.1870 C.3   226  VAL226      0.0022
     46  CG2       -9.2470   20.3920   57.2450 C.3   226  VAL226      0.0022
     47  N         -8.6840   25.2790   57.0770 N.3   229  GLY229     -0.1210
     48  CA        -9.9670   25.4640   56.4240 C.3   229  GLY229      0.1956
     49  C        -11.0790   25.9990   57.2950 C.2   229  GLY229      0.2612
     50  O        -10.8330   26.5050   58.4140 O.2   229  GLY229     -0.2717
     51  N        -12.2990   25.8750   56.7850 N.am  230  ALA230     -0.1965
     52  CA       -13.5240   26.4260   57.4070 C.3   230  ALA230      0.1728
     53  C        -13.7950   25.7780   58.7250 C.2   230  ALA230      0.2616
     54  O        -13.4250   24.6080   58.9640 O.2   230  ALA230     -0.2715
     55  CB       -14.7210   26.2320   56.4910 C.3   230  ALA230      0.0334
     56  N        -14.3770   26.5360   59.6320 N.am  231  GLY231     -0.1955
     57  CA       -14.6570   26.0530   60.9780 C.3   231  GLY231      0.1869
     58  C        -13.5890   26.5460   61.9330 C.2   231  GLY231      0.2309
     59  O        -12.8410   27.4790   61.6340 O.2   231  GLY231     -0.2863
     60  N        -11.9010   23.8240   64.0650 N.3   233  TYR233     -0.1241
     61  CA       -11.0940   22.6790   64.4850 C.3   233  TYR233      0.1605
     62  C         -9.8310   22.5930   63.6810 C.2   233  TYR233      0.2264
     63  O         -9.0720   21.6490   63.7910 O.2   233  TYR233     -0.2867
     64  CB       -11.9080   21.3660   64.4660 C.3   233  TYR233      0.0534
     65  CG       -12.7500   21.0830   63.2530 C.ar  233  TYR233     -0.0201
     66  CD1      -12.4070   21.5220   61.9860 C.ar  233  TYR233     -0.0009
     67  CD2      -13.9310   20.3520   63.3840 C.ar  233  TYR233     -0.0009
     68  CE1      -13.2020   21.2040   60.8890 C.ar  233  TYR233      0.0417
     69  CE2      -14.6940   20.0150   62.2970 C.ar  233  TYR233      0.0417
     70  CZ       -14.3290   20.4750   61.0550 C.ar  233  TYR233      0.1957
     71  OH       -15.0760   20.2310   59.9600 O.3   233  TYR233     -0.2866
@<TRIPOS>BOND
     1     4     3    2
     2     3     2    1
     3     2     5    1
     4     2     1    1
     5     5     6    1
     6     6     8   ar
     7     6     7   ar
     8     8    10   ar
     9     7     9   ar
    10    10    11   ar
    11     9    11   ar
    12    48    47    1
    13    48    49    1
    14    55    52    1
    15    51    49   am
    16    51    52    1
    17    46    44    1
    18    49    50    2
    19    52    53    1
    20    38    37    2
    21    39    37   am
    22    37    36    1
    23    53    54    2
    24    53    56   am
    25    44    45    1
    26    44    41    1
    27    41    42    1
    28    41    40    1
    29    56    57    1
    30    42    43    2
    31    71    70    1
    32    36    35    1
    33    35    32    1
    34    32    31    1
    35    32    33    1
    36    68    70   ar
    37    68    66   ar
    38    40    33   am
    39    57    58    1
    40    70    69   ar
    41    21    20    1
    42    33    34    2
    43    59    58    2
    44    28    27    1
    45    28    29    1
    46    27    25   am
    47    66    65   ar
    48    69    67   ar
    49    25    24    1
    50    25    26    2
    51    24    23    1
    52    20    22    1
    53    20    19    2
    54    30    29    2
    55    65    67   ar
    56    65    64    1
    57    19    18    1
    58    62    63    2
    59    62    61    1
    60    60    61    1
    61    64    61    1
    62    18    17    1
    63    17    16    1
    64    16    13    1
    65    12    13    1
    66    13    14    1
    67    14    15    2
