@<TRIPOS>MOLECULE
tmp/5e98A05.pdb
 94 89 0 0 0
SMALL
GASTEIGER

@<TRIPOS>ATOM
      1  N        -17.6210    9.3900   50.6620 N.3    66  ASN66      -0.1225
      2  CA       -17.4410    9.8520   52.0220 C.3    66  ASN66       0.1785
      3  C        -18.7440    9.6380   52.7550 C.2    66  ASN66       0.2597
      4  O        -19.7830   10.1030   52.2940 O.2    66  ASN66      -0.2718
      5  CB       -17.1040   11.3230   52.0160 C.3    66  ASN66       0.1169
      6  CG       -16.9160   11.8960   53.4100 C.2    66  ASN66       0.2627
      7  OD1      -15.8340   11.8600   53.9270 O.2    66  ASN66      -0.2716
      8  ND2      -17.9340   12.5050   53.9510 N.am   66  ASN66      -0.0877
      9  N        -18.6800    8.9620   53.9140 N.am   67  GLU67      -0.1979
     10  CA       -19.8440    8.6790   54.7090 C.3    67  GLU67       0.1602
     11  C        -21.0090    8.1410   53.8520 C.2    67  GLU67       0.2287
     12  O        -22.1210    8.6930   53.8810 O.2    67  GLU67      -0.2864
     13  CB       -20.1750    9.8700   55.6440 C.3    67  GLU67       0.0415
     14  CG       -19.0170   10.1090   56.6850 C.3    67  GLU67       0.1163
     15  CD       -18.9200   11.5140   57.3360 C.2    67  GLU67       0.3649
     16  OE1      -19.8700   12.2890   57.1100 O.co2  67  GLU67      -0.2457
     17  OE2      -17.8860   11.8650   58.0740 O.co2  67  GLU67      -0.2457
     18  N        -22.8920    5.7920   54.5080 N.3    69  ASN69      -0.1225
     19  CA       -24.0120    5.5630   55.4170 C.3    69  ASN69       0.1785
     20  C        -25.1020    6.6490   55.3990 C.2    69  ASN69       0.2597
     21  O        -26.2610    6.3560   55.7590 O.2    69  ASN69      -0.2718
     22  CB       -23.5140    5.3110   56.8550 C.3    69  ASN69       0.1169
     23  CG       -22.4840    6.3480   57.3010 C.2    69  ASN69       0.2627
     24  OD1      -21.3330    6.2780   56.8670 O.2    69  ASN69      -0.2716
     25  ND2      -22.9100    7.3460   58.0680 N.am   69  ASN69      -0.0877
     26  N        -24.7300    7.8570   54.9760 N.am   70  SER70      -0.1952
     27  CA       -25.6310    9.0140   54.9270 C.3    70  SER70       0.1924
     28  C        -26.0410    9.4630   53.5180 C.2    70  SER70       0.2314
     29  O        -26.5820   10.5600   53.3560 O.2    70  SER70      -0.2863
     30  CB       -24.9480   10.1730   55.6420 C.3    70  SER70       0.2116
     31  OG       -24.6800    9.7980   56.9800 O.3    70  SER70      -0.2180
     32  N        -19.1160    6.7780   62.4390 N.3   112  GLN112     -0.1245
     33  CA       -18.8890    5.9840   63.6240 C.3   112  GLN112      0.1566
     34  C        -19.9650    4.8690   63.7310 C.2   112  GLN112      0.2260
     35  O        -21.0540    5.0020   63.2000 O.2   112  GLN112     -0.2867
     36  CB       -18.7720    6.8580   64.8760 C.3   112  GLN112      0.0367
     37  CG       -19.8460    7.9100   65.1030 C.3   112  GLN112      0.0905
     38  CD       -19.2580    9.1690   65.7700 C.2   112  GLN112      0.2608
     39  OE1      -19.2880    9.2800   66.9990 O.2   112  GLN112     -0.2717
     40  NE2      -18.6990   10.1090   64.9490 N.am  112  GLN112     -0.0878
     41  N        -22.6300    3.0600   64.6210 N.3   114  ARG114     -0.1245
     42  CA       -24.0080    2.7560   65.0270 C.3   114  ARG114      0.1563
     43  C        -24.5160    1.5480   64.2300 C.2   114  ARG114      0.2260
     44  O        -23.9120    1.1380   63.2460 O.2   114  ARG114     -0.2867
     45  CB       -24.9290    3.9380   64.7220 C.3   114  ARG114      0.0307
     46  CG       -24.4660    5.3090   65.2380 C.3   114  ARG114      0.0489
     47  CD       -24.7840    6.3980   64.2190 C.3   114  ARG114      0.2205
     48  NE       -26.2260    6.6420   64.1170 N.pl3 114  ARG114     -0.0865
     49  CZ       -26.8000    7.5500   63.3210 C.cat 114  ARG114      0.5346
     50  NH1      -28.1260    7.6880   63.3250 N.pl3 114  ARG114      0.1354
     51  NH2      -26.0640    8.3240   62.5200 N.pl3 114  ARG114      0.1354
     52  N        -14.7370    7.2950   60.4310 N.3   138  HIS138     -0.1241
     53  CA       -14.6810    8.6510   60.9340 C.3   138  HIS138      0.1621
     54  C        -15.2270    8.7530   62.3390 C.2   138  HIS138      0.2264
     55  O        -16.0870    7.9980   62.7270 O.2   138  HIS138     -0.2867
     56  CB       -15.4950    9.5900   60.0590 C.3   138  HIS138      0.0745
     57  CG       -15.0660    9.6350   58.6370 C.ar  138  HIS138      0.0817
     58  ND1      -15.7400   10.4060   57.7050 N.ar  138  HIS138     -0.2268
     59  CD2      -14.0580    9.0360   57.9670 C.ar  138  HIS138      0.1154
     60  CE1      -15.1480   10.2850   56.5370 C.ar  138  HIS138      0.1986
     61  NE2      -14.1170    9.4770   56.6650 N.ar  138  HIS138     -0.2212
     62  N        -16.2590   11.9060   65.4610 N.3   140  TYR140     -0.1241
     63  CA       -16.3210   13.1950   66.1440 C.3   140  TYR140      0.1605
     64  C        -17.0060   12.9680   67.4780 C.2   140  TYR140      0.2264
     65  O        -17.8990   12.1210   67.5810 O.2   140  TYR140     -0.2867
     66  CB       -17.1670   14.1430   65.2960 C.3   140  TYR140      0.0534
     67  CG       -16.5880   14.5640   63.9770 C.ar  140  TYR140     -0.0201
     68  CD1      -16.6640   13.7680   62.8640 C.ar  140  TYR140     -0.0009
     69  CD2      -15.9390   15.7940   63.8490 C.ar  140  TYR140     -0.0009
     70  CE1      -16.1390   14.1680   61.6570 C.ar  140  TYR140      0.0417
     71  CE2      -15.4180   16.2020   62.6350 C.ar  140  TYR140      0.0417
     72  CZ       -15.4930   15.3680   61.5580 C.ar  140  TYR140      0.1957
     73  OH       -15.0040   15.7430   60.3150 O.3   140  TYR140     -0.2866
     74  N        -10.9670   10.5390   59.0910 N.3   185  GLU185     -0.1245
     75  CA       -11.3410   11.9120   59.2740 C.3   185  GLU185      0.1567
     76  C        -11.8310   11.9780   60.7370 C.2   185  GLU185      0.2260
     77  O        -12.7410   11.2450   61.1290 O.2   185  GLU185     -0.2867
     78  CB       -12.4820   12.2970   58.3100 C.3   185  GLU185      0.0388
     79  CG       -13.0340   13.7200   58.4430 C.3   185  GLU185      0.1160
     80  CD       -14.3340   13.9260   57.6290 C.2   185  GLU185      0.3649
     81  OE1      -14.4180   13.5210   56.4510 O.co2 185  GLU185     -0.2457
     82  OE2      -15.3000   14.4860   58.1560 O.co2 185  GLU185     -0.2457
     83  N        -18.3440   18.1570   65.1130 N.3   190  TYR190     -0.1241
     84  CA       -18.7650   18.3760   63.7240 C.3   190  TYR190      0.1605
     85  C        -19.5900   19.6620   63.6220 C.2   190  TYR190      0.2264
     86  O        -19.6540   20.4180   64.5580 O.2   190  TYR190     -0.2867
     87  CB       -19.4550   17.1450   63.1170 C.3   190  TYR190      0.0534
     88  CG       -20.7040   16.7510   63.8200 C.ar  190  TYR190     -0.0201
     89  CD1      -21.9280   17.3220   63.4590 C.ar  190  TYR190     -0.0009
     90  CD2      -20.6960   15.8060   64.8570 C.ar  190  TYR190     -0.0009
     91  CE1      -23.0990   16.9710   64.1080 C.ar  190  TYR190      0.0417
     92  CE2      -21.8690   15.4470   65.5050 C.ar  190  TYR190      0.0417
     93  CZ       -23.0640   16.0470   65.1170 C.ar  190  TYR190      0.1957
     94  OH       -24.2250   15.7190   65.7350 O.3   190  TYR190     -0.2866
@<TRIPOS>BOND
     1     1     2    1
     2     5     2    1
     3     5     6    1
     4     2     3    1
     5     4     3    2
     6     3     9   am
     7    29    28    2
     8     6     7    2
     9     6     8   am
    10    28    27    1
    11    11    12    2
    12    11    10    1
    13     9    10    1
    14    18    19    1
    15    10    13    1
    16    27    26    1
    17    27    30    1
    18    26    20   am
    19    20    19    1
    20    20    21    2
    21    19    22    1
    22    30    31    1
    23    13    14    1
    24    81    80   ar
    25    60    61   ar
    26    60    58   ar
    27    61    59   ar
    28    14    15    1
    29    22    23    1
    30    24    23    2
    31    16    15   ar
    32    23    25   am
    33    15    17   ar
    34    80    82   ar
    35    80    79    1
    36    58    57   ar
    37    59    57   ar
    38    78    79    1
    39    78    75    1
    40    57    56    1
    41    74    75    1
    42    75    76    1
    43    56    53    1
    44    73    72    1
    45    52    53    1
    46    76    77    2
    47    53    54    1
    48    72    70   ar
    49    72    71   ar
    50    70    68   ar
    51    54    55    2
    52    32    33    1
    53    51    49    1
    54    71    69   ar
    55    68    67   ar
    56    87    84    1
    57    87    88    1
    58    35    34    2
    59    44    43    2
    60    49    50    1
    61    49    48    2
    62    89    88   ar
    63    89    91   ar
    64    85    84    1
    65    85    86    2
    66    33    34    1
    67    33    36    1
    68    84    83    1
    69    88    90   ar
    70    69    67   ar
    71    67    66    1
    72    91    93   ar
    73    48    47    1
    74    47    46    1
    75    43    42    1
    76    41    42    1
    77    45    42    1
    78    45    46    1
    79    90    92   ar
    80    36    37    1
    81    40    38   am
    82    37    38    1
    83    93    92   ar
    84    93    94    1
    85    66    63    1
    86    62    63    1
    87    38    39    2
    88    63    64    1
    89    64    65    2
