@<TRIPOS>MOLECULE
tmp/5e98A03.pdb
 91 88 0 0 0
SMALL
GASTEIGER

@<TRIPOS>ATOM
      1  N        -29.5550   19.9710   50.3160 N.3     1  LYS1       -0.1231
      2  CA       -28.7070   21.1930   50.4600 C.3     1  LYS1        0.1693
      3  C        -27.5060   21.2010   49.5160 C.2     1  LYS1        0.2592
      4  O        -27.1460   22.2540   48.9930 O.2     1  LYS1       -0.2718
      5  CB       -28.2150   21.3410   51.9050 C.3     1  LYS1        0.0285
      6  CG       -27.4370   22.6270   52.1670 C.3     1  LYS1        0.0035
      7  CD       -27.0070   22.7250   53.6160 C.3     1  LYS1        0.0206
      8  CE       -26.3880   24.0750   53.9110 C.3     1  LYS1        0.1093
      9  NZ       -26.2630   24.2830   55.3740 N.3     1  LYS1       -0.1314
     10  N        -26.8950   20.0360   49.3020 N.am    2  PHE2       -0.1976
     11  CA       -25.6200   19.9330   48.5770 C.3     2  PHE2        0.1639
     12  C        -25.8360   19.8830   47.0580 C.2     2  PHE2        0.2290
     13  O        -26.5060   18.9790   46.5480 O.2     2  PHE2       -0.2864
     14  CB       -24.8360   18.7040   49.0530 C.3     2  PHE2        0.0560
     15  CG       -24.5930   18.6910   50.5360 C.ar    2  PHE2       -0.0200
     16  CD1      -23.4920   19.3480   51.0760 C.ar    2  PHE2       -0.0042
     17  CD2      -25.4940   18.0550   51.3990 C.ar    2  PHE2       -0.0042
     18  CE1      -23.2850   19.3610   52.4490 C.ar    2  PHE2       -0.0003
     19  CE2      -25.2930   18.0620   52.7690 C.ar    2  PHE2       -0.0003
     20  CZ       -24.1850   18.7150   53.2970 C.ar    2  PHE2       -0.0000
     21  N        -22.3160   22.8170   67.3040 N.3   145  ARG145     -0.1245
     22  CA       -23.3400   23.8230   67.6480 C.3   145  ARG145      0.1563
     23  C        -23.7350   23.8850   69.1240 C.2   145  ARG145      0.2260
     24  O        -23.9810   24.9750   69.6410 O.2   145  ARG145     -0.2867
     25  CB       -24.5640   23.6400   66.7760 C.3   145  ARG145      0.0307
     26  CG       -24.2580   23.8460   65.3100 C.3   145  ARG145      0.0489
     27  CD       -25.5090   23.8860   64.4470 C.3   145  ARG145      0.2205
     28  NE       -25.1420   23.9110   63.0220 N.pl3 145  ARG145     -0.0865
     29  CZ       -25.3040   22.9180   62.1380 C.cat 145  ARG145      0.5346
     30  NH1      -24.8980   23.1000   60.8810 N.pl3 145  ARG145      0.1354
     31  NH2      -25.8570   21.7490   62.4740 N.pl3 145  ARG145      0.1354
     32  N        -20.1730   19.9430   62.4640 N.3   191  GLY191     -0.1210
     33  CA       -20.7420   21.2430   62.1810 C.3   191  GLY191      0.1956
     34  C        -19.7060   22.3430   62.0370 C.2   191  GLY191      0.2612
     35  O        -19.9880   23.4800   62.2920 O.2   191  GLY191     -0.2717
     36  N        -18.4860   22.0080   61.6710 N.am  192  GLY192     -0.1956
     37  CA       -17.4360   22.9830   61.5620 C.3   192  GLY192      0.1869
     38  C        -16.6450   23.2190   62.8220 C.2   192  GLY192      0.2309
     39  O        -15.7960   24.0810   62.8280 O.2   192  GLY192     -0.2863
     40  N         -9.1220   16.2770   60.9910 N.3   225  GLN225     -0.1231
     41  CA        -9.9780   17.2810   60.3590 C.3   225  GLN225      0.1698
     42  C         -9.8050   18.5730   61.1660 C.2   225  GLN225      0.2592
     43  O        -10.1580   18.5950   62.3350 O.2   225  GLN225     -0.2718
     44  CB       -11.4230   16.7950   60.3770 C.3   225  GLN225      0.0381
     45  CG       -12.4760   17.7550   59.8330 C.3   225  GLN225      0.0905
     46  CD       -12.6710   17.6260   58.3280 C.2   225  GLN225      0.2608
     47  OE1      -11.9360   16.9110   57.6250 O.2   225  GLN225     -0.2717
     48  NE2      -13.6260   18.3780   57.8160 N.am  225  GLN225     -0.0878
     49  N         -9.2230   19.6620   60.6390 N.am  226  VAL226     -0.1980
     50  CA        -8.5670   19.8110   59.3090 C.3   226  VAL226      0.1595
     51  C         -7.2520   20.5640   59.5240 C.2   226  VAL226      0.2287
     52  O         -7.0860   21.2830   60.5070 O.2   226  VAL226     -0.2864
     53  CB        -9.3840   20.6910   58.3190 C.3   226  VAL226      0.0276
     54  CG1      -10.6100   20.0080   57.8190 C.3   226  VAL226      0.0022
     55  CG2       -9.7680   22.0450   58.9180 C.3   226  VAL226      0.0022
     56  N         -6.2060   23.0100   57.5510 N.3   228  PHE228     -0.1227
     57  CA        -6.5100   24.3580   57.1760 C.3   228  PHE228      0.1736
     58  C         -7.8760   24.3650   56.5420 C.2   228  PHE228      0.2596
     59  O         -8.1990   23.4700   55.7490 O.2   228  PHE228     -0.2718
     60  CB        -5.4650   24.8220   56.1580 C.3   228  PHE228      0.0547
     61  CG        -5.6900   26.2130   55.6570 C.ar  228  PHE228     -0.0202
     62  CD1       -5.2070   27.3140   56.3660 C.ar  228  PHE228     -0.0042
     63  CD2       -6.4000   26.4250   54.4880 C.ar  228  PHE228     -0.0042
     64  CE1       -5.3930   28.6030   55.8920 C.ar  228  PHE228     -0.0003
     65  CE2       -6.6110   27.7160   54.0190 C.ar  228  PHE228     -0.0003
     66  CZ        -6.1170   28.8060   54.7250 C.ar  228  PHE228     -0.0000
     67  N         -8.6710   25.3790   56.8780 N.am  229  GLY229     -0.1942
     68  CA       -10.0090   25.5320   56.3600 C.3   229  GLY229      0.2014
     69  C        -10.8930   26.4120   57.1920 C.2   229  GLY229      0.2639
     70  O        -10.4680   26.9900   58.1810 O.2   229  GLY229     -0.2714
     71  N        -12.1390   26.4950   56.7920 N.am  230  ALA230     -0.1963
     72  CA       -13.0970   27.4050   57.4170 C.3   230  ALA230      0.1728
     73  C        -13.4630   26.9910   58.8360 C.2   230  ALA230      0.2616
     74  O        -13.6270   27.8400   59.7120 O.2   230  ALA230     -0.2715
     75  CB       -14.3580   27.4730   56.5850 C.3   230  ALA230      0.0334
     76  N        -13.5610   25.6910   59.0740 N.am  231  GLY231     -0.1955
     77  CA       -14.0300   25.1980   60.3890 C.3   231  GLY231      0.1869
     78  C        -13.0790   25.5350   61.5400 C.2   231  GLY231      0.2309
     79  O        -11.8670   25.5220   61.3420 O.2   231  GLY231     -0.2863
     80  N        -12.1330   23.7650   63.9060 N.3   233  TYR233     -0.1241
     81  CA       -11.2130   22.6450   64.2300 C.3   233  TYR233      0.1605
     82  C         -9.9630   22.6160   63.3940 C.2   233  TYR233      0.2264
     83  O         -9.1510   21.7180   63.4580 O.2   233  TYR233     -0.2867
     84  CB       -11.9770   21.2690   64.1810 C.3   233  TYR233      0.0534
     85  CG       -12.8450   21.0240   62.9600 C.ar  233  TYR233     -0.0201
     86  CD1      -12.4810   21.4650   61.6760 C.ar  233  TYR233     -0.0009
     87  CD2      -14.0620   20.3580   63.0830 C.ar  233  TYR233     -0.0009
     88  CE1      -13.2860   21.1880   60.5670 C.ar  233  TYR233      0.0417
     89  CE2      -14.8830   20.1040   61.9790 C.ar  233  TYR233      0.0417
     90  CZ       -14.4820   20.5460   60.7220 C.ar  233  TYR233      0.1957
     91  OH       -15.2810   20.2910   59.6350 O.3   233  TYR233     -0.2866
@<TRIPOS>BOND
     1    13    12    2
     2    12    11    1
     3    11    14    1
     4    11    10    1
     5     4     3    2
     6    14    15    1
     7    10     3   am
     8     3     2    1
     9     1     2    1
    10     2     5    1
    11    15    16   ar
    12    15    17   ar
    13    16    18   ar
    14    17    19   ar
    15     5     6    1
    16     6     7    1
    17    18    20   ar
    18    19    20   ar
    19     7     8    1
    20     8     9    1
    21    65    63   ar
    22    65    66   ar
    23    63    61   ar
    24    66    64   ar
    25    61    60    1
    26    61    62   ar
    27    59    58    2
    28    64    62   ar
    29    60    57    1
    30    68    67    1
    31    68    69    1
    32    58    67   am
    33    58    57    1
    34    75    72    1
    35    71    69   am
    36    71    72    1
    37    57    56    1
    38    69    70    2
    39    72    73    1
    40    47    46    2
    41    48    46   am
    42    54    53    1
    43    53    55    1
    44    53    50    1
    45    46    45    1
    46    73    76   am
    47    73    74    2
    48    76    77    1
    49    50    51    1
    50    50    49    1
    51    51    52    2
    52    91    90    1
    53    45    44    1
    54    41    44    1
    55    41    40    1
    56    41    42    1
    57    77    78    1
    58    88    90   ar
    59    88    86   ar
    60    49    42   am
    61    90    89   ar
    62    30    29    1
    63    42    43    2
    64    79    78    2
    65    37    36    1
    66    37    38    1
    67    36    34   am
    68    86    85   ar
    69    89    87   ar
    70    34    33    1
    71    34    35    2
    72    29    31    1
    73    29    28    2
    74    33    32    1
    75    38    39    2
    76    85    87   ar
    77    85    84    1
    78    28    27    1
    79    82    83    2
    80    82    81    1
    81    80    81    1
    82    84    81    1
    83    27    26    1
    84    26    25    1
    85    25    22    1
    86    21    22    1
    87    22    23    1
    88    23    24    2
