@<TRIPOS>MOLECULE
tmp/5e9cA02.pdb
 69 66 0 0 0
SMALL
GASTEIGER

@<TRIPOS>ATOM
      1  N        -29.5790   20.7860   50.5600 N.3     1  LYS1       -0.1231
      2  CA       -28.4510   21.5910   51.1140 C.3     1  LYS1        0.1693
      3  C        -27.1090   21.3790   50.3750 C.2     1  LYS1        0.2592
      4  O        -26.2290   22.2440   50.4670 O.2     1  LYS1       -0.2718
      5  CB       -28.2950   21.3070   52.6190 C.3     1  LYS1        0.0285
      6  CG       -27.5010   22.3530   53.3980 C.3     1  LYS1        0.0035
      7  CD       -27.7760   22.2510   54.8950 C.3     1  LYS1        0.0206
      8  CE       -26.7690   23.0310   55.7260 C.3     1  LYS1        0.1093
      9  NZ       -26.6470   24.4530   55.3010 N.3     1  LYS1       -0.1314
     10  N        -26.9490   20.2560   49.6550 N.am    2  PHE2       -0.1976
     11  CA       -25.7050   19.9610   48.9100 C.3     2  PHE2        0.1639
     12  C        -25.8840   19.9600   47.3880 C.2     2  PHE2        0.2290
     13  O        -26.5420   19.0780   46.8330 O.2     2  PHE2       -0.2864
     14  CB       -25.0980   18.6450   49.3860 C.3     2  PHE2        0.0560
     15  CG       -24.8110   18.6400   50.8590 C.ar    2  PHE2       -0.0200
     16  CD1      -23.6810   19.2850   51.3600 C.ar    2  PHE2       -0.0042
     17  CD2      -25.7160   18.0560   51.7540 C.ar    2  PHE2       -0.0042
     18  CE1      -23.4470   19.3270   52.7240 C.ar    2  PHE2       -0.0003
     19  CE2      -25.4810   18.0800   53.1160 C.ar    2  PHE2       -0.0003
     20  CZ       -24.3440   18.7130   53.6020 C.ar    2  PHE2       -0.0000
     21  N        -20.3110   19.7930   62.8480 N.3   191  GLY191     -0.1210
     22  CA       -20.8760   21.0990   62.4720 C.3   191  GLY191      0.1956
     23  C        -19.8190   22.1850   62.3770 C.2   191  GLY191      0.2612
     24  O        -20.0960   23.3200   62.6430 O.2   191  GLY191     -0.2717
     25  N        -18.5900   21.8120   62.0510 N.am  192  GLY192     -0.1956
     26  CA       -17.4740   22.7320   61.9150 C.3   192  GLY192      0.1869
     27  C        -16.7680   23.0650   63.2060 C.2   192  GLY192      0.2309
     28  O        -15.9760   23.9700   63.2090 O.2   192  GLY192     -0.2863
     29  N         -9.2850   16.2420   61.4860 N.3   225  GLN225     -0.1231
     30  CA       -10.1470   17.2790   60.8790 C.3   225  GLN225      0.1698
     31  C         -9.9630   18.5800   61.6750 C.2   225  GLN225      0.2592
     32  O        -10.3230   18.6170   62.8650 O.2   225  GLN225     -0.2718
     33  CB       -11.6040   16.8220   60.9110 C.3   225  GLN225      0.0381
     34  CG       -12.6050   17.7780   60.2680 C.3   225  GLN225      0.0905
     35  CD       -12.6890   17.6770   58.7600 C.2   225  GLN225      0.2608
     36  OE1      -11.9340   16.9610   58.1000 O.2   225  GLN225     -0.2717
     37  NE2      -13.6200   18.4200   58.1970 N.am  225  GLN225     -0.0878
     38  N         -9.3490   19.6420   61.1280 N.am  226  VAL226     -0.1980
     39  CA        -8.8120   19.8330   59.7700 C.3   226  VAL226      0.1595
     40  C         -7.4900   20.6000   59.9080 C.2   226  VAL226      0.2287
     41  O         -7.2720   21.3000   60.9190 O.2   226  VAL226     -0.2864
     42  CB        -9.8810   20.5880   58.9400 C.3   226  VAL226      0.0276
     43  CG1      -10.0860   22.0460   59.3950 C.3   226  VAL226      0.0022
     44  CG2       -9.5750   20.5320   57.4830 C.3   226  VAL226      0.0022
     45  N         -8.9280   25.3250   57.3420 N.3   229  GLY229     -0.1210
     46  CA       -10.2740   25.4350   56.8030 C.3   229  GLY229      0.1956
     47  C        -11.1890   26.3170   57.5940 C.2   229  GLY229      0.2612
     48  O        -10.7980   26.9170   58.5940 O.2   229  GLY229     -0.2717
     49  N        -12.4380   26.3620   57.1590 N.am  230  ALA230     -0.1965
     50  CA       -13.4190   27.2710   57.7430 C.3   230  ALA230      0.1728
     51  C        -13.8240   26.8350   59.1650 C.2   230  ALA230      0.2616
     52  O        -14.0820   27.6800   60.0450 O.2   230  ALA230     -0.2715
     53  CB       -14.6510   27.3450   56.8590 C.3   230  ALA230      0.0334
     54  N        -13.8290   25.5450   59.4310 N.am  231  GLY231     -0.1955
     55  CA       -14.2480   25.0710   60.7980 C.3   231  GLY231      0.1869
     56  C        -13.2660   25.4320   61.9090 C.2   231  GLY231      0.2309
     57  O        -12.0460   25.3980   61.6890 O.2   231  GLY231     -0.2863
     58  N        -12.3010   23.7420   64.3230 N.3   233  TYR233     -0.1241
     59  CA       -11.4200   22.6410   64.6830 C.3   233  TYR233      0.1605
     60  C        -10.1410   22.6160   63.8560 C.2   233  TYR233      0.2264
     61  O         -9.3480   21.7240   63.9600 O.2   233  TYR233     -0.2867
     62  CB       -12.1840   21.3090   64.5930 C.3   233  TYR233      0.0534
     63  CG       -13.0710   21.0630   63.3890 C.ar  233  TYR233     -0.0201
     64  CD1      -12.7440   21.5230   62.1120 C.ar  233  TYR233     -0.0009
     65  CD2      -14.2540   20.3210   63.5300 C.ar  233  TYR233     -0.0009
     66  CE1      -13.5770   21.2550   61.0220 C.ar  233  TYR233      0.0417
     67  CE2      -15.0800   20.0220   62.4560 C.ar  233  TYR233      0.0417
     68  CZ       -14.7410   20.5050   61.1990 C.ar  233  TYR233      0.1957
     69  OH       -15.5260   20.2160   60.1040 O.3   233  TYR233     -0.2866
@<TRIPOS>BOND
     1    13    12    2
     2    12    11    1
     3    11    14    1
     4    11    10    1
     5    14    15    1
     6    10     3   am
     7     3     4    2
     8     3     2    1
     9     1     2    1
    10    15    16   ar
    11    15    17   ar
    12     2     5    1
    13    16    18   ar
    14    17    19   ar
    15     5     6    1
    16    18    20   ar
    17    19    20   ar
    18     6     7    1
    19     7     8    1
    20     9     8    1
    21    46    45    1
    22    46    47    1
    23    53    50    1
    24    49    47   am
    25    49    50    1
    26    44    42    1
    27    47    48    2
    28    50    51    1
    29    36    35    2
    30    37    35   am
    31    35    34    1
    32    42    43    1
    33    42    39    1
    34    51    54   am
    35    51    52    2
    36    54    55    1
    37    39    40    1
    38    39    38    1
    39    40    41    2
    40    69    68    1
    41    34    33    1
    42    55    56    1
    43    30    33    1
    44    30    29    1
    45    30    31    1
    46    66    68   ar
    47    66    64   ar
    48    38    31   am
    49    68    67   ar
    50    31    32    2
    51    57    56    2
    52    26    25    1
    53    26    27    1
    54    25    23   am
    55    64    63   ar
    56    23    22    1
    57    23    24    2
    58    67    65   ar
    59    22    21    1
    60    27    28    2
    61    63    65   ar
    62    63    62    1
    63    60    61    2
    64    60    59    1
    65    58    59    1
    66    62    59    1
