@<TRIPOS>MOLECULE
tmp/5e9cA03.pdb
 152 147 0 0 0
SMALL
GASTEIGER

@<TRIPOS>ATOM
      1  N        -29.5790   20.7860   50.5600 N.3     1  LYS1       -0.1231
      2  CA       -28.4510   21.5910   51.1140 C.3     1  LYS1        0.1693
      3  C        -27.1090   21.3790   50.3750 C.2     1  LYS1        0.2592
      4  O        -26.2290   22.2440   50.4670 O.2     1  LYS1       -0.2718
      5  CB       -28.2950   21.3070   52.6190 C.3     1  LYS1        0.0285
      6  CG       -27.5010   22.3530   53.3980 C.3     1  LYS1        0.0035
      7  CD       -27.7760   22.2510   54.8950 C.3     1  LYS1        0.0206
      8  CE       -26.7690   23.0310   55.7260 C.3     1  LYS1        0.1093
      9  NZ       -26.6470   24.4530   55.3010 N.3     1  LYS1       -0.1314
     10  N        -26.9490   20.2560   49.6550 N.am    2  PHE2       -0.1976
     11  CA       -25.7050   19.9610   48.9100 C.3     2  PHE2        0.1639
     12  C        -25.8840   19.9600   47.3880 C.2     2  PHE2        0.2290
     13  O        -26.5420   19.0780   46.8330 O.2     2  PHE2       -0.2864
     14  CB       -25.0980   18.6450   49.3860 C.3     2  PHE2        0.0560
     15  CG       -24.8110   18.6400   50.8590 C.ar    2  PHE2       -0.0200
     16  CD1      -23.6810   19.2850   51.3600 C.ar    2  PHE2       -0.0042
     17  CD2      -25.7160   18.0560   51.7540 C.ar    2  PHE2       -0.0042
     18  CE1      -23.4470   19.3270   52.7240 C.ar    2  PHE2       -0.0003
     19  CE2      -25.4810   18.0800   53.1160 C.ar    2  PHE2       -0.0003
     20  CZ       -24.3440   18.7130   53.6020 C.ar    2  PHE2       -0.0000
     21  N        -17.7570    9.3780   51.1970 N.3    66  ASN66      -0.1225
     22  CA       -17.5690    9.8880   52.5430 C.3    66  ASN66       0.1785
     23  C        -18.8950    9.6910   53.2670 C.2    66  ASN66       0.2597
     24  O        -19.9660   10.1340   52.7710 O.2    66  ASN66      -0.2718
     25  CB       -17.2170   11.3580   52.4810 C.3    66  ASN66       0.1169
     26  CG       -17.0170   11.9730   53.8550 C.2    66  ASN66       0.2627
     27  OD1      -15.9480   11.9080   54.4110 O.2    66  ASN66      -0.2716
     28  ND2      -18.0390   12.5960   54.3670 N.am   66  ASN66      -0.0877
     29  N        -18.8340    9.0300   54.4220 N.am   67  GLU67      -0.1979
     30  CA       -20.0080    8.7780   55.2130 C.3    67  GLU67       0.1602
     31  C        -21.1850    8.2720   54.3840 C.2    67  GLU67       0.2287
     32  O        -22.2590    8.8640   54.4010 O.2    67  GLU67      -0.2864
     33  CB       -20.3300    9.9890   56.1100 C.3    67  GLU67       0.0415
     34  CG       -19.2870   10.0850   57.2360 C.3    67  GLU67       0.1163
     35  CD       -19.3290   11.3800   58.0440 C.2    67  GLU67       0.3649
     36  OE1      -20.3930   12.0290   58.0360 O.co2  67  GLU67      -0.2457
     37  OE2      -18.2750   11.7310   58.6930 O.co2  67  GLU67      -0.2457
     38  N        -23.1300    5.9480   55.0600 N.3    69  ASN69      -0.1225
     39  CA       -24.2640    5.7780   55.9500 C.3    69  ASN69       0.1785
     40  C        -25.2800    6.9250   55.9510 C.2    69  ASN69       0.2597
     41  O        -26.4270    6.7020   56.3570 O.2    69  ASN69      -0.2718
     42  CB       -23.7890    5.5030   57.3910 C.3    69  ASN69       0.1169
     43  CG       -22.7810    6.5270   57.8840 C.2    69  ASN69       0.2627
     44  OD1      -21.6170    6.4960   57.4610 O.2    69  ASN69      -0.2716
     45  ND2      -23.2270    7.4610   58.7230 N.am   69  ASN69      -0.0877
     46  N        -24.8390    8.1330   55.5640 N.am   70  SER70      -0.1952
     47  CA       -25.6380    9.3730   55.5190 C.3    70  SER70       0.1924
     48  C        -26.1410    9.7180   54.1040 C.2    70  SER70       0.2314
     49  O        -26.7430   10.7650   53.9260 O.2    70  SER70      -0.2863
     50  CB       -24.7630   10.6010   55.9680 C.3    70  SER70       0.2116
     51  OG       -24.1500   10.4010   57.2080 O.3    70  SER70      -0.2180
     52  N        -29.9980   10.7570   53.8120 N.3    73  LYS73      -0.1245
     53  CA       -30.1780   12.1160   54.3040 C.3    73  LYS73       0.1561
     54  C        -29.5730   13.2220   53.3750 C.2    73  LYS73       0.2260
     55  O        -30.2080   14.2510   53.1360 O.2    73  LYS73      -0.2867
     56  CB       -29.5940   12.2050   55.7180 C.3    73  LYS73       0.0271
     57  CG       -29.3660   13.6230   56.2290 C.3    73  LYS73       0.0035
     58  CD       -29.1630   13.6580   57.7330 C.3    73  LYS73       0.0206
     59  CE       -28.7500   15.0530   58.1710 C.3    73  LYS73       0.1093
     60  NZ       -28.6440   15.1340   59.6510 N.3    73  LYS73      -0.1314
     61  N        -19.2940    6.7680   59.3310 N.3   111  GLY111     -0.1210
     62  CA       -19.3580    7.4520   60.6070 C.3   111  GLY111      0.1956
     63  C        -19.2120    6.4350   61.7260 C.2   111  GLY111      0.2611
     64  O        -18.8900    5.2660   61.5570 O.2   111  GLY111     -0.2717
     65  N        -19.3590    6.9200   62.9300 N.am  112  GLN112     -0.1979
     66  CA       -19.1380    6.0660   64.0820 C.3   112  GLN112      0.1601
     67  C        -20.2230    4.9680   64.1770 C.2   112  GLN112      0.2287
     68  O        -21.3260    5.1410   63.6610 O.2   112  GLN112     -0.2864
     69  CB       -18.9870    6.9030   65.3590 C.3   112  GLN112      0.0394
     70  CG       -20.1210    7.8070   65.7520 C.3   112  GLN112      0.0908
     71  CD       -19.5480    9.0390   66.5380 C.2   112  GLN112      0.2608
     72  OE1      -19.5280    9.0550   67.7580 O.2   112  GLN112     -0.2717
     73  NE2      -19.0210   10.0120   65.8080 N.am  112  GLN112     -0.0878
     74  N        -22.8730    3.2500   65.2180 N.3   114  ARG114     -0.1245
     75  CA       -24.2880    2.9790   65.4920 C.3   114  ARG114      0.1563
     76  C        -24.8090    1.7480   64.7340 C.2   114  ARG114      0.2260
     77  O        -24.2680    1.3560   63.7010 O.2   114  ARG114     -0.2867
     78  CB       -25.1170    4.2160   65.0910 C.3   114  ARG114      0.0307
     79  CG       -24.9130    5.3860   66.0520 C.3   114  ARG114      0.0489
     80  CD       -25.2360    6.7730   65.5010 C.3   114  ARG114      0.2205
     81  NE       -24.5270    7.7790   66.3280 N.pl3 114  ARG114     -0.0865
     82  CZ       -23.6790    8.7350   65.8980 C.cat 114  ARG114      0.5346
     83  NH1      -23.4100    8.9390   64.5990 N.pl3 114  ARG114      0.1354
     84  NH2      -23.0940    9.5350   66.7960 N.pl3 114  ARG114      0.1354
     85  N        -14.9530    7.3650   60.9760 N.3   138  HIS138     -0.1226
     86  CA       -14.9050    8.7320   61.4750 C.3   138  HIS138      0.1752
     87  C        -15.4540    8.8300   62.8830 C.2   138  HIS138      0.2596
     88  O        -16.3610    8.1170   63.2700 O.2   138  HIS138     -0.2718
     89  CB       -15.7450    9.6110   60.5950 C.3   138  HIS138      0.0759
     90  CG       -15.3040    9.6550   59.1610 C.ar  138  HIS138      0.0818
     91  ND1      -15.9370   10.4640   58.2470 N.ar  138  HIS138     -0.2268
     92  CD2      -14.2380    9.1130   58.5150 C.ar  138  HIS138      0.1154
     93  CE1      -15.3100   10.3740   57.0830 C.ar  138  HIS138      0.1986
     94  NE2      -14.2700    9.5680   57.2210 N.ar  138  HIS138     -0.2212
     95  N        -14.9260    9.7800   63.6510 N.am  139  HIS139     -0.1961
     96  CA       -15.4150    9.9860   65.0100 C.3   139  HIS139      0.1787
     97  C        -15.3880   11.4510   65.4160 C.2   139  HIS139      0.2620
     98  O        -14.3780   12.1040   65.2470 O.2   139  HIS139     -0.2715
     99  CB       -14.6410    9.1500   66.0100 C.3   139  HIS139      0.0785
    100  CG       -15.1120    9.2890   67.4090 C.ar  139  HIS139      0.0821
    101  ND1      -14.6270   10.2630   68.2620 N.ar  139  HIS139     -0.2267
    102  CD2      -16.0660    8.6290   68.0990 C.ar  139  HIS139      0.1154
    103  CE1      -15.2790   10.1990   69.4110 C.ar  139  HIS139      0.1986
    104  NE2      -16.1240    9.2000   69.3440 N.ar  139  HIS139     -0.2212
    105  N        -16.4760   11.8890   66.0330 N.am  140  TYR140     -0.1974
    106  CA       -16.5410   13.2040   66.6830 C.3   140  TYR140      0.1639
    107  C        -17.1870   12.9460   68.0250 C.2   140  TYR140      0.2290
    108  O        -18.0590   12.1150   68.1130 O.2   140  TYR140     -0.2864
    109  CB       -17.3310   14.1900   65.8460 C.3   140  TYR140      0.0560
    110  CG       -16.7430   14.5530   64.5120 C.ar  140  TYR140     -0.0198
    111  CD1      -16.9340   13.7670   63.4020 C.ar  140  TYR140     -0.0009
    112  CD2      -16.0200   15.7360   64.3570 C.ar  140  TYR140     -0.0009
    113  CE1      -16.4300   14.1410   62.1740 C.ar  140  TYR140      0.0417
    114  CE2      -15.4740   16.0860   63.1350 C.ar  140  TYR140      0.0417
    115  CZ       -15.6710   15.2800   62.0620 C.ar  140  TYR140      0.1957
    116  OH       -15.1570   15.6800   60.8430 O.3   140  TYR140     -0.2866
    117  N        -22.6300   22.7120   67.7120 N.3   145  ARG145     -0.1245
    118  CA       -23.6760   23.6800   68.0480 C.3   145  ARG145      0.1563
    119  C        -24.0980   23.7190   69.5130 C.2   145  ARG145      0.2260
    120  O        -24.4330   24.7990   70.0080 O.2   145  ARG145     -0.2867
    121  CB       -24.8830   23.5210   67.1450 C.3   145  ARG145      0.0307
    122  CG       -24.6820   24.2330   65.8140 C.3   145  ARG145      0.0489
    123  CD       -25.7840   23.9620   64.7830 C.3   145  ARG145      0.2205
    124  NE       -25.4220   22.8100   63.9460 N.pl3 145  ARG145     -0.0865
    125  CZ       -25.9010   21.5660   64.0590 C.cat 145  ARG145      0.5346
    126  NH1      -25.4260   20.6260   63.2410 N.pl3 145  ARG145      0.1354
    127  NH2      -26.8450   21.2400   64.9590 N.pl3 145  ARG145      0.1354
    128  N        -11.1610   10.5080   59.6470 N.3   185  GLU185     -0.1245
    129  CA       -11.5100   11.9210   59.8360 C.3   185  GLU185      0.1567
    130  C        -11.9470   11.9840   61.2860 C.2   185  GLU185      0.2260
    131  O        -12.8240   11.2140   61.6990 O.2   185  GLU185     -0.2867
    132  CB       -12.6990   12.3190   58.9170 C.3   185  GLU185      0.0388
    133  CG       -13.1660   13.7590   59.0140 C.3   185  GLU185      0.1160
    134  CD       -14.4390   14.0140   58.1680 C.2   185  GLU185      0.3649
    135  OE1      -14.4520   13.7810   56.9440 O.co2 185  GLU185     -0.2457
    136  OE2      -15.4790   14.4710   58.6960 O.co2 185  GLU185     -0.2457
    137  N        -18.6130   18.0380   65.6020 N.3   190  TYR190     -0.1227
    138  CA       -18.9990   18.1990   64.2160 C.3   190  TYR190      0.1736
    139  C        -19.8000   19.5430   64.0370 C.2   190  TYR190      0.2596
    140  O        -19.9330   20.3350   64.9600 O.2   190  TYR190     -0.2718
    141  CB       -19.6700   16.9240   63.6610 C.3   190  TYR190      0.0548
    142  CG       -20.9390   16.5380   64.3540 C.ar  190  TYR190     -0.0200
    143  CD1      -22.1270   17.1780   64.0310 C.ar  190  TYR190     -0.0009
    144  CD2      -20.9660   15.5560   65.3560 C.ar  190  TYR190     -0.0009
    145  CE1      -23.3290   16.8440   64.6550 C.ar  190  TYR190      0.0417
    146  CE2      -22.1620   15.1970   65.9590 C.ar  190  TYR190      0.0417
    147  CZ       -23.3340   15.8840   65.6060 C.ar  190  TYR190      0.1957
    148  OH       -24.5170   15.6000   66.1900 O.3   190  TYR190     -0.2866
    149  N        -20.3110   19.7930   62.8480 N.am  191  GLY191     -0.1957
    150  CA       -20.8760   21.0990   62.4720 C.3   191  GLY191      0.1869
    151  C        -19.8190   22.1850   62.3770 C.2   191  GLY191      0.2309
    152  O        -20.0960   23.3200   62.6430 O.2   191  GLY191     -0.2863
@<TRIPOS>BOND
     1    13    12    2
     2    12    11    1
     3    11    14    1
     4    11    10    1
     5    14    15    1
     6    10     3   am
     7     3     4    2
     8     3     2    1
     9     1     2    1
    10    15    16   ar
    11    15    17   ar
    12     2     5    1
    13    21    22    1
    14    16    18   ar
    15    17    19   ar
    16    25    22    1
    17    25    26    1
    18    22    23    1
    19     5     6    1
    20    18    20   ar
    21    24    23    2
    22    19    20   ar
    23    55    54    2
    24    23    29   am
    25    54    53    1
    26     6     7    1
    27    52    53    1
    28    26    28   am
    29    26    27    2
    30    49    48    2
    31    48    47    1
    32    53    56    1
    33    31    32    2
    34    31    30    1
    35    29    30    1
    36     7     8    1
    37    38    39    1
    38    30    33    1
    39     9     8    1
    40    47    46    1
    41    47    50    1
    42    46    40   am
    43    56    57    1
    44    39    40    1
    45    39    42    1
    46    40    41    2
    47    50    51    1
    48    33    34    1
    49    57    58    1
    50   135   134   ar
    51    93    94   ar
    52    93    91   ar
    53    94    92   ar
    54    34    35    1
    55    42    43    1
    56    44    43    2
    57    58    59    1
    58    43    45   am
    59    36    35   ar
    60    35    37   ar
    61   134   136   ar
    62   134   133    1
    63    59    60    1
    64    91    90   ar
    65    92    90   ar
    66   132   133    1
    67   132   129    1
    68    90    89    1
    69    61    62    1
    70   128   129    1
    71   129   130    1
    72    89    86    1
    73    62    63    1
    74   116   115    1
    75    85    86    1
    76   130   131    2
    77    86    87    1
    78    64    63    2
    79    63    65   am
    80   115   113   ar
    81   115   114   ar
    82   113   111   ar
    83   151   150    1
    84   151   152    2
    85   150   149    1
    86   149   139   am
    87    87    88    2
    88    87    95   am
    89    65    66    1
    90   114   112   ar
    91   126   125    1
    92   111   110   ar
    93    95    96    1
    94    68    67    2
    95   141   138    1
    96   141   142    1
    97    77    76    2
    98   124   125    2
    99   124   123    1
   100   143   142   ar
   101   143   145   ar
   102   139   138    1
   103   139   140    2
   104   125   127    1
   105    66    67    1
   106    66    69    1
   107   138   137    1
   108   142   144   ar
   109   112   110   ar
   110   110   109    1
   111    83    82    1
   112   145   147   ar
   113    76    75    1
   114   123   122    1
   115    96    97    1
   116    96    99    1
   117    78    75    1
   118    78    79    1
   119    74    75    1
   120    98    97    2
   121   144   146   ar
   122    69    70    1
   123    97   105   am
   124    80    79    1
   125    80    81    1
   126   147   146   ar
   127   147   148    1
   128    70    71    1
   129    73    71   am
   130   122   121    1
   131   109   106    1
   132    82    81    2
   133    82    84    1
   134    99   100    1
   135   105   106    1
   136    71    72    2
   137   106   107    1
   138   121   118    1
   139   100   102   ar
   140   100   101   ar
   141   117   118    1
   142   107   108    2
   143   118   119    1
   144   102   104   ar
   145   101   103   ar
   146   104   103   ar
   147   119   120    2
