@<TRIPOS>MOLECULE
tmp/5e9eA00.pdb
 166 158 0 0 0
SMALL
GASTEIGER

@<TRIPOS>ATOM
      1  N        -16.8600   13.8160  -52.9870 N.3    35  PHE35      -0.1227
      2  CA       -17.3930   12.4740  -53.1740 C.3    35  PHE35       0.1736
      3  C        -18.8360   12.3620  -52.7030 C.2    35  PHE35       0.2595
      4  O        -19.4380   11.3060  -52.8530 O.2    35  PHE35      -0.2718
      5  CB       -16.5460   11.4440  -52.4300 C.3    35  PHE35       0.0547
      6  CG       -16.7010   11.4860  -50.9350 C.ar   35  PHE35      -0.0202
      7  CD1      -15.8910   12.3100  -50.1620 C.ar   35  PHE35      -0.0042
      8  CD2      -17.6410   10.6860  -50.2960 C.ar   35  PHE35      -0.0042
      9  CE1      -16.0230   12.3450  -48.7860 C.ar   35  PHE35      -0.0003
     10  CE2      -17.7740   10.7120  -48.9140 C.ar   35  PHE35      -0.0003
     11  CZ       -16.9680   11.5440  -48.1620 C.ar   35  PHE35      -0.0000
     12  N        -19.3890   13.4310  -52.1220 N.am   36  ALA36      -0.1966
     13  CA       -20.7520   13.3970  -51.6130 C.3    36  ALA36       0.1728
     14  C        -21.2270   14.8030  -51.2660 C.2    36  ALA36       0.2616
     15  O        -20.4380   15.7450  -51.2170 O.2    36  ALA36      -0.2715
     16  CB       -20.8470   12.4950  -50.3930 C.3    36  ALA36       0.0334
     17  N        -22.5300   14.9520  -51.0740 N.am   37  GLU37      -0.1963
     18  CA       -23.0730   16.2300  -50.6900 C.3    37  GLU37       0.1733
     19  C        -24.3810   16.0880  -49.9510 C.2    37  GLU37       0.2617
     20  O        -25.0140   15.0370  -49.9650 O.2    37  GLU37      -0.2715
     21  CB       -23.2560   17.1300  -51.9120 C.3    37  GLU37       0.0429
     22  CG       -24.4080   16.7520  -52.8270 C.3    37  GLU37       0.1163
     23  CD       -24.6120   17.7650  -53.9240 C.2    37  GLU37       0.3649
     24  OE1      -24.1430   17.4940  -55.0490 O.co2  37  GLU37      -0.2457
     25  OE2      -25.2190   18.8280  -53.6510 O.co2  37  GLU37      -0.2457
     26  N        -24.7720   17.1730  -49.3030 N.am   38  GLY38      -0.1940
     27  CA       -26.0540   17.2630  -48.6260 C.3    38  GLY38       0.2014
     28  C        -26.7440   18.5390  -49.0330 C.2    38  GLY38       0.2639
     29  O        -26.4230   19.1230  -50.0820 O.2    38  GLY38      -0.2714
     30  N        -27.6750   18.9890  -48.1960 N.am   39  ALA39      -0.1963
     31  CA       -28.4240   20.2050  -48.4880 C.3    39  ALA39       0.1728
     32  C        -27.4940   21.4160  -48.5720 C.2    39  ALA39       0.2616
     33  O        -27.5230   22.1490  -49.5640 O.2    39  ALA39      -0.2715
     34  CB       -29.5050   20.4250  -47.4380 C.3    39  ALA39       0.0334
     35  N        -26.6450   21.6020  -47.5560 N.am   40  LEU40      -0.1963
     36  CA       -25.7930   22.8090  -47.4730 C.3    40  LEU40       0.1728
     37  C        -24.2990   22.6150  -47.8040 C.2    40  LEU40       0.2616
     38  O        -23.6370   23.5830  -48.1550 O.2    40  LEU40      -0.2715
     39  CB       -25.9340   23.4830  -46.1000 C.3    40  LEU40       0.0311
     40  CG       -27.3650   23.8580  -45.7000 C.3    40  LEU40       0.0022
     41  CD1      -27.4860   24.0730  -44.1990 C.3    40  LEU40       0.0001
     42  CD2      -27.8170   25.0970  -46.4590 C.3    40  LEU40       0.0001
     43  N        -23.7730   21.3950  -47.7140 N.am   41  ARG41      -0.1977
     44  CA       -22.3270   21.1830  -47.8540 C.3    41  ARG41       0.1597
     45  C        -21.9230   20.0670  -48.8090 C.2    41  ARG41       0.2287
     46  O        -22.6890   19.1420  -49.0570 O.2    41  ARG41      -0.2864
     47  CB       -21.7020   20.8970  -46.4790 C.3    41  ARG41       0.0334
     48  CG       -21.7950   22.0650  -45.5020 C.3    41  ARG41       0.0492
     49  CD       -21.1660   21.7270  -44.1680 C.3    41  ARG41       0.2205
     50  NE       -21.8500   20.6340  -43.4770 N.pl3  41  ARG41      -0.0865
     51  CZ       -21.4080   20.0420  -42.3660 C.cat  41  ARG41       0.5346
     52  NH1      -20.2630   20.4250  -41.8030 N.pl3  41  ARG41       0.1354
     53  NH2      -22.1120   19.0540  -41.8110 N.pl3  41  ARG41       0.1354
     54  N        -18.6120   17.2410  -49.4180 N.3    43  ALA43      -0.1245
     55  CA       -17.6290   16.5220  -48.6450 C.3    43  ALA43       0.1562
     56  C        -16.5630   15.9880  -49.5780 C.2    43  ALA43       0.2260
     57  O        -16.8770   15.4850  -50.6520 O.2    43  ALA43      -0.2867
     58  CB       -18.3070   15.3850  -47.9140 C.3    43  ALA43       0.0290
     59  N        -12.4100   13.3600  -43.8950 N.3    90  VAL90      -0.1245
     60  CA       -13.3540   14.1070  -44.7070 C.3    90  VAL90       0.1561
     61  C        -13.2450   15.5920  -44.4140 C.2    90  VAL90       0.2260
     62  O        -13.0880   15.9920  -43.2590 O.2    90  VAL90      -0.2867
     63  CB       -14.8080   13.6260  -44.4740 C.3    90  VAL90       0.0252
     64  CG1      -15.7980   14.4830  -45.2360 C.3    90  VAL90       0.0019
     65  CG2      -14.9540   12.1750  -44.9090 C.3    90  VAL90       0.0019
     66  N        -15.3180   19.2130  -45.2560 N.3    92  LYS92      -0.1245
     67  CA       -16.5920   19.7070  -45.6930 C.3    92  LYS92       0.1561
     68  C        -16.5650   21.2000  -45.9130 C.2    92  LYS92       0.2260
     69  O        -16.1900   21.9650  -45.0250 O.2    92  LYS92      -0.2867
     70  CB       -17.6770   19.3290  -44.6760 C.3    92  LYS92       0.0271
     71  CG       -17.9320   17.8260  -44.6230 C.3    92  LYS92       0.0035
     72  CD       -18.9380   17.4390  -43.5450 C.3    92  LYS92       0.0206
     73  CE       -19.1630   15.9390  -43.5070 C.3    92  LYS92       0.1093
     74  NZ       -20.2290   15.5480  -42.5390 N.3    92  LYS92      -0.1314
     75  N        -18.5460   11.0950  -34.0620 N.3   134  LEU134     -0.1245
     76  CA       -17.2050   11.4020  -34.4970 C.3   134  LEU134      0.1561
     77  C        -16.7690   12.7690  -34.0090 C.2   134  LEU134      0.2260
     78  O        -17.5910   13.6650  -33.7990 O.2   134  LEU134     -0.2867
     79  CB       -17.1470   11.4250  -36.0140 C.3   134  LEU134      0.0270
     80  CG       -17.4230   10.1150  -36.7510 C.3   134  LEU134      0.0019
     81  CD1      -17.3700   10.4310  -38.2330 C.3   134  LEU134      0.0001
     82  CD2      -16.3900    9.0820  -36.3590 C.3   134  LEU134      0.0001
     83  N        -13.5580   15.8920  -40.3460 N.3   158  GLU158     -0.1231
     84  CA       -13.9520   14.8050  -39.4620 C.3   158  GLU158      0.1684
     85  C        -13.4350   13.4800  -40.0090 C.2   158  GLU158      0.2434
     86  O        -13.0570   13.4120  -41.1860 O.2   158  GLU158     -0.2733
     87  CB       -15.4730   14.7830  -39.3380 C.3   158  GLU158      0.0402
     88  CG       -16.1950   14.7020  -40.6640 C.3   158  GLU158      0.1161
     89  CD       -17.6840   14.9300  -40.5380 C.2   158  GLU158      0.3649
     90  OE1      -18.4640   13.9520  -40.5720 O.co2 158  GLU158     -0.2457
     91  OE2      -18.0930   16.0830  -40.4340 O.co2 158  GLU158     -0.2457
     92  N        -13.3840   12.4310  -39.1590 N.am  159  PRO159     -0.2718
     93  CA       -12.9590   11.1230  -39.6280 C.3   159  PRO159      0.1535
     94  C        -13.8500   10.5990  -40.7550 C.2   159  PRO159      0.2598
     95  O        -14.9660   11.0590  -40.9210 O.2   159  PRO159     -0.2715
     96  CB       -13.1040   10.2430  -38.3920 C.3   159  PRO159      0.0310
     97  CG       -13.0520   11.1930  -37.2400 C.3   159  PRO159      0.0237
     98  CD       -13.7550   12.4010  -37.7360 C.3   159  PRO159      0.0939
     99  N        -13.3170    9.6890  -41.5660 N.am  160  LEU160     -0.1964
    100  CA       -14.0530    9.1050  -42.6840 C.3   160  LEU160      0.1728
    101  C        -14.9130    8.0080  -42.1560 C.2   160  LEU160      0.2616
    102  O        -14.4100    7.1240  -41.4690 O.2   160  LEU160     -0.2715
    103  CB       -13.0760    8.5110  -43.6970 C.3   160  LEU160      0.0311
    104  CG       -13.6470    7.6780  -44.8550 C.3   160  LEU160      0.0022
    105  CD1      -14.5350    8.5270  -45.7550 C.3   160  LEU160      0.0001
    106  CD2      -12.5160    7.0240  -45.6500 C.3   160  LEU160      0.0001
    107  N        -16.2100    8.0470  -42.4420 N.am  161  LEU161     -0.1977
    108  CA       -17.0580    6.8860  -42.1210 C.3   161  LEU161      0.1596
    109  C        -16.9690    5.8660  -43.2380 C.2   161  LEU161      0.2287
    110  O        -17.1770    6.1940  -44.4070 O.2   161  LEU161     -0.2864
    111  CB       -18.5160    7.2830  -41.8940 C.3   161  LEU161      0.0297
    112  CG       -18.7880    8.0520  -40.5950 C.3   161  LEU161      0.0022
    113  CD1      -20.1910    8.6260  -40.5930 C.3   161  LEU161      0.0001
    114  CD2      -18.5830    7.1800  -39.3750 C.3   161  LEU161      0.0001
    115  N        -23.9940    4.8980  -45.3550 N.3   165  PHE165     -0.1241
    116  CA       -24.3240    6.0770  -44.5800 C.3   165  PHE165      0.1605
    117  C        -25.8270    6.2990  -44.6190 C.2   165  PHE165      0.2264
    118  O        -26.3970    6.4580  -45.6890 O.2   165  PHE165     -0.2867
    119  CB       -23.6000    7.2930  -45.1580 C.3   165  PHE165      0.0534
    120  CG       -23.6840    8.5170  -44.3050 C.ar  165  PHE165     -0.0203
    121  CD1      -24.8230    9.3000  -44.3090 C.ar  165  PHE165     -0.0042
    122  CD2      -22.5980    8.9180  -43.5370 C.ar  165  PHE165     -0.0042
    123  CE1      -24.8950   10.4540  -43.5440 C.ar  165  PHE165     -0.0003
    124  CE2      -22.6630   10.0680  -42.7750 C.ar  165  PHE165     -0.0003
    125  CZ       -23.8140   10.8340  -42.7760 C.ar  165  PHE165     -0.0000
    126  N        -29.3430    8.3250  -42.7060 N.3   167  LYS167     -0.1245
    127  CA       -29.9690    9.2990  -41.8360 C.3   167  LYS167      0.1561
    128  C        -31.2330    8.7120  -41.1840 C.2   167  LYS167      0.2260
    129  O        -32.1330    8.2790  -41.8830 O.2   167  LYS167     -0.2867
    130  CB       -30.3040   10.5490  -42.6350 C.3   167  LYS167      0.0271
    131  CG       -30.9610   11.6580  -41.8300 C.3   167  LYS167      0.0035
    132  CD       -30.9050   12.9510  -42.6030 C.3   167  LYS167      0.0206
    133  CE       -31.5360   14.0740  -41.8280 C.3   167  LYS167      0.1093
    134  NZ       -31.3010   15.4130  -42.4470 N.3   167  LYS167     -0.1314
    135  N        -31.2180   14.7210  -36.0580 N.3   201  ASP201     -0.1239
    136  CA       -30.3580   14.5270  -37.2310 C.3   201  ASP201      0.1674
    137  C        -29.3950   13.3940  -36.9450 C.2   201  ASP201      0.2266
    138  O        -28.2110   13.4690  -37.2680 O.2   201  ASP201     -0.2867
    139  CB       -29.5900   15.8140  -37.6310 C.3   201  ASP201      0.1410
    140  CG       -30.2320   16.5800  -38.8160 C.2   201  ASP201      0.3668
    141  OD1      -31.0350   15.9870  -39.5760 O.co2 201  ASP201     -0.2456
    142  OD2      -29.8990   17.7800  -38.9920 O.co2 201  ASP201     -0.2456
    143  N        -27.4830   10.4490  -37.6830 N.3   203  GLN203     -0.1245
    144  CA       -27.0730    9.8730  -38.9580 C.3   203  GLN203      0.1566
    145  C        -25.6340    9.4150  -38.9620 C.2   203  GLN203      0.2260
    146  O        -24.8010    9.9700  -38.2390 O.2   203  GLN203     -0.2867
    147  CB       -27.2580   10.8810  -40.0780 C.3   203  GLN203      0.0367
    148  CG       -26.3930   12.1270  -39.9620 C.3   203  GLN203      0.0905
    149  CD       -26.7760   13.1700  -40.9830 C.2   203  GLN203      0.2608
    150  OE1      -26.9020   12.8700  -42.1700 O.2   203  GLN203     -0.2717
    151  NE2      -26.9620   14.3920  -40.5420 N.am  203  GLN203     -0.0878
    152  N        -22.5070   11.3410  -37.1390 N.3   210  THR210     -0.1203
    153  CA       -21.8830   12.6200  -37.4250 C.3   210  THR210      0.1994
    154  C        -22.9160   13.6230  -37.8860 C.2   210  THR210      0.2617
    155  O        -24.0560   13.2720  -38.1820 O.2   210  THR210     -0.2717
    156  CB       -20.7220   12.4820  -38.4370 C.3   210  THR210      0.1784
    157  OG1      -19.9590   13.6900  -38.4450 O.3   210  THR210     -0.2211
    158  CG2      -21.2130   12.1800  -39.8620 C.3   210  THR210      0.0376
    159  N        -22.5150   14.8900  -37.9110 N.am  211  ASP211     -0.1973
    160  CA       -23.4100   15.9940  -38.2540 C.3   211  ASP211      0.1709
    161  C        -24.8290   15.9020  -37.6280 C.2   211  ASP211      0.2293
    162  O        -25.8210   15.9380  -38.3340 O.2   211  ASP211     -0.2864
    163  CB       -23.4820   16.1350  -39.7730 C.3   211  ASP211      0.1436
    164  CG       -24.2590   17.3560  -40.2040 C.2   211  ASP211      0.3671
    165  OD1      -24.1610   18.4230  -39.5350 O.co2 211  ASP211     -0.2456
    166  OD2      -24.9790   17.2510  -41.2170 O.co2 211  ASP211     -0.2456
@<TRIPOS>BOND
     1    24    23   ar
     2    23    25   ar
     3    23    22    1
     4     2     1    1
     5     2     3    1
     6     2     5    1
     7     4     3    2
     8    22    21    1
     9     3    12   am
    10     5     6    1
    11    12    13    1
    12    21    18    1
    13    13    14    1
    14    13    16    1
    15    14    15    2
    16    14    17   am
    17    17    18    1
    18     6     8   ar
    19     6     7   ar
    20    18    19    1
    21    57    56    2
    22     8    10   ar
    23     7     9   ar
    24    29    28    2
    25    20    19    2
    26    19    26   am
    27    56    55    1
    28    33    32    2
    29    54    55    1
    30    26    27    1
    31    46    45    2
    32    28    27    1
    33    28    30   am
    34    10    11   ar
    35    45    44    1
    36     9    11   ar
    37    55    58    1
    38    32    31    1
    39    32    35   am
    40    31    30    1
    41    31    34    1
    42    38    37    2
    43    44    43    1
    44    44    47    1
    45    37    43   am
    46    37    36    1
    47    35    36    1
    48    36    39    1
    49    47    48    1
    50    42    40    1
    51    39    40    1
    52    68    67    1
    53    68    69    2
    54   105   104    1
    55    40    41    1
    56    67    66    1
    57    67    70    1
    58   118   117    2
    59   106   104    1
    60    48    49    1
    61   115   116    1
    62    64    63    1
    63   119   116    1
    64   119   120    1
    65    65    63    1
    66   104   103    1
    67    60    63    1
    68    60    61    1
    69    60    59    1
    70    70    71    1
    71    71    72    1
    72   117   116    1
    73    61    62    2
    74   110   109    2
    75   121   120   ar
    76   121   123   ar
    77   120   122   ar
    78    49    50    1
    79   103   100    1
    80    72    73    1
    81   123   125   ar
    82   122   124   ar
    83    73    74    1
    84    50    51    2
    85   109   108    1
    86   125   124   ar
    87   126   127    1
    88   100   101    1
    89   100    99    1
    90   130   127    1
    91   130   131    1
    92   132   131    1
    93   132   133    1
    94   134   133    1
    95   107   101   am
    96   107   108    1
    97    51    53    1
    98    51    52    1
    99   150   149    2
   100   101   102    2
   101   108   111    1
   102   111   112    1
   103   129   128    2
   104   127   128    1
   105    99    94   am
   106   166   164   ar
   107    86    85    2
   108   149   151   am
   109   149   148    1
   110    95    94    2
   111    94    93    1
   112    88    89    1
   113    88    87    1
   114   112   113    1
   115   112   114    1
   116    90    89   ar
   117    89    91   ar
   118    83    84    1
   119   164   163    1
   120   164   165   ar
   121   147   148    1
   122   147   144    1
   123    85    84    1
   124    85    92   am
   125   158   156    1
   126   163   160    1
   127    93    92    1
   128    93    96    1
   129   141   140   ar
   130    84    87    1
   131    92    98    1
   132   142   140   ar
   133   145   144    1
   134   145   146    2
   135   144   143    1
   136   140   139    1
   137   157   156    1
   138   156   153    1
   139    96    97    1
   140   162   161    2
   141   160   159    1
   142   160   161    1
   143    81    80    1
   144   155   154    2
   145   159   154   am
   146   154   153    1
   147    98    97    1
   148   139   136    1
   149   153   152    1
   150   138   137    2
   151   136   137    1
   152   136   135    1
   153    80    82    1
   154    80    79    1
   155    79    76    1
   156    76    75    1
   157    76    77    1
   158    77    78    2
