@<TRIPOS>MOLECULE
tmp/5e9hA00.pdb
 137 130 0 0 0
SMALL
GASTEIGER

@<TRIPOS>ATOM
      1  N       -117.7660   87.2440  340.5080 N.3    94  TYR94      -0.1241
      2  CA      -118.8280   88.0740  341.0690 C.3    94  TYR94       0.1605
      3  C       -118.2560   89.0200  342.0940 C.2    94  TYR94       0.2264
      4  O       -117.4500   88.6020  342.9230 O.2    94  TYR94      -0.2867
      5  CB      -119.9280   87.2200  341.7090 C.3    94  TYR94       0.0534
      6  CG      -121.0340   88.0280  342.3760 C.ar   94  TYR94      -0.0201
      7  CD1     -121.7230   89.0270  341.6740 C.ar   94  TYR94      -0.0009
      8  CD2     -121.4080   87.7760  343.6960 C.ar   94  TYR94      -0.0009
      9  CE1     -122.7370   89.7780  342.2860 C.ar   94  TYR94       0.0417
     10  CE2     -122.4180   88.5100  344.3120 C.ar   94  TYR94       0.0417
     11  CZ      -123.0810   89.5140  343.6070 C.ar   94  TYR94       0.1957
     12  OH      -124.0940   90.2420  344.2190 O.3    94  TYR94      -0.2866
     13  N       -119.5650   91.4180  345.0850 N.3    96  SER96      -0.1217
     14  CA      -120.7640   91.4570  345.9050 C.3    96  SER96       0.1889
     15  C       -120.9120   92.7590  346.6850 C.2    96  SER96       0.2288
     16  O       -119.9450   93.2780  347.2580 O.2    96  SER96      -0.2866
     17  CB      -120.7460   90.2590  346.8660 C.3    96  SER96       0.2089
     18  OG      -121.5710   90.4680  347.9930 O.3    96  SER96      -0.2183
     19  N       -122.9640   92.9950  349.2200 N.3    98  TRP98      -0.1241
     20  CA      -123.0380   92.5280  350.5980 C.3    98  TRP98       0.1605
     21  C       -121.6110   92.4620  351.1480 C.2    98  TRP98       0.2264
     22  O       -121.3280   93.0410  352.1960 O.2    98  TRP98      -0.2867
     23  CB      -123.7350   91.1520  350.6950 C.3    98  TRP98       0.0550
     24  CG      -124.1390   90.7490  352.1070 C.ar   98  TRP98       0.0003
     25  CD1     -125.4120   90.6290  352.5880 C.ar   98  TRP98       0.0946
     26  CD2     -123.2670   90.4160  353.2090 C.ar   98  TRP98       0.0152
     27  NE1     -125.3900   90.2460  353.9120 N.ar   98  TRP98      -0.2442
     28  CE2     -124.0870   90.1180  354.3170 C.ar   98  TRP98       0.0810
     29  CE3     -121.8810   90.3440  353.3650 C.ar   98  TRP98       0.0012
     30  CZ2     -123.5660   89.7560  355.5560 C.ar   98  TRP98       0.0191
     31  CZ3     -121.3630   89.9910  354.6070 C.ar   98  TRP98       0.0001
     32  CH2     -122.2020   89.7000  355.6800 C.ar   98  TRP98       0.0015
     33  N       -125.8050   94.9510  354.9090 N.3   113  ASP113     -0.1239
     34  CA      -126.0790   95.1410  353.4900 C.3   113  ASP113      0.1674
     35  C       -127.2770   96.0620  353.2470 C.2   113  ASP113      0.2266
     36  O       -128.4050   95.5800  353.0530 O.2   113  ASP113     -0.2867
     37  CB      -126.3210   93.7780  352.8410 C.3   113  ASP113      0.1410
     38  CG      -126.4140   93.8630  351.3430 C.2   113  ASP113      0.3668
     39  OD1     -125.8470   94.8250  350.7680 O.co2 113  ASP113     -0.2456
     40  OD2     -127.0480   92.9660  350.7430 O.co2 113  ASP113     -0.2456
     41  N       -122.2940   94.1680  341.5260 N.3   167  ASP167     -0.1239
     42  CA      -123.5020   94.5810  342.2120 C.3   167  ASP167      0.1674
     43  C       -123.7390   96.0970  342.1520 C.2   167  ASP167      0.2266
     44  O       -122.9760   96.8520  342.7470 O.2   167  ASP167     -0.2867
     45  CB      -123.3650   94.1480  343.6570 C.3   167  ASP167      0.1410
     46  CG      -124.6570   94.1710  344.4150 C.2   167  ASP167      0.3668
     47  OD1     -125.6070   94.9150  344.0570 O.co2 167  ASP167     -0.2456
     48  OD2     -124.7060   93.4310  345.4100 O.co2 167  ASP167     -0.2456
     49  N       -130.5180   93.2210  351.9440 N.3   205  CYS205     -0.1221
     50  CA      -130.1140   91.9390  351.3900 C.3   205  CYS205      0.1808
     51  C       -131.4190   91.2110  351.0340 C.2   205  CYS205      0.2602
     52  O       -132.4300   91.3800  351.7280 O.2   205  CYS205     -0.2717
     53  CB      -129.2600   91.1610  352.3980 C.3   205  CYS205      0.0970
     54  SG      -129.0940   89.3860  352.1020 S.3   205  CYS205     -0.0800
     55  N       -131.4170   90.4430  349.9440 N.am  206  GLY206     -0.1942
     56  CA      -132.6190   89.7470  349.5040 C.3   206  GLY206      0.2014
     57  C       -133.2020   88.8150  350.5560 C.2   206  GLY206      0.2638
     58  O       -134.3810   88.4560  350.5050 O.2   206  GLY206     -0.2714
     59  N       -132.3800   88.4380  351.5310 N.am  207  HIS207     -0.1973
     60  CA      -132.8100   87.5020  352.5600 C.3   207  HIS207      0.1656
     61  C       -132.8860   88.1780  353.9240 C.2   207  HIS207      0.2291
     62  O       -132.9310   87.5170  354.9600 O.2   207  HIS207     -0.2864
     63  CB      -131.8770   86.2910  352.5610 C.3   207  HIS207      0.0771
     64  CG      -131.7800   85.6340  351.2170 C.ar  207  HIS207      0.0820
     65  ND1     -130.6410   85.6780  350.4380 N.ar  207  HIS207     -0.2267
     66  CD2     -132.7010   84.9550  350.4920 C.ar  207  HIS207      0.1154
     67  CE1     -130.8580   85.0370  349.3020 C.ar  207  HIS207      0.1986
     68  NE2     -132.1000   84.5840  349.3120 N.ar  207  HIS207     -0.2212
     69  N       -132.6070   92.2360  338.8340 N.3   242  ARG242     -0.1245
     70  CA      -133.0270   91.4230  339.9720 C.3   242  ARG242      0.1563
     71  C       -134.3730   91.8970  340.5290 C.2   242  ARG242      0.2260
     72  O       -134.5780   93.0900  340.7280 O.2   242  ARG242     -0.2867
     73  CB      -131.9580   91.4630  341.0610 C.3   242  ARG242      0.0307
     74  CG      -132.4690   91.1180  342.4400 C.3   242  ARG242      0.0489
     75  CD      -131.3460   91.1230  343.4560 C.3   242  ARG242      0.2205
     76  NE      -131.8510   91.3990  344.7990 N.pl3 242  ARG242     -0.0865
     77  CZ      -131.0950   91.4010  345.8920 C.cat 242  ARG242      0.5346
     78  NH1     -129.7880   91.1360  345.8050 N.pl3 242  ARG242      0.1354
     79  NH2     -131.6430   91.6680  347.0770 N.pl3 242  ARG242      0.1354
     80  N       -133.2600   87.6680  337.4620 N.3   392  TRP392     -0.1241
     81  CA      -132.9480   86.9650  338.7020 C.3   392  TRP392      0.1605
     82  C       -134.0540   87.2700  339.7250 C.2   392  TRP392      0.2264
     83  O       -134.4500   88.4300  339.9060 O.2   392  TRP392     -0.2867
     84  CB      -131.5420   87.3870  339.1710 C.3   392  TRP392      0.0550
     85  CG      -131.1780   87.2480  340.6340 C.ar  392  TRP392      0.0003
     86  CD1     -131.7600   86.4440  341.5690 C.ar  392  TRP392      0.0946
     87  CD2     -130.1320   87.9640  341.3190 C.ar  392  TRP392      0.0152
     88  NE1     -131.1460   86.6110  342.7930 N.ar  392  TRP392     -0.2442
     89  CE2     -130.1420   87.5390  342.6640 C.ar  392  TRP392      0.0810
     90  CE3     -129.1860   88.9160  340.9200 C.ar  392  TRP392      0.0012
     91  CZ2     -129.2450   88.0350  343.6110 C.ar  392  TRP392      0.0191
     92  CZ3     -128.2970   89.4150  341.8660 C.ar  392  TRP392      0.0001
     93  CH2     -128.3320   88.9730  343.1910 C.ar  392  TRP392      0.0015
     94  N       -134.9320   86.6500  343.7350 N.3   394  GLU394     -0.1245
     95  CA      -134.4980   86.1700  345.0390 C.3   394  GLU394      0.1567
     96  C       -135.5460   85.2290  345.6120 C.2   394  GLU394      0.2260
     97  O       -136.7340   85.4310  345.3940 O.2   394  GLU394     -0.2867
     98  CB      -134.2650   87.3520  345.9750 C.3   394  GLU394      0.0388
     99  CG      -132.9490   88.0320  345.7690 C.3   394  GLU394      0.1160
    100  CD      -131.8060   87.1880  346.3120 C.2   394  GLU394      0.3649
    101  OE1     -131.4300   87.4110  347.4860 O.co2 394  GLU394     -0.2457
    102  OE2     -131.3060   86.2910  345.5840 O.co2 394  GLU394     -0.2457
    103  N       -129.0880   82.9420  342.5530 N.3   422  ASN422     -0.1240
    104  CA      -128.2740   83.1400  343.7440 C.3   422  ASN422      0.1653
    105  C       -128.2090   81.8540  344.5760 C.2   422  ASN422      0.2266
    106  O       -129.1810   81.4630  345.2260 O.2   422  ASN422     -0.2867
    107  CB      -128.8470   84.3000  344.5550 C.3   422  ASN422      0.1155
    108  CG      -128.0890   84.5710  345.8390 C.2   422  ASN422      0.2627
    109  OD1     -127.0740   83.9290  346.1490 O.2   422  ASN422     -0.2716
    110  ND2     -128.5770   85.5460  346.6000 N.am  422  ASN422     -0.0877
    111  N       -127.4710   80.8810  347.5350 N.3   424  SER424     -0.1217
    112  CA      -127.2610   81.7450  348.6900 C.3   424  SER424      0.1889
    113  C       -126.8310   81.0200  349.9540 C.2   424  SER424      0.2288
    114  O       -127.4570   80.0470  350.3740 O.2   424  SER424     -0.2866
    115  CB      -128.5340   82.5550  348.9840 C.3   424  SER424      0.2089
    116  OG      -128.3040   83.4880  350.0360 O.3   424  SER424     -0.2183
    117  N       -127.0560   82.4890  352.6520 N.3   426  SER426     -0.1217
    118  CA      -128.1120   82.8620  353.5880 C.3   426  SER426      0.1889
    119  C       -129.0640   81.6680  353.7730 C.2   426  SER426      0.2288
    120  O       -129.9290   81.6870  354.6500 O.2   426  SER426     -0.2866
    121  CB      -128.8910   84.0930  353.1040 C.3   426  SER426      0.2089
    122  OG      -128.2440   85.3140  353.4280 O.3   426  SER426     -0.2183
    123  N       -123.0330   84.2040  346.4730 N.3   456  THR456     -0.1203
    124  CA      -122.7530   85.5960  346.7930 C.3   456  THR456      0.1994
    125  C       -121.6290   85.7670  347.8090 C.2   456  THR456      0.2617
    126  O       -120.6870   86.5260  347.5670 O.2   456  THR456     -0.2717
    127  CB      -124.0010   86.3190  347.3460 C.3   456  THR456      0.1784
    128  OG1     -124.5560   85.5500  348.4160 O.3   456  THR456     -0.2211
    129  CG2     -125.0520   86.5280  346.2670 C.3   456  THR456      0.0376
    130  N       -121.7170   85.0510  348.9280 N.am  457  LEU457     -0.1979
    131  CA      -120.8300   85.3030  350.0670 C.3   457  LEU457      0.1596
    132  C       -119.7350   84.2470  350.3070 C.2   457  LEU457      0.2287
    133  O       -119.1880   84.1780  351.4110 O.2   457  LEU457     -0.2864
    134  CB      -121.6670   85.4450  351.3510 C.3   457  LEU457      0.0297
    135  CG      -122.8100   86.4780  351.3850 C.3   457  LEU457      0.0022
    136  CD1     -123.3360   86.6900  352.8080 C.3   457  LEU457      0.0001
    137  CD2     -122.4040   87.7970  350.7570 C.3   457  LEU457      0.0001
@<TRIPOS>BOND
     1    80    81    1
     2    81    84    1
     3    81    82    1
     4    69    70    1
     5    84    85    1
     6    82    83    2
     7    70    71    1
     8    70    73    1
     9     1     2    1
    10    71    72    2
    11    85    87   ar
    12    85    86   ar
    13    90    87   ar
    14    90    92   ar
    15    73    74    1
    16     2     5    1
    17     2     3    1
    18    87    89   ar
    19    41    42    1
    20    86    88   ar
    21     7     9   ar
    22     7     6   ar
    23     5     6    1
    24    92    93   ar
    25     3     4    2
    26    43    42    1
    27    43    44    2
    28    42    45    1
    29     9    11   ar
    30     6     8   ar
    31    74    75    1
    32   103   104    1
    33    89    88   ar
    34    89    91   ar
    35    93    91   ar
    36    75    76    1
    37    11    12    1
    38    11    10   ar
    39    45    46    1
    40     8    10   ar
    41    94    95    1
    42   104   107    1
    43   104   105    1
    44    47    46   ar
    45    46    48   ar
    46   107   108    1
    47   105   106    2
    48    76    77    2
    49    95    96    1
    50    95    98    1
    51    13    14    1
    52    97    96    2
    53   102   100   ar
    54    99    98    1
    55    99   100    1
    56    78    77    1
    57   108   109    2
    58   108   110   am
    59    77    79    1
    60    14    15    1
    61    14    17    1
    62   129   127    1
    63   100   101   ar
    64   123   124    1
    65    15    16    2
    66   124   127    1
    67   124   125    1
    68    17    18    1
    69   127   128    1
    70   111   112    1
    71   126   125    2
    72   125   130   am
    73   112   115    1
    74   112   113    1
    75   130   131    1
    76   115   116    1
    77    19    20    1
    78    67    68   ar
    79    67    65   ar
    80    68    66   ar
    81    56    55    1
    82    56    57    1
    83    55    51   am
    84   113   114    2
    85   131   132    1
    86   131   134    1
    87   132   133    2
    88    65    64   ar
    89    66    64   ar
    90    58    57    2
    91    57    59   am
    92    20    23    1
    93    20    21    1
    94    23    24    1
    95    40    38   ar
    96   137   135    1
    97    39    38   ar
    98    51    50    1
    99    51    52    2
   100    21    22    2
   101    64    63    1
   102    38    37    1
   103   134   135    1
   104   135   136    1
   105    50    49    1
   106    50    53    1
   107    59    60    1
   108    54    53    1
   109    24    25   ar
   110    24    26   ar
   111    60    63    1
   112    60    61    1
   113    25    27   ar
   114   117   118    1
   115    37    34    1
   116    36    35    2
   117   121   122    1
   118   121   118    1
   119    26    29   ar
   120    26    28   ar
   121    35    34    1
   122    29    31   ar
   123    34    33    1
   124   118   119    1
   125   119   120    2
   126    27    28   ar
   127    61    62    2
   128    28    30   ar
   129    31    32   ar
   130    30    32   ar
