@<TRIPOS>MOLECULE
tmp/5e9iA00.pdb
 114 111 0 0 0
SMALL
GASTEIGER

@<TRIPOS>ATOM
      1  N        -29.8960  -18.4560    3.0960 N.3    32  TRP32      -0.1228
      2  CA       -30.8520  -17.6440    2.3290 C.3    32  TRP32       0.1722
      3  C        -30.3420  -16.2950    1.7780 C.2    32  TRP32       0.2437
      4  O        -30.8260  -15.8680    0.7270 O.2    32  TRP32      -0.2733
      5  CB       -32.1280  -17.3940    3.1540 C.3    32  TRP32       0.0563
      6  CG       -31.8830  -16.7430    4.4890 C.ar   32  TRP32       0.0003
      7  CD1      -31.6600  -17.3710    5.6820 C.ar   32  TRP32       0.0946
      8  CD2      -31.8270  -15.3370    4.7590 C.ar   32  TRP32       0.0152
      9  NE1      -31.4730  -16.4430    6.6800 N.ar   32  TRP32      -0.2442
     10  CE2      -31.5630  -15.1860    6.1380 C.ar   32  TRP32       0.0810
     11  CE3      -31.9670  -14.1930    3.9680 C.ar   32  TRP32       0.0012
     12  CZ2      -31.4370  -13.9330    6.7420 C.ar   32  TRP32       0.0191
     13  CZ3      -31.8480  -12.9490    4.5660 C.ar   32  TRP32       0.0001
     14  CH2      -31.5830  -12.8270    5.9430 C.ar   32  TRP32       0.0015
     15  N        -29.3860  -15.6100    2.4580 N.am   33  PRO33      -0.2718
     16  CA       -28.9140  -14.3820    1.8010 C.3    33  PRO33       0.1535
     17  C        -28.0130  -14.6080    0.5860 C.2    33  PRO33       0.2598
     18  O        -27.6780  -13.6220   -0.0910 O.2    33  PRO33      -0.2715
     19  CB       -28.0920  -13.6790    2.8920 C.3    33  PRO33       0.0310
     20  CG       -28.4420  -14.3820    4.1920 C.3    33  PRO33       0.0237
     21  CD       -28.7550  -15.7820    3.7860 C.3    33  PRO33       0.0939
     22  N        -27.6050  -15.8550    0.3500 N.am   34  PHE34      -0.1974
     23  CA       -26.5530  -16.1570   -0.6170 C.3    34  PHE34       0.1639
     24  C        -26.9900  -17.1220   -1.7300 C.2    34  PHE34       0.2290
     25  O        -26.1750  -17.5080   -2.5650 O.2    34  PHE34      -0.2864
     26  CB       -25.3310  -16.7210    0.1220 C.3    34  PHE34       0.0560
     27  CG       -24.9960  -15.9670    1.3850 C.ar   34  PHE34      -0.0200
     28  CD1      -24.5210  -14.6650    1.3230 C.ar   34  PHE34      -0.0042
     29  CD2      -25.1890  -16.5530    2.6400 C.ar   34  PHE34      -0.0042
     30  CE1      -24.2350  -13.9480    2.4940 C.ar   34  PHE34      -0.0003
     31  CE2      -24.8820  -15.8560    3.8080 C.ar   34  PHE34      -0.0003
     32  CZ       -24.4140  -14.5500    3.7370 C.ar   34  PHE34      -0.0000
     33  N        -27.8260  -10.9990   -5.4830 N.3    38  VAL38      -0.1245
     34  CA       -28.4520   -9.8670   -4.8150 C.3    38  VAL38       0.1561
     35  C        -29.2830   -9.1080   -5.8340 C.2    38  VAL38       0.2260
     36  O        -28.8650   -8.9430   -6.9790 O.2    38  VAL38      -0.2867
     37  CB       -27.3940   -8.9780   -4.1540 C.3    38  VAL38       0.0252
     38  CG1      -28.0230   -7.6840   -3.6070 C.3    38  VAL38       0.0019
     39  CG2      -26.6790   -9.7640   -3.0850 C.3    38  VAL38       0.0019
     40  N        -31.2720   -3.4510   -3.6800 N.3    43  VAL43      -0.1245
     41  CA       -30.3270   -3.1690   -2.6120 C.3    43  VAL43       0.1561
     42  C        -29.4290   -2.0310   -3.0600 C.2    43  VAL43       0.2260
     43  O        -28.4200   -2.2590   -3.7240 O.2    43  VAL43      -0.2867
     44  CB       -29.4790   -4.4010   -2.2370 C.3    43  VAL43       0.0252
     45  CG1      -28.4820   -4.0480   -1.1470 C.3    43  VAL43       0.0019
     46  CG2      -30.3750   -5.5490   -1.7910 C.3    43  VAL43       0.0019
     47  N        -25.2670   -1.6920   -3.6880 N.3    46  TYR46      -0.1241
     48  CA       -24.6110   -2.9690   -3.9230 C.3    46  TYR46       0.1605
     49  C        -23.8510   -3.0070   -5.2620 C.2    46  TYR46       0.2264
     50  O        -22.7100   -3.4680   -5.3140 O.2    46  TYR46      -0.2867
     51  CB       -25.6380   -4.0920   -3.8560 C.3    46  TYR46       0.0534
     52  CG       -25.0610   -5.4680   -4.0770 C.ar   46  TYR46      -0.0201
     53  CD1      -25.0900   -6.0470   -5.3380 C.ar   46  TYR46      -0.0009
     54  CD2      -24.5140   -6.2020   -3.0240 C.ar   46  TYR46      -0.0009
     55  CE1      -24.5780   -7.3080   -5.5620 C.ar   46  TYR46       0.0417
     56  CE2      -23.9960   -7.4830   -3.2400 C.ar   46  TYR46       0.0417
     57  CZ       -24.0370   -8.0230   -4.5170 C.ar   46  TYR46       0.1957
     58  OH       -23.5410   -9.2840   -4.7800 O.3    46  TYR46      -0.2866
     59  N        -19.9430   -3.3640   -4.4490 N.3    50  ILE50      -0.1245
     60  CA       -19.4390   -4.7320   -4.6220 C.3    50  ILE50       0.1561
     61  C        -18.9960   -4.9860   -6.0580 C.2    50  ILE50       0.2260
     62  O        -19.8220   -5.1890   -6.9430 O.2    50  ILE50      -0.2867
     63  CB       -20.4920   -5.7710   -4.2260 C.3    50  ILE50       0.0252
     64  CG1      -20.9820   -5.5040   -2.8010 C.3    50  ILE50       0.0019
     65  CG2      -19.9340   -7.2010   -4.3640 C.3    50  ILE50       0.0019
     66  CD1      -19.8950   -5.6140   -1.7610 C.3    50  ILE50       0.0001
     67  N        -18.0970  -14.6950   -1.7920 N.3    81  VAL81      -0.1245
     68  CA       -19.4710  -14.5190   -1.3200 C.3    81  VAL81       0.1561
     69  C        -19.4690  -13.9350    0.0890 C.2    81  VAL81       0.2260
     70  O        -20.1870  -12.9780    0.3910 O.2    81  VAL81      -0.2867
     71  CB       -20.2500  -15.8540   -1.3120 C.3    81  VAL81       0.0252
     72  CG1      -21.6190  -15.6850   -0.6230 C.3    81  VAL81       0.0019
     73  CG2      -20.4250  -16.3980   -2.7470 C.3    81  VAL81       0.0019
     74  N        -17.7150  -10.3770    0.3540 N.3    84  ASN84      -0.1225
     75  CA       -18.6470   -9.3410   -0.0830 C.3    84  ASN84       0.1785
     76  C        -19.6640   -9.0390    1.0040 C.2    84  ASN84       0.2597
     77  O        -20.0090   -7.8810    1.2550 O.2    84  ASN84      -0.2718
     78  CB       -19.3650   -9.7700   -1.3580 C.3    84  ASN84       0.1169
     79  CG       -18.4700   -9.7140   -2.5690 C.2    84  ASN84       0.2627
     80  OD1      -17.4030   -9.1060   -2.5300 O.2    84  ASN84      -0.2716
     81  ND2      -18.9000  -10.3590   -3.6590 N.am   84  ASN84      -0.0877
     82  N        -20.1500  -10.1000    1.6350 N.am   85  CYS85      -0.1970
     83  CA       -21.1630   -9.9750    2.6640 C.3    85  CYS85       0.1712
     84  C        -20.6550   -9.1350    3.8310 C.2    85  CYS85       0.2296
     85  O        -21.3840   -8.2980    4.3660 O.2    85  CYS85      -0.2864
     86  CB       -21.5910  -11.3530    3.1600 C.3    85  CYS85       0.0983
     87  SG       -22.8350  -11.2780    4.4920 S.3    85  CYS85      -0.0798
     88  N        -20.4540   -5.2690    3.0590 N.3    88  PHE88      -0.1227
     89  CA       -21.7070   -4.5420    2.9160 C.3    88  PHE88       0.1736
     90  C        -22.6260   -4.5800    4.1450 C.2    88  PHE88       0.2595
     91  O        -23.4260   -3.6640    4.3550 O.2    88  PHE88      -0.2718
     92  CB       -22.4650   -5.0820    1.7060 C.3    88  PHE88       0.0547
     93  CG       -23.4460   -4.1060    1.1250 C.ar   88  PHE88      -0.0202
     94  CD1      -23.0390   -3.1750    0.1830 C.ar   88  PHE88      -0.0042
     95  CD2      -24.7790   -4.1270    1.5110 C.ar   88  PHE88      -0.0042
     96  CE1      -23.9430   -2.2790   -0.3630 C.ar   88  PHE88      -0.0003
     97  CE2      -25.6850   -3.2300    0.9750 C.ar   88  PHE88      -0.0003
     98  CZ       -25.2680   -2.3070    0.0340 C.ar   88  PHE88      -0.0000
     99  N        -22.5210   -5.6370    4.9450 N.am   89  ASN89      -0.1974
    100  CA       -23.4280   -5.8290    6.0710 C.3    89  ASN89       0.1688
    101  C        -22.7470   -5.7120    7.4260 C.2    89  ASN89       0.2292
    102  O        -21.5720   -6.0420    7.5640 O.2    89  ASN89      -0.2864
    103  CB       -24.1120   -7.1900    5.9540 C.3    89  ASN89       0.1181
    104  CG       -24.8890   -7.3360    4.6570 C.2    89  ASN89       0.2629
    105  OD1      -26.0900   -7.0760    4.6130 O.2    89  ASN89      -0.2716
    106  ND2      -24.2040   -7.7540    3.5940 N.am   89  ASN89      -0.0877
    107  N        -28.1100  -10.7550    8.1140 N.3    95  ILE95      -0.1245
    108  CA       -27.3370  -11.1500    6.9380 C.3    95  ILE95       0.1561
    109  C        -25.8430  -11.2550    7.2590 C.2    95  ILE95       0.2260
    110  O        -25.1780  -12.2120    6.8440 O.2    95  ILE95      -0.2867
    111  CB       -27.5640  -10.1620    5.7690 C.3    95  ILE95       0.0252
    112  CG1      -29.0190  -10.2490    5.2900 C.3    95  ILE95       0.0019
    113  CG2      -26.5790  -10.4310    4.6360 C.3    95  ILE95       0.0019
    114  CD1      -29.3620   -9.3320    4.1040 C.3    95  ILE95       0.0001
@<TRIPOS>BOND
     1    36    35    2
     2    62    61    2
     3    61    60    1
     4    35    34    1
     5    55    53   ar
     6    55    57   ar
     7    33    34    1
     8    53    52   ar
     9    50    49    2
    10    49    48    1
    11    34    37    1
    12    58    57    1
    13    60    59    1
    14    60    63    1
    15    57    56   ar
    16    65    63    1
    17    63    64    1
    18    37    38    1
    19    37    39    1
    20    52    51    1
    21    52    54   ar
    22    48    51    1
    23    48    47    1
    24    43    42    2
    25    40    41    1
    26    81    79   am
    27    56    54   ar
    28    42    41    1
    29    64    66    1
    30    73    71    1
    31    41    44    1
    32    79    80    2
    33    79    78    1
    34    25    24    2
    35    44    46    1
    36    44    45    1
    37    67    68    1
    38    24    23    1
    39    78    75    1
    40    68    71    1
    41    68    69    1
    42    71    72    1
    43    23    26    1
    44    23    22    1
    45    96    98   ar
    46    96    94   ar
    47    18    17    2
    48    75    74    1
    49    75    76    1
    50    98    97   ar
    51    69    70    2
    52    26    27    1
    53    94    93   ar
    54    22    17   am
    55    17    16    1
    56     4     3    2
    57    97    95   ar
    58    76    77    2
    59    76    82   am
    60    93    95   ar
    61    93    92    1
    62    28    27   ar
    63    28    30   ar
    64    27    29   ar
    65    82    83    1
    66    92    89    1
    67     3     2    1
    68     3    15   am
    69    16    15    1
    70    16    19    1
    71     2     1    1
    72     2     5    1
    73    15    21    1
    74    30    32   ar
    75    29    31   ar
    76    83    86    1
    77    83    84    1
    78    19    20    1
    79    89    88    1
    80    89    90    1
    81     5     6    1
    82    86    87    1
    83   106   104   am
    84    32    31   ar
    85    21    20    1
    86    84    85    2
    87    11    13   ar
    88    11     8   ar
    89   114   112    1
    90    90    91    2
    91    90    99   am
    92     6     8   ar
    93     6     7   ar
    94    13    14   ar
    95   105   104    2
    96   113   111    1
    97   104   103    1
    98     8    10   ar
    99    99   100    1
   100   112   111    1
   101     7     9   ar
   102   111   108    1
   103    14    12   ar
   104   103   100    1
   105   100   101    1
   106    10     9   ar
   107    10    12   ar
   108   110   109    2
   109   108   109    1
   110   108   107    1
   111   101   102    2
