@<TRIPOS>MOLECULE
tmp/5e9sB10.pdb
 100 94 0 0 0
SMALL
GASTEIGER

@<TRIPOS>ATOM
      1  N        -54.4300   82.9190  145.5200 N.3     6  LEU6       -0.1245
      2  CA       -53.7300   82.2050  146.5900 C.3     6  LEU6        0.1561
      3  C        -54.5630   82.1190  147.8720 C.2     6  LEU6        0.2260
      4  O        -54.5210   81.0980  148.5680 O.2     6  LEU6       -0.2867
      5  CB       -52.3720   82.8640  146.8640 C.3     6  LEU6        0.0270
      6  CG       -51.2290   82.1430  147.6110 C.3     6  LEU6        0.0019
      7  CD1      -51.5240   81.8500  149.0980 C.3     6  LEU6        0.0001
      8  CD2      -50.7530   80.8930  146.8650 C.3     6  LEU6        0.0001
      9  N        -46.1400   72.8950  130.9630 N.3    47  LEU47      -0.1245
     10  CA       -45.2250   73.1440  132.0710 C.3    47  LEU47       0.1561
     11  C        -45.5660   72.2810  133.2870 C.2    47  LEU47       0.2260
     12  O        -44.6790   71.6650  133.8940 O.2    47  LEU47      -0.2867
     13  CB       -45.2370   74.6270  132.4120 C.3    47  LEU47       0.0270
     14  CG       -44.4760   75.0460  133.6380 C.3    47  LEU47       0.0019
     15  CD1      -43.0200   74.6970  133.3990 C.3    47  LEU47       0.0001
     16  CD2      -44.6480   76.5300  133.7120 C.3    47  LEU47       0.0001
     17  N        -42.8930   69.5810  135.0260 N.3    51  LEU51      -0.1245
     18  CA       -42.5150   69.6360  136.4330 C.3    51  LEU51       0.1561
     19  C        -42.8510   68.3350  137.1440 C.2    51  LEU51       0.2260
     20  O        -42.0930   67.9030  138.0150 O.2    51  LEU51      -0.2867
     21  CB       -43.1680   70.8270  137.1320 C.3    51  LEU51       0.0270
     22  CG       -42.6120   72.2010  136.7500 C.3    51  LEU51       0.0019
     23  CD1      -43.4320   73.3420  137.3360 C.3    51  LEU51       0.0001
     24  CD2      -41.1540   72.3300  137.1530 C.3    51  LEU51       0.0001
     25  N        -40.8480   64.4890  147.8320 N.3   193  TYR193     -0.1227
     26  CA       -42.2030   64.6780  148.3330 C.3   193  TYR193      0.1736
     27  C        -42.4960   66.1450  148.6230 C.2   193  TYR193      0.2595
     28  O        -43.5980   66.6270  148.3500 O.2   193  TYR193     -0.2718
     29  CB       -42.4330   63.8060  149.5620 C.3   193  TYR193      0.0548
     30  CG       -42.6790   62.3800  149.1860 C.ar  193  TYR193     -0.0200
     31  CD1      -43.9210   61.9750  148.7230 C.ar  193  TYR193     -0.0009
     32  CD2      -41.6580   61.4420  149.2360 C.ar  193  TYR193     -0.0009
     33  CE1      -44.1460   60.6510  148.3460 C.ar  193  TYR193      0.0417
     34  CE2      -41.8670   60.1260  148.8620 C.ar  193  TYR193      0.0417
     35  CZ       -43.1150   59.7370  148.4210 C.ar  193  TYR193      0.1957
     36  OH       -43.3380   58.4350  148.0620 O.3   193  TYR193     -0.2866
     37  N        -41.5190   66.8820  149.1460 N.am  194  LEU194     -0.1980
     38  CA       -41.7170   68.3120  149.3690 C.3   194  LEU194      0.1596
     39  C        -42.0100   69.0360  148.0620 C.2   194  LEU194      0.2287
     40  O        -42.9440   69.8440  147.9910 O.2   194  LEU194     -0.2864
     41  CB       -40.4890   68.9010  150.0550 C.3   194  LEU194      0.0297
     42  CG       -40.5990   70.2750  150.7140 C.3   194  LEU194      0.0022
     43  CD1      -41.5780   70.2660  151.8510 C.3   194  LEU194      0.0001
     44  CD2      -39.2470   70.6930  151.2310 C.3   194  LEU194      0.0001
     45  N        -45.4640   68.7160  146.5300 N.3   197  GLY197     -0.1210
     46  CA       -46.4240   69.5860  147.1780 C.3   197  GLY197      0.1956
     47  C        -46.3860   71.0020  146.6470 C.2   197  GLY197      0.2612
     48  O        -47.4290   71.6110  146.4130 O.2   197  GLY197     -0.2717
     49  N        -45.1870   71.5390  146.4400 N.am  198  GLY198     -0.1942
     50  CA       -45.0730   72.8850  145.9090 C.3   198  GLY198      0.2014
     51  C        -45.6320   72.9790  144.5080 C.2   198  GLY198      0.2638
     52  O        -46.2630   73.9760  144.1440 O.2   198  GLY198     -0.2714
     53  N        -45.3920   71.9450  143.6970 N.am  199  VAL199     -0.1977
     54  CA       -45.9060   71.9230  142.3300 C.3   199  VAL199      0.1596
     55  C        -47.4300   71.9270  142.3360 C.2   199  VAL199      0.2287
     56  O        -48.0650   72.6330  141.5440 O.2   199  VAL199     -0.2864
     57  CB       -45.3430   70.7030  141.5620 C.3   199  VAL199      0.0276
     58  CG1      -46.1210   70.4590  140.2880 C.3   199  VAL199      0.0022
     59  CG2      -43.8900   70.9250  141.2110 C.3   199  VAL199      0.0022
     60  N        -49.4470   73.3940  144.1050 N.3   201  GLN201     -0.1231
     61  CA       -49.9890   74.7420  144.2410 C.3   201  GLN201      0.1698
     62  C        -50.2300   75.3690  142.8790 C.2   201  GLN201      0.2592
     63  O        -51.0910   76.2490  142.7300 O.2   201  GLN201     -0.2718
     64  CB       -49.0170   75.6010  145.0530 C.3   201  GLN201      0.0381
     65  CG       -49.1210   75.4930  146.5640 C.3   201  GLN201      0.0905
     66  CD       -50.3840   76.1260  147.1110 C.2   201  GLN201      0.2608
     67  OE1      -51.2810   76.4900  146.3550 O.2   201  GLN201     -0.2717
     68  NE2      -50.4490   76.2910  148.4290 N.am  201  GLN201     -0.0878
     69  N        -49.4530   74.9510  141.8980 N.am  202  TYR202     -0.1976
     70  CA       -49.6620   75.3350  140.5200 C.3   202  TYR202      0.1639
     71  C        -50.6450   74.4190  139.7960 C.2   202  TYR202      0.2290
     72  O        -51.1760   74.8120  138.7500 O.2   202  TYR202     -0.2864
     73  CB       -48.3060   75.3460  139.8120 C.3   202  TYR202      0.0560
     74  CG       -48.3430   75.6840  138.3500 C.ar  202  TYR202     -0.0198
     75  CD1      -48.5850   76.9880  137.9150 C.ar  202  TYR202     -0.0009
     76  CD2      -48.1340   74.6900  137.3980 C.ar  202  TYR202     -0.0009
     77  CE1      -48.6060   77.2970  136.5700 C.ar  202  TYR202      0.0417
     78  CE2      -48.1560   74.9770  136.0630 C.ar  202  TYR202      0.0417
     79  CZ       -48.3930   76.2830  135.6450 C.ar  202  TYR202      0.1957
     80  OH       -48.4210   76.5580  134.2970 O.3   202  TYR202     -0.2866
     81  N        -47.5340   60.7170  146.6140 N.3   285  ARG285     -0.1245
     82  CA       -47.6940   61.6710  147.6980 C.3   285  ARG285      0.1563
     83  C        -49.0880   61.5720  148.2940 C.2   285  ARG285      0.2260
     84  O        -49.2530   61.6650  149.5120 O.2   285  ARG285     -0.2867
     85  CB       -47.4050   63.0840  147.2120 C.3   285  ARG285      0.0307
     86  CG       -47.8070   64.1120  148.1890 C.3   285  ARG285      0.0489
     87  CD       -47.1060   65.3880  147.9230 C.3   285  ARG285      0.2205
     88  NE       -47.5710   66.4530  148.8190 N.pl3 285  ARG285     -0.0865
     89  CZ       -48.6340   67.2170  148.5610 C.cat 285  ARG285      0.5346
     90  NH1      -49.3500   67.0270  147.4420 N.pl3 285  ARG285      0.1354
     91  NH2      -48.9820   68.1710  149.4120 N.pl3 285  ARG285      0.1354
     92  N        -49.2060   61.2250  152.1900 N.3   289  GLU289     -0.1245
     93  CA       -49.7660   62.2510  153.0550 C.3   289  GLU289      0.1567
     94  C        -51.2900   62.2270  153.1420 C.2   289  GLU289      0.2260
     95  O        -51.8410   62.9600  153.9600 O.2   289  GLU289     -0.2867
     96  CB       -49.3180   63.6490  152.6010 C.3   289  GLU289      0.0388
     97  CG       -47.8880   64.0030  152.9990 C.3   289  GLU289      0.1160
     98  CD       -47.1460   64.8420  151.9530 C.2   289  GLU289      0.3649
     99  OE1      -47.8030   65.5640  151.1660 O.co2 289  GLU289     -0.2457
    100  OE2      -45.8960   64.7660  151.9080 O.co2 289  GLU289     -0.2457
@<TRIPOS>BOND
     1     9    10    1
     2    10    13    1
     3    10    11    1
     4    13    14    1
     5    11    12    2
     6    15    14    1
     7    14    16    1
     8    80    79    1
     9    17    18    1
    10    79    78   ar
    11    79    77   ar
    12    78    76   ar
    13    18    21    1
    14    18    19    1
    15    77    75   ar
    16    22    21    1
    17    22    24    1
    18    22    23    1
    19    19    20    2
    20    76    74   ar
    21    75    74   ar
    22    74    73    1
    23    72    71    2
    24    71    70    1
    25    73    70    1
    26    58    57    1
    27    70    69    1
    28    59    57    1
    29    56    55    2
    30    57    54    1
    31    69    62   am
    32    54    55    1
    33    54    53    1
    34    63    62    2
    35    62    61    1
    36    53    51   am
    37    60    61    1
    38    52    51    2
    39    61    64    1
    40    51    50    1
    41    64    65    1
    42     1     2    1
    43    50    49    1
    44    67    66    2
    45    48    47    2
    46    49    47   am
    47    45    46    1
    48    65    66    1
    49     2     5    1
    50     2     3    1
    51    81    82    1
    52    47    46    1
    53     5     6    1
    54     8     6    1
    55    66    68   am
    56    85    82    1
    57    85    86    1
    58    90    89    1
    59     6     7    1
    60    82    83    1
    61    25    26    1
    62     3     4    2
    63    87    86    1
    64    87    88    1
    65    40    39    2
    66    39    38    1
    67    36    35    1
    68    83    84    2
    69    26    27    1
    70    26    29    1
    71    33    35   ar
    72    33    31   ar
    73    28    27    2
    74    35    34   ar
    75    89    88    2
    76    89    91    1
    77    27    37   am
    78    31    30   ar
    79    34    32   ar
    80    37    38    1
    81    30    32   ar
    82    30    29    1
    83    38    41    1
    84    41    42    1
    85    42    44    1
    86    42    43    1
    87    99    98   ar
    88   100    98   ar
    89    98    97    1
    90    92    93    1
    91    96    97    1
    92    96    93    1
    93    93    94    1
    94    94    95    2
