@<TRIPOS>MOLECULE
tmp/5e9sB18.pdb
 91 84 0 0 0
SMALL
GASTEIGER

@<TRIPOS>ATOM
      1  N        -60.1030   71.1730  141.2840 N.3    15  LEU15      -0.1245
      2  CA       -61.3050   70.7520  140.5790 C.3    15  LEU15       0.1561
      3  C        -61.9450   71.8850  139.7850 C.2    15  LEU15       0.2260
      4  O        -62.5670   71.6310  138.7430 O.2    15  LEU15      -0.2867
      5  CB       -62.2990   70.1580  141.5720 C.3    15  LEU15       0.0270
      6  CG       -63.4450   69.3580  140.9650 C.3    15  LEU15       0.0019
      7  CD1      -62.9440   68.1300  140.2060 C.3    15  LEU15       0.0001
      8  CD2      -64.4270   68.9620  142.0670 C.3    15  LEU15       0.0001
      9  N        -60.4290   72.0350  136.5950 N.3    18  LEU18      -0.1231
     10  CA       -60.8960   70.9530  135.7360 C.3    18  LEU18       0.1693
     11  C        -62.2130   71.3250  135.0610 C.2    18  LEU18       0.2591
     12  O        -62.3090   71.3130  133.8290 O.2    18  LEU18      -0.2718
     13  CB       -61.0220   69.6430  136.5210 C.3    18  LEU18       0.0284
     14  CG       -61.4910   68.4950  135.6230 C.3    18  LEU18       0.0019
     15  CD1      -60.4500   68.2120  134.5590 C.3    18  LEU18       0.0001
     16  CD2      -61.8070   67.2100  136.3750 C.3    18  LEU18       0.0001
     17  N        -63.2360   71.6900  135.8390 N.am   19  VAL19      -0.1980
     18  CA       -64.5200   72.0540  135.2350 C.3    19  VAL19       0.1595
     19  C        -64.3610   73.2620  134.3220 C.2    19  VAL19       0.2287
     20  O        -64.6590   73.1970  133.1250 O.2    19  VAL19      -0.2864
     21  CB       -65.5900   72.3000  136.3110 C.3    19  VAL19       0.0276
     22  CG1      -66.8090   72.9110  135.6750 C.3    19  VAL19       0.0022
     23  CG2      -65.9840   70.9890  136.9380 C.3    19  VAL19       0.0022
     24  N        -62.7380   72.4620  131.2850 N.3    22  ALA22      -0.1245
     25  CA       -63.5660   71.6480  130.4050 C.3    22  ALA22       0.1562
     26  C        -64.5780   72.5180  129.6780 C.2    22  ALA22       0.2260
     27  O        -64.7610   72.3970  128.4640 O.2    22  ALA22      -0.2867
     28  CB       -64.2680   70.5490  131.2030 C.3    22  ALA22       0.0290
     29  N        -57.0620   70.1590  130.2160 N.3   211  ILE211     -0.1245
     30  CA       -58.4450   69.8450  129.8710 C.3   211  ILE211      0.1561
     31  C        -58.9600   70.8130  128.8180 C.2   211  ILE211      0.2260
     32  O        -59.5940   70.4040  127.8420 O.2   211  ILE211     -0.2867
     33  CB       -59.3340   69.8500  131.1270 C.3   211  ILE211      0.0252
     34  CG1      -60.7610   69.4460  130.7660 C.3   211  ILE211      0.0019
     35  CG2      -59.3370   71.2120  131.8160 C.3   211  ILE211      0.0019
     36  CD1      -60.9110   67.9840  130.5890 C.3   211  ILE211      0.0001
     37  N        -60.4960   69.4170  125.3520 N.3   215  MET215     -0.1245
     38  CA       -61.8660   69.7520  124.9800 C.3   215  MET215      0.1570
     39  C        -61.9050   70.6080  123.7200 C.2   215  MET215      0.2261
     40  O        -62.7770   70.4210  122.8640 O.2   215  MET215     -0.2867
     41  CB       -62.5770   70.4650  126.1260 C.3   215  MET215      0.0387
     42  CG       -62.8650   69.5580  127.3000 C.3   215  MET215      0.0595
     43  SD       -63.4860   67.9330  126.7890 S.3   215  MET215     -0.1393
     44  CE       -63.7840   67.1940  128.4040 C.3   215  MET215      0.0692
     45  N        -67.3080   56.0800  129.5210 N.3   234  TYR234     -0.1241
     46  CA       -67.3950   56.7700  130.8090 C.3   234  TYR234      0.1605
     47  C        -68.3780   56.0820  131.7420 C.2   234  TYR234      0.2264
     48  O        -68.1190   55.9740  132.9460 O.2   234  TYR234     -0.2867
     49  CB       -67.7690   58.2380  130.6150 C.3   234  TYR234      0.0534
     50  CG       -66.5440   59.0340  130.2920 C.ar  234  TYR234     -0.0201
     51  CD1      -66.0740   59.1150  128.9980 C.ar  234  TYR234     -0.0009
     52  CD2      -65.7880   59.6070  131.2930 C.ar  234  TYR234     -0.0009
     53  CE1      -64.9230   59.8150  128.6970 C.ar  234  TYR234      0.0417
     54  CE2      -64.6290   60.3050  131.0060 C.ar  234  TYR234      0.0417
     55  CZ       -64.2020   60.4030  129.7090 C.ar  234  TYR234      0.1957
     56  OH       -63.0480   61.0950  129.4310 O.3   234  TYR234     -0.2866
     57  N        -56.3590   61.4990  141.0060 N.3   267  MET267     -0.1230
     58  CA       -57.3980   61.1980  140.0250 C.3   267  MET267      0.1702
     59  C        -57.5100   62.2950  138.9810 C.2   267  MET267      0.2592
     60  O        -57.6050   62.0100  137.7850 O.2   267  MET267     -0.2718
     61  CB       -58.7360   61.0100  140.7260 C.3   267  MET267      0.0401
     62  CG       -58.7010   59.9210  141.7530 C.3   267  MET267      0.0596
     63  SD       -60.2850   59.6890  142.5190 S.3   267  MET267     -0.1393
     64  CE       -61.1960   59.0620  141.1320 C.3   267  MET267      0.0692
     65  N        -57.4510   63.5550  139.4030 N.am  268  ILE268     -0.1980
     66  CA       -57.5530   64.6430  138.4360 C.3   268  ILE268      0.1595
     67  C        -56.2640   64.7790  137.6350 C.2   268  ILE268      0.2287
     68  O        -56.3050   65.0920  136.4440 O.2   268  ILE268     -0.2864
     69  CB       -57.9240   65.9600  139.1360 C.3   268  ILE268      0.0276
     70  CG1      -59.3640   65.8830  139.6390 C.3   268  ILE268      0.0022
     71  CG2      -57.7220   67.1450  138.2100 C.3   268  ILE268      0.0022
     72  CD1      -59.6550   66.7880  140.8040 C.3   268  ILE268      0.0001
     73  N        -56.3720   62.1090  135.0390 N.3   271  PHE271     -0.1241
     74  CA       -57.3240   62.5510  134.0290 C.3   271  PHE271      0.1605
     75  C        -56.6860   63.5420  133.0640 C.2   271  PHE271      0.2264
     76  O        -56.6530   63.3180  131.8510 O.2   271  PHE271     -0.2867
     77  CB       -58.5310   63.1680  134.7280 C.3   271  PHE271      0.0534
     78  CG       -59.7660   63.2840  133.8710 C.ar  271  PHE271     -0.0203
     79  CD1      -60.7550   62.3070  133.9150 C.ar  271  PHE271     -0.0042
     80  CD2      -59.9720   64.3980  133.0720 C.ar  271  PHE271     -0.0042
     81  CE1      -61.9290   62.4230  133.1460 C.ar  271  PHE271     -0.0003
     82  CE2      -61.1360   64.5170  132.3100 C.ar  271  PHE271     -0.0003
     83  CZ       -62.1150   63.5250  132.3490 C.ar  271  PHE271     -0.0000
     84  N        -57.4690   58.0160  134.5350 N.3   399  MET399     -0.1245
     85  CA       -57.9110   58.2620  135.9000 C.3   399  MET399      0.1570
     86  C        -58.2760   56.9560  136.6020 C.2   399  MET399      0.2261
     87  O        -57.8840   56.7260  137.7510 O.2   399  MET399     -0.2867
     88  CB       -59.0900   59.2270  135.9030 C.3   399  MET399      0.0387
     89  CG       -59.6140   59.4790  137.2890 C.3   399  MET399      0.0595
     90  SD       -61.2980   60.0930  137.3100 S.3   399  MET399     -0.1393
     91  CE       -62.1590   58.5920  136.8570 C.3   399  MET399      0.0692
@<TRIPOS>BOND
     1    40    39    2
     2    39    38    1
     3    38    37    1
     4    38    41    1
     5    41    42    1
     6    43    42    1
     7    43    44    1
     8    32    31    2
     9    27    26    2
    10    53    51   ar
    11    53    55   ar
    12    31    30    1
    13    51    50   ar
    14    56    55    1
    15    45    46    1
    16    26    25    1
    17    55    54   ar
    18    30    29    1
    19    30    33    1
    20    50    49    1
    21    50    52   ar
    22    25    28    1
    23    25    24    1
    24    36    34    1
    25    49    46    1
    26    34    33    1
    27    46    47    1
    28    54    52   ar
    29    33    35    1
    30    47    48    2
    31    76    75    2
    32    82    83   ar
    33    82    80   ar
    34    83    81   ar
    35    75    74    1
    36    80    78   ar
    37    20    19    2
    38    81    79   ar
    39    12    11    2
    40    78    79   ar
    41    78    77    1
    42    74    77    1
    43    74    73    1
    44    19    18    1
    45    84    85    1
    46    15    14    1
    47    11    10    1
    48    11    17   am
    49    18    17    1
    50    18    21    1
    51    14    16    1
    52    14    13    1
    53    22    21    1
    54    10    13    1
    55    10     9    1
    56    85    88    1
    57    85    86    1
    58    88    89    1
    59    21    23    1
    60    68    67    2
    61    86    87    2
    62    91    90    1
    63    89    90    1
    64    67    66    1
    65    60    59    2
    66    71    69    1
    67    66    69    1
    68    66    65    1
    69     4     3    2
    70    59    65   am
    71    59    58    1
    72    69    70    1
    73    70    72    1
    74     3     2    1
    75    58    61    1
    76    58    57    1
    77     7     6    1
    78     2     1    1
    79     2     5    1
    80    61    62    1
    81     6     5    1
    82     6     8    1
    83    64    63    1
    84    62    63    1
