@<TRIPOS>MOLECULE
tmp/5e9sA02.pdb
 78 72 0 0 0
SMALL
GASTEIGER

@<TRIPOS>ATOM
      1  N        -38.3780   76.4600  123.7230 N.3   131  THR131     -0.1203
      2  CA       -37.0400   76.6830  124.2530 C.3   131  THR131      0.1994
      3  C        -37.0880   76.8720  125.7640 C.2   131  THR131      0.2617
      4  O        -36.2350   76.3450  126.4940 O.2   131  THR131     -0.2717
      5  CB       -36.4200   77.8980  123.5540 C.3   131  THR131      0.1784
      6  OG1      -36.0140   77.5260  122.2330 O.3   131  THR131     -0.2211
      7  CG2      -35.2150   78.4600  124.3270 C.3   131  THR131      0.0376
      8  N        -38.1100   77.5870  126.2500 N.am  132  LEU132     -0.1979
      9  CA       -38.2890   77.8220  127.6830 C.3   132  LEU132      0.1596
     10  C        -38.7610   76.5730  128.4370 C.2   132  LEU132      0.2287
     11  O        -38.2120   76.2330  129.4870 O.2   132  LEU132     -0.2864
     12  CB       -39.2740   78.9680  127.8740 C.3   132  LEU132      0.0297
     13  CG       -38.7670   80.3410  127.4470 C.3   132  LEU132      0.0022
     14  CD1      -39.8370   81.3580  127.8130 C.3   132  LEU132      0.0001
     15  CD2      -37.4440   80.6720  128.1460 C.3   132  LEU132      0.0001
     16  N        -36.2800   74.1390  129.4770 N.3   135  ILE135     -0.1245
     17  CA       -35.4740   74.4340  130.6530 C.3   135  ILE135      0.1561
     18  C        -35.8160   73.4740  131.7770 C.2   135  ILE135      0.2260
     19  O        -34.9350   73.0430  132.5200 O.2   135  ILE135     -0.2867
     20  CB       -35.6960   75.8960  131.0660 C.3   135  ILE135      0.0252
     21  CG1      -34.9540   76.8100  130.0870 C.3   135  ILE135      0.0019
     22  CG2      -35.2250   76.1270  132.4530 C.3   135  ILE135      0.0019
     23  CD1      -35.2850   78.2300  130.2840 C.3   135  ILE135      0.0001
     24  N        -28.6070   73.9010  131.3660 N.3   150  LEU150     -0.1245
     25  CA       -29.7120   74.7300  131.8340 C.3   150  LEU150      0.1561
     26  C        -30.7910   73.9280  132.5740 C.2   150  LEU150      0.2260
     27  O        -31.2190   74.3830  133.6540 O.2   150  LEU150     -0.2867
     28  CB       -30.2970   75.4890  130.6380 C.3   150  LEU150      0.0270
     29  CG       -29.7380   76.8710  130.2370 C.3   150  LEU150      0.0019
     30  CD1      -30.7730   77.6430  129.4300 C.3   150  LEU150      0.0001
     31  CD2      -29.1720   77.7130  131.3810 C.3   150  LEU150      0.0001
     32  N        -25.3040   79.5910  134.2880 N.3   304  LEU304     -0.1245
     33  CA       -26.3260   80.2680  133.5060 C.3   304  LEU304      0.1561
     34  C        -25.6990   81.2280  132.4910 C.2   304  LEU304      0.2260
     35  O        -26.0230   81.1830  131.2990 O.2   304  LEU304     -0.2867
     36  CB       -27.2500   81.0040  134.4730 C.3   304  LEU304      0.0270
     37  CG       -28.3170   81.9130  133.8620 C.3   304  LEU304      0.0019
     38  CD1      -29.4330   81.1430  133.1000 C.3   304  LEU304      0.0001
     39  CD2      -28.8500   82.8450  134.9420 C.3   304  LEU304      0.0001
     40  N        -24.1870   80.0990  129.1290 N.3   307  THR307     -0.1203
     41  CA       -25.0820   79.9210  128.0010 C.3   307  THR307      0.1994
     42  C        -25.7120   81.2430  127.5840 C.2   307  THR307      0.2617
     43  O        -25.5730   81.6480  126.4280 O.2   307  THR307     -0.2717
     44  CB       -26.1450   78.8640  128.2990 C.3   307  THR307      0.1784
     45  OG1      -25.4890   77.6430  128.6830 O.3   307  THR307     -0.2211
     46  CG2      -26.9460   78.6370  127.0510 C.3   307  THR307      0.0376
     47  N        -26.4690   81.8900  128.4750 N.am  308  ILE308     -0.1979
     48  CA       -27.2930   82.9840  127.9770 C.3   308  ILE308      0.1595
     49  C        -26.5450   84.2990  127.8460 C.2   308  ILE308      0.2287
     50  O        -26.9880   85.1780  127.1000 O.2   308  ILE308     -0.2864
     51  CB       -28.5490   83.2090  128.8350 C.3   308  ILE308      0.0276
     52  CG1      -28.2030   83.9010  130.1440 C.3   308  ILE308      0.0022
     53  CG2      -29.2710   81.8770  129.0580 C.3   308  ILE308      0.0022
     54  CD1      -29.4060   84.2710  130.9400 C.3   308  ILE308      0.0001
     55  N        -27.8970   84.7870  122.9920 N.3   349  ILE349     -0.1231
     56  CA       -28.4970   84.0590  124.1030 C.3   349  ILE349      0.1692
     57  C        -28.6300   82.5940  123.7240 C.2   349  ILE349      0.2593
     58  O        -28.2670   81.6960  124.4920 O.2   349  ILE349     -0.2718
     59  CB       -29.8720   84.6410  124.4840 C.3   349  ILE349      0.0266
     60  CG1      -29.7650   86.0320  125.0820 C.3   349  ILE349      0.0019
     61  CG2      -30.5670   83.7320  125.5020 C.3   349  ILE349      0.0020
     62  CD1      -31.1380   86.6620  125.3150 C.3   349  ILE349      0.0001
     63  N        -29.0750   82.3370  122.4940 N.am  350  GLY350     -0.1942
     64  CA       -29.3810   80.9900  122.0470 C.3   350  GLY350      0.2014
     65  C        -28.2290   80.1510  121.5680 C.2   350  GLY350      0.2640
     66  O        -28.4340   78.9550  121.3740 O.2   350  GLY350     -0.2714
     67  N        -27.0370   80.7080  121.3700 N.am  351  THR351     -0.1936
     68  CA       -25.9070   79.8720  120.9580 C.3   351  THR351      0.2028
     69  C        -25.3940   79.0250  122.1210 C.2   351  THR351      0.2642
     70  O        -25.3550   79.4650  123.2730 O.2   351  THR351     -0.2714
     71  CB       -24.7090   80.6610  120.3970 C.3   351  THR351      0.1808
     72  OG1      -23.7980   80.9390  121.4600 O.3   351  THR351     -0.2208
     73  CG2      -25.1030   81.9340  119.7160 C.3   351  THR351      0.0379
     74  N        -25.0280   77.7910  121.8080 N.am  352  ALA352     -0.1977
     75  CA       -24.3640   76.9350  122.7670 C.3   352  ALA352      0.1597
     76  C        -22.9550   77.4570  123.0920 C.2   352  ALA352      0.2287
     77  O        -22.3160   78.1840  122.3320 O.2   352  ALA352     -0.2864
     78  CB       -24.2800   75.5070  122.2330 C.3   352  ALA352      0.0319
@<TRIPOS>BOND
     1    73    71    1
     2    71    68    1
     3    71    72    1
     4    68    67    1
     5    68    69    1
     6    67    65   am
     7    66    65    2
     8    65    64    1
     9    74    69   am
    10    74    75    1
    11    64    63    1
    12    69    70    2
    13     6     5    1
    14    78    75    1
    15    77    76    2
    16    63    57   am
    17    75    76    1
    18    55    56    1
    19     5     2    1
    20     5     7    1
    21     1     2    1
    22    57    56    1
    23    57    58    2
    24    56    59    1
    25     2     3    1
    26    59    60    1
    27    59    61    1
    28    60    62    1
    29     3     8   am
    30     3     4    2
    31     8     9    1
    32    43    42    2
    33    46    44    1
    34    50    49    2
    35    13    14    1
    36    13    12    1
    37    13    15    1
    38    42    41    1
    39    42    47   am
    40     9    12    1
    41     9    10    1
    42    49    48    1
    43    48    47    1
    44    48    51    1
    45    41    44    1
    46    41    40    1
    47    44    45    1
    48    10    11    2
    49    51    53    1
    50    51    52    1
    51    30    29    1
    52    16    17    1
    53    21    23    1
    54    21    20    1
    55    52    54    1
    56    29    28    1
    57    29    31    1
    58    28    25    1
    59    17    20    1
    60    17    18    1
    61    20    22    1
    62    35    34    2
    63    24    25    1
    64    18    19    2
    65    25    26    1
    66    34    33    1
    67    26    27    2
    68    38    37    1
    69    33    32    1
    70    33    36    1
    71    37    36    1
    72    37    39    1
