@<TRIPOS>MOLECULE
tmp/5e9sB09.pdb
 108 100 0 0 0
SMALL
GASTEIGER

@<TRIPOS>ATOM
      1  N        -53.1930   62.1850  131.4450 N.3   274  ARG274     -0.1231
      2  CA       -53.3600   60.9610  130.6610 C.3   274  ARG274      0.1694
      3  C        -52.0750   60.1350  130.6510 C.2   274  ARG274      0.2593
      4  O        -51.7540   59.4770  129.6600 O.2   274  ARG274     -0.2718
      5  CB       -53.8380   61.2880  129.2360 C.3   274  ARG274      0.0321
      6  CG       -55.0890   62.1640  129.2420 C.3   274  ARG274      0.0489
      7  CD       -55.5230   62.6890  127.8880 C.3   274  ARG274      0.2205
      8  NE       -54.4670   63.3070  127.0780 N.pl3 274  ARG274     -0.0865
      9  CZ       -53.8700   64.4760  127.3190 C.cat 274  ARG274      0.5346
     10  NH1      -54.1840   65.2180  128.3740 N.pl3 274  ARG274      0.1354
     11  NH2      -52.9400   64.9060  126.4790 N.pl3 274  ARG274      0.1354
     12  N        -51.2960   60.2320  131.7310 N.am  275  SER275     -0.1938
     13  CA       -50.0830   59.4360  131.9120 C.3   275  SER275      0.2055
     14  C        -50.0260   58.9300  133.3480 C.2   275  SER275      0.2643
     15  O        -49.8200   59.7250  134.2760 O.2   275  SER275     -0.2714
     16  CB       -48.8530   60.2700  131.5770 C.3   275  SER275      0.2130
     17  OG       -47.6570   59.5920  131.8680 O.3   275  SER275     -0.2179
     18  N        -50.1310   57.6070  133.5330 N.am  276  SER276     -0.1949
     19  CA       -49.9610   57.0420  134.8680 C.3   276  SER276      0.1924
     20  C        -48.5810   57.3410  135.4060 C.2   276  SER276      0.2314
     21  O        -48.4370   57.7260  136.5640 O.2   276  SER276     -0.2863
     22  CB       -50.1720   55.5260  134.8580 C.3   276  SER276      0.2116
     23  OG       -51.5500   55.1830  134.8890 O.3   276  SER276     -0.2180
     24  N        -53.9920   48.4400  134.7100 N.3   310  MET310     -0.1245
     25  CA       -54.8500   49.3980  134.0330 C.3   310  MET310      0.1570
     26  C        -56.2130   48.7390  133.8960 C.2   310  MET310      0.2261
     27  O        -56.4230   47.9140  133.0060 O.2   310  MET310     -0.2867
     28  CB       -54.2390   49.7570  132.6850 C.3   310  MET310      0.0387
     29  CG       -52.8340   50.3850  132.8540 C.3   310  MET310      0.0595
     30  SD       -51.9490   50.7240  131.3540 S.3   310  MET310     -0.1393
     31  CE       -50.5700   51.6410  131.9120 C.3   310  MET310      0.0692
     32  N        -57.8020   51.1290  130.8890 N.3   313  THR313     -0.1218
     33  CA       -57.4390   50.6320  129.5660 C.3   313  THR313      0.1862
     34  C        -58.1170   49.2990  129.2660 C.2   313  THR313      0.2287
     35  O        -58.6200   49.0900  128.1570 O.2   313  THR313     -0.2866
     36  CB       -55.9150   50.5180  129.4420 C.3   313  THR313      0.1770
     37  OG1      -55.3540   51.8280  129.3170 O.3   313  THR313     -0.2211
     38  CG2      -55.5090   49.6920  128.2170 C.3   313  THR313      0.0375
     39  N        -49.5740   47.8760  128.1240 N.3   351  THR351     -0.1203
     40  CA       -49.7270   49.2710  127.7350 C.3   351  THR351      0.1994
     41  C        -48.8490   50.1730  128.6080 C.2   351  THR351      0.2618
     42  O        -48.7810   50.0070  129.8330 O.2   351  THR351     -0.2717
     43  CB       -51.2010   49.6710  127.8340 C.3   351  THR351      0.1784
     44  OG1      -51.9270   49.0380  126.7800 O.3   351  THR351     -0.2211
     45  CG2      -51.3950   51.1680  127.7290 C.3   351  THR351      0.0376
     46  N        -48.1520   51.1110  127.9670 N.am  352  ALA352     -0.1965
     47  CA       -47.3370   52.0630  128.6960 C.3   352  ALA352      0.1728
     48  C        -48.1930   53.0420  129.4930 C.2   352  ALA352      0.2617
     49  O        -49.3750   53.2530  129.2280 O.2   352  ALA352     -0.2715
     50  CB       -46.4490   52.8420  127.7390 C.3   352  ALA352      0.0334
     51  N        -47.5570   53.6770  130.4560 N.am  353  GLY353     -0.1940
     52  CA       -48.2010   54.6270  131.3390 C.3   353  GLY353      0.2014
     53  C        -48.1630   56.0380  130.7870 C.2   353  GLY353      0.2638
     54  O        -48.0190   56.9960  131.5610 O.2   353  GLY353     -0.2714
     55  N        -48.1310   56.1560  129.4630 N.am  354  VAL354     -0.1977
     56  CA       -47.9450   57.4310  128.7620 C.3   354  VAL354      0.1596
     57  C        -49.1290   57.6450  127.8280 C.2   354  VAL354      0.2287
     58  O        -49.8270   56.6830  127.4630 O.2   354  VAL354     -0.2864
     59  CB       -46.6050   57.4570  127.9970 C.3   354  VAL354      0.0276
     60  CG1      -45.4980   56.9910  128.8910 C.3   354  VAL354      0.0022
     61  CG2      -46.7210   56.5970  126.8040 C.3   354  VAL354      0.0022
     62  N        -51.8470   57.8300  125.0230 N.3   356  GLY356     -0.1210
     63  CA       -52.1590   57.1770  123.7580 C.3   356  GLY356      0.1956
     64  C        -51.8240   55.6960  123.6220 C.2   356  GLY356      0.2612
     65  O        -52.2880   55.0600  122.6570 O.2   356  GLY356     -0.2717
     66  N        -51.0850   55.1150  124.5680 N.am  357  ALA357     -0.1965
     67  CA       -50.5280   53.7770  124.3910 C.3   357  ALA357      0.1728
     68  C        -51.5920   52.6990  124.2400 C.2   357  ALA357      0.2616
     69  O        -51.3630   51.7130  123.5340 O.2   357  ALA357     -0.2715
     70  CB       -49.6170   53.4500  125.5740 C.3   357  ALA357      0.0334
     71  N        -52.7360   52.8500  124.9120 N.am  358  GLY358     -0.1955
     72  CA       -53.7740   51.8280  124.8720 C.3   358  GLY358      0.1869
     73  C        -54.4630   51.7050  123.5250 C.2   358  GLY358      0.2309
     74  O        -55.0070   50.6490  123.1910 O.2   358  GLY358     -0.2863
     75  N        -58.9530   58.9780  126.6830 N.3   394  ASP394     -0.1239
     76  CA       -57.7650   58.7100  127.4870 C.3   394  ASP394      0.1674
     77  C        -57.8840   59.3270  128.8820 C.2   394  ASP394      0.2266
     78  O        -57.5670   58.6680  129.8800 O.2   394  ASP394     -0.2867
     79  CB       -56.5210   59.2320  126.7850 C.3   394  ASP394      0.1410
     80  CG       -55.2920   58.4450  127.1420 C.2   394  ASP394      0.3668
     81  OD1      -55.3780   57.6580  128.1020 O.co2 394  ASP394     -0.2456
     82  OD2      -54.2430   58.6280  126.4770 O.co2 394  ASP394     -0.2456
     83  N        -59.8670   57.0690  131.1540 N.3   397  ARG397     -0.1231
     84  CA       -59.2820   55.7540  131.3970 C.3   397  ARG397      0.1694
     85  C        -57.9860   55.8390  132.2050 C.2   397  ARG397      0.2592
     86  O        -57.7010   54.9480  133.0190 O.2   397  ARG397     -0.2718
     87  CB       -59.0700   55.0670  130.0430 C.3   397  ARG397      0.0321
     88  CG       -57.9140   54.1170  129.9370 C.3   397  ARG397      0.0489
     89  CD       -57.0160   54.4490  128.7310 C.3   397  ARG397      0.2205
     90  NE       -57.7250   54.7490  127.4860 N.pl3 397  ARG397     -0.0865
     91  CZ       -57.1280   54.9700  126.3100 C.cat 397  ARG397      0.5346
     92  NH1      -55.8080   54.9180  126.2030 N.pl3 397  ARG397      0.1354
     93  NH2      -57.8460   55.2550  125.2280 N.pl3 397  ARG397      0.1354
     94  N        -57.1930   56.9000  132.0100 N.am  398  THR398     -0.1953
     95  CA       -56.0060   57.0680  132.8400 C.3   398  THR398      0.1897
     96  C        -56.3920   57.2700  134.2980 C.2   398  THR398      0.2313
     97  O        -55.7680   56.7050  135.2040 O.2   398  THR398     -0.2863
     98  CB       -55.1740   58.2540  132.3450 C.3   398  THR398      0.1794
     99  OG1      -54.8780   58.0880  130.9530 O.3   398  THR398     -0.2208
    100  CG2      -53.8420   58.3370  133.1270 C.3   398  THR398      0.0378
    101  N        -57.0800   54.1450  135.7720 N.3   401  ASN401     -0.1240
    102  CA       -55.8590   53.3440  135.8460 C.3   401  ASN401      0.1653
    103  C        -55.1030   53.5570  137.1480 C.2   401  ASN401      0.2266
    104  O        -54.5990   52.5870  137.7230 O.2   401  ASN401     -0.2867
    105  CB       -54.9630   53.6430  134.6570 C.3   401  ASN401      0.1155
    106  CG       -55.4420   52.9690  133.4170 C.2   401  ASN401      0.2627
    107  OD1      -56.3010   52.0930  133.4690 O.2   401  ASN401     -0.2716
    108  ND2      -54.9040   53.3760  132.2770 N.am  401  ASN401     -0.0877
@<TRIPOS>BOND
     1    65    64    2
     2    74    73    2
     3    73    72    1
     4    69    68    2
     5    64    63    1
     6    64    66   am
     7    63    62    1
     8    68    67    1
     9    68    71   am
    10    67    66    1
    11    67    70    1
    12    72    71    1
    13    93    91    1
    14    92    91    1
    15    91    90    2
    16    82    80   ar
    17    11     9    1
    18    75    76    1
    19    44    43    1
    20    79    80    1
    21    79    76    1
    22    61    59    1
    23     8     9    2
    24     8     7    1
    25    80    81   ar
    26     9    10    1
    27    58    57    2
    28    90    89    1
    29    76    77    1
    30    45    43    1
    31    40    43    1
    32    40    39    1
    33    40    41    1
    34    50    47    1
    35    57    56    1
    36     7     6    1
    37    46    41   am
    38    46    47    1
    39    59    56    1
    40    59    60    1
    41    35    34    2
    42    38    36    1
    43    41    42    2
    44    47    48    1
    45    89    88    1
    46    56    55    1
    47    77    78    2
    48    49    48    2
    49     5     6    1
    50     5     2    1
    51    34    33    1
    52    37    36    1
    53    36    33    1
    54    55    53   am
    55    48    51   am
    56    33    32    1
    57     4     3    2
    58    88    87    1
    59    87    84    1
    60    51    52    1
    61     3     2    1
    62     3    12   am
    63     2     1    1
    64    53    52    1
    65    53    54    2
    66    99    98    1
    67    83    84    1
    68    30    31    1
    69    30    29    1
    70    84    85    1
    71    16    17    1
    72    16    13    1
    73    12    13    1
    74    13    14    1
    75    94    85   am
    76    94    95    1
    77    85    86    2
    78   108   106   am
    79    98    95    1
    80    98   100    1
    81    28    29    1
    82    28    25    1
    83    95    96    1
    84    27    26    2
    85    14    18   am
    86    14    15    2
    87   106   107    2
    88   106   105    1
    89    18    19    1
    90    26    25    1
    91    25    24    1
    92    96    97    2
    93   105   102    1
    94    22    19    1
    95    22    23    1
    96    19    20    1
    97    20    21    2
    98   101   102    1
    99   102   103    1
   100   103   104    2
