@<TRIPOS>MOLECULE
tmp/5e9sB11.pdb
 88 80 0 0 0
SMALL
GASTEIGER

@<TRIPOS>ATOM
      1  N        -54.7850   41.6920  138.4990 N.3    88  LEU88      -0.1245
      2  CA       -55.4740   41.0520  137.3870 C.3    88  LEU88       0.1561
      3  C        -56.9400   40.7920  137.7090 C.2    88  LEU88       0.2260
      4  O        -57.7770   40.8300  136.8030 O.2    88  LEU88      -0.2867
      5  CB       -54.7500   39.7860  136.9350 C.3    88  LEU88       0.0270
      6  CG       -54.1950   38.7360  137.8680 C.3    88  LEU88       0.0019
      7  CD1      -55.3120   37.7890  138.2850 C.3    88  LEU88       0.0001
      8  CD2      -53.1120   38.0170  137.0950 C.3    88  LEU88       0.0001
      9  N        -43.0700   38.6910  121.3230 N.3   127  SER127     -0.1202
     10  CA       -42.2250   38.0390  122.3280 C.3   127  SER127      0.2020
     11  C        -42.5960   38.4760  123.7430 C.2   127  SER127      0.2618
     12  O        -42.5130   39.6620  124.0630 O.2   127  SER127     -0.2717
     13  CB       -40.7450   38.3480  122.0550 C.3   127  SER127      0.2103
     14  OG       -40.4330   38.2360  120.6720 O.3   127  SER127     -0.2182
     15  N        -43.0240   37.5240  124.5830 N.am  128  LEU128     -0.1979
     16  CA       -43.3560   37.7380  125.9970 C.3   128  LEU128      0.1596
     17  C        -42.1750   37.5460  126.9420 C.2   128  LEU128      0.2287
     18  O        -42.0450   38.2740  127.9260 O.2   128  LEU128     -0.2864
     19  CB       -44.4860   36.8050  126.4460 C.3   128  LEU128      0.0297
     20  CG       -45.8930   37.4050  126.3760 C.3   128  LEU128      0.0022
     21  CD1      -46.9620   36.3620  126.6570 C.3   128  LEU128      0.0001
     22  CD2      -46.0120   38.5600  127.3400 C.3   128  LEU128      0.0001
     23  N        -39.9470   40.3010  127.1920 N.3   131  THR131     -0.1203
     24  CA       -40.6420   41.3190  127.9650 C.3   131  THR131      0.1994
     25  C        -40.4060   41.1450  129.4680 C.2   131  THR131      0.2617
     26  O        -40.1740   42.1320  130.1750 O.2   131  THR131     -0.2717
     27  CB       -42.1270   41.2920  127.5790 C.3   131  THR131      0.1784
     28  OG1      -42.2890   41.9560  126.3150 O.3   131  THR131     -0.2211
     29  CG2      -43.0100   41.9350  128.6270 C.3   131  THR131      0.0376
     30  N        -40.3980   39.8970  129.9620 N.am  132  LEU132     -0.1979
     31  CA       -40.0960   39.6320  131.3740 C.3   132  LEU132      0.1596
     32  C        -38.6150   39.8440  131.6940 C.2   132  LEU132      0.2287
     33  O        -38.2680   40.5250  132.6670 O.2   132  LEU132     -0.2864
     34  CB       -40.5170   38.2100  131.7560 C.3   132  LEU132      0.0297
     35  CG       -42.0130   37.9620  131.8330 C.3   132  LEU132      0.0022
     36  CD1      -42.2930   36.5850  132.3880 C.3   132  LEU132      0.0001
     37  CD2      -42.6210   39.0150  132.7370 C.3   132  LEU132      0.0001
     38  N        -59.4680   38.0210  128.2710 N.3   342  LEU342     -0.1245
     39  CA       -58.0740   37.6300  128.4550 C.3   342  LEU342      0.1561
     40  C        -57.1220   38.5810  127.7430 C.2   342  LEU342      0.2260
     41  O        -56.1140   39.0070  128.3190 O.2   342  LEU342     -0.2867
     42  CB       -57.8590   36.1960  127.9750 C.3   342  LEU342      0.0270
     43  CG       -56.3940   35.8610  127.6810 C.3   342  LEU342      0.0019
     44  CD1      -55.5440   35.8690  128.9380 C.3   342  LEU342      0.0001
     45  CD2      -56.2950   34.5170  126.9700 C.3   342  LEU342      0.0001
     46  N        -56.8450   42.1690  129.2570 N.3   345  VAL345     -0.1231
     47  CA       -56.0090   42.1220  130.4550 C.3   345  VAL345      0.1692
     48  C        -54.5400   42.0920  130.0370 C.2   345  VAL345      0.2591
     49  O        -53.7090   42.8470  130.5550 O.2   345  VAL345     -0.2718
     50  CB       -56.4010   40.9270  131.3470 C.3   345  VAL345      0.0266
     51  CG1      -55.3880   40.7040  132.4740 C.3   345  VAL345      0.0020
     52  CG2      -57.8100   41.1010  131.9030 C.3   345  VAL345      0.0020
     53  N        -54.2060   41.2520  129.0490 N.am  346  LEU346     -0.1980
     54  CA       -52.8340   41.2320  128.5400 C.3   346  LEU346      0.1596
     55  C        -52.4430   42.5620  127.9090 C.2   346  LEU346      0.2287
     56  O        -51.3490   43.0760  128.1670 O.2   346  LEU346     -0.2864
     57  CB       -52.6430   40.0850  127.5460 C.3   346  LEU346      0.0297
     58  CG       -52.6950   38.7690  128.3140 C.3   346  LEU346      0.0022
     59  CD1      -52.7280   37.5410  127.4220 C.3   346  LEU346      0.0001
     60  CD2      -51.4700   38.7430  129.2300 C.3   346  LEU346      0.0001
     61  N        -51.9560   45.2550  130.5580 N.3   349  ILE349     -0.1231
     62  CA       -50.6930   45.0610  131.2840 C.3   349  ILE349      0.1692
     63  C        -49.5200   45.6290  130.4920 C.2   349  ILE349      0.2592
     64  O        -48.6310   46.2890  131.0450 O.2   349  ILE349     -0.2718
     65  CB       -50.4650   43.5680  131.5880 C.3   349  ILE349      0.0266
     66  CG1      -51.4940   43.0310  132.5580 C.3   349  ILE349      0.0019
     67  CG2      -49.0950   43.3560  132.2130 C.3   349  ILE349      0.0020
     68  CD1      -51.4180   41.5540  132.6870 C.3   349  ILE349      0.0001
     69  N        -49.4920   45.3680  129.1910 N.am  350  GLY350     -0.1957
     70  CA       -48.4040   45.7690  128.3160 C.3   350  GLY350      0.1869
     71  C        -48.4780   47.1870  127.8280 C.2   350  GLY350      0.2309
     72  O        -47.5640   47.6380  127.1320 O.2   350  GLY350     -0.2863
     73  N        -52.1560   49.4400  121.6060 N.3   361  MET361     -0.1245
     74  CA       -52.3500   48.0960  122.1380 C.3   361  MET361      0.1570
     75  C        -53.7260   47.5500  121.8120 C.2   361  MET361      0.2261
     76  O        -53.9380   46.3360  121.8990 O.2   361  MET361     -0.2867
     77  CB       -52.1580   48.1010  123.6540 C.3   361  MET361      0.0387
     78  CG       -50.7450   48.3660  124.0020 C.3   361  MET361      0.0595
     79  SD       -49.7300   47.1510  123.1900 S.3   361  MET361     -0.1393
     80  CE       -50.3250   45.6380  123.9260 C.3   361  MET361      0.0692
     81  N        -53.7450   44.7560  119.0790 N.3   364  MET364     -0.1245
     82  CA       -53.5540   43.3610  119.4570 C.3   364  MET364      0.1570
     83  C        -54.8660   42.7170  119.8600 C.2   364  MET364      0.2261
     84  O        -55.1360   41.5620  119.5120 O.2   364  MET364     -0.2867
     85  CB       -52.5460   43.2590  120.5930 C.3   364  MET364      0.0387
     86  CG       -51.3220   44.1440  120.4100 C.3   364  MET364      0.0595
     87  SD       -49.7730   43.2230  120.4390 S.3   364  MET364     -0.1393
     88  CE       -50.1380   41.9490  119.2110 C.3   364  MET364      0.0692
@<TRIPOS>BOND
     1    81    82    1
     2    88    87    1
     3    82    83    1
     4    82    85    1
     5    84    83    2
     6    86    87    1
     7    86    85    1
     8    14    13    1
     9     9    10    1
    10    73    74    1
    11    75    76    2
    12    75    74    1
    13    13    10    1
    14    74    77    1
    15    10    11    1
    16    79    80    1
    17    79    78    1
    18    77    78    1
    19    11    12    2
    20    11    15   am
    21    15    16    1
    22    16    19    1
    23    16    17    1
    24    28    27    1
    25    20    19    1
    26    20    21    1
    27    20    22    1
    28    17    18    2
    29    45    43    1
    30    72    71    2
    31    23    24    1
    32    59    58    1
    33    57    58    1
    34    57    54    1
    35    27    24    1
    36    27    29    1
    37    43    42    1
    38    43    44    1
    39    40    41    2
    40    40    39    1
    41    71    70    1
    42    55    56    2
    43    55    54    1
    44    24    25    1
    45    42    39    1
    46    38    39    1
    47    58    60    1
    48    70    69    1
    49    54    53    1
    50    53    48   am
    51    69    63   am
    52    46    47    1
    53    25    30   am
    54    25    26    2
    55    30    31    1
    56    48    47    1
    57    48    49    2
    58    47    50    1
    59    63    64    2
    60    63    62    1
    61    61    62    1
    62    62    65    1
    63    50    52    1
    64    50    51    1
    65    31    32    1
    66    31    34    1
    67    65    67    1
    68    65    66    1
    69    32    33    2
    70    34    35    1
    71    35    36    1
    72    35    37    1
    73    66    68    1
    74     4     3    2
    75     5     2    1
    76     5     6    1
    77     8     6    1
    78     2     3    1
    79     2     1    1
    80     6     7    1
