@<TRIPOS>MOLECULE
tmp/5e9sA03.pdb
 67 62 0 0 0
SMALL
GASTEIGER

@<TRIPOS>ATOM
      1  N        -13.9340   69.0030  130.1770 N.3    53  LYS53      -0.1245
      2  CA       -15.2930   68.5590  129.8870 C.3    53  LYS53       0.1561
      3  C        -15.7760   67.5900  130.9550 C.2    53  LYS53       0.2260
      4  O        -16.9480   67.6140  131.3460 O.2    53  LYS53      -0.2867
      5  CB       -15.3710   67.9200  128.4850 C.3    53  LYS53       0.0271
      6  CG       -15.4690   68.9330  127.3190 C.3    53  LYS53       0.0035
      7  CD       -15.4700   68.2430  125.9610 C.3    53  LYS53       0.0206
      8  CE       -15.4800   69.2180  124.7930 C.3    53  LYS53       0.1093
      9  NZ       -15.1650   68.5040  123.5200 N.3    53  LYS53      -0.1314
     10  N        -27.0200   63.5360  129.1060 N.3   146  LYS146     -0.1231
     11  CA       -26.9400   64.2680  127.8470 C.3   146  LYS146      0.1693
     12  C        -26.2060   65.6000  127.9850 C.2   146  LYS146      0.2593
     13  O        -26.1160   66.3510  127.0190 O.2   146  LYS146     -0.2718
     14  CB       -28.3500   64.4970  127.2880 C.3   146  LYS146      0.0285
     15  CG       -29.0490   63.2270  126.8610 C.3   146  LYS146      0.0035
     16  CD       -30.5700   63.3420  126.9550 C.3   146  LYS146      0.0206
     17  CE       -31.1840   64.1190  125.8100 C.3   146  LYS146      0.1093
     18  NZ       -32.3840   64.8630  126.3030 N.3   146  LYS146     -0.1314
     19  N        -25.7100   65.9300  129.1650 N.am  147  GLY147     -0.1942
     20  CA       -24.9330   67.1410  129.3300 C.3   147  GLY147      0.2014
     21  C        -25.6700   68.4530  129.1890 C.2   147  GLY147      0.2639
     22  O        -25.0520   69.4520  128.8000 O.2   147  GLY147     -0.2714
     23  N        -26.9350   68.5150  129.5950 N.am  148  GLU148     -0.1963
     24  CA       -27.7330   69.7250  129.4340 C.3   148  GLU148      0.1733
     25  C        -27.6130   70.6000  130.6880 C.2   148  GLU148      0.2616
     26  O        -28.1810   70.2840  131.7370 O.2   148  GLU148     -0.2715
     27  CB       -29.1800   69.3390  129.1350 C.3   148  GLU148      0.0429
     28  CG       -29.2920   68.4540  127.9050 C.3   148  GLU148      0.1163
     29  CD       -30.6500   67.7280  127.7760 C.2   148  GLU148      0.3649
     30  OE1      -31.5290   67.8860  128.6680 O.co2 148  GLU148     -0.2457
     31  OE2      -30.8080   66.9570  126.7920 O.co2 148  GLU148     -0.2457
     32  N        -26.9270   71.7360  130.5620 N.am  149  VAL149     -0.1977
     33  CA       -26.6140   72.5440  131.7360 C.3   149  VAL149      0.1596
     34  C        -27.8510   73.2680  132.2480 C.2   149  VAL149      0.2287
     35  O        -28.1450   73.2500  133.4430 O.2   149  VAL149     -0.2864
     36  CB       -25.4820   73.5380  131.4190 C.3   149  VAL149      0.0276
     37  CG1      -25.4080   74.6360  132.4710 C.3   149  VAL149      0.0022
     38  CG2      -24.1580   72.8440  131.3640 C.3   149  VAL149      0.0022
     39  N        -19.0030   76.5170  127.9220 N.3   277  SER277     -0.1217
     40  CA       -19.4140   75.4060  128.7680 C.3   277  SER277      0.1889
     41  C        -18.2310   74.5460  129.1690 C.2   277  SER277      0.2288
     42  O        -18.0720   74.2090  130.3470 O.2   277  SER277     -0.2866
     43  CB       -20.4680   74.5730  128.0540 C.3   277  SER277      0.2089
     44  OG       -21.7330   75.1730  128.2200 O.3   277  SER277     -0.2183
     45  N        -24.1870   80.0990  129.1290 N.3   307  THR307     -0.1218
     46  CA       -25.0820   79.9210  128.0010 C.3   307  THR307      0.1862
     47  C        -25.7120   81.2430  127.5840 C.2   307  THR307      0.2287
     48  O        -25.5730   81.6480  126.4280 O.2   307  THR307     -0.2866
     49  CB       -26.1450   78.8640  128.2990 C.3   307  THR307      0.1770
     50  OG1      -25.4890   77.6430  128.6830 O.3   307  THR307     -0.2211
     51  CG2      -26.9460   78.6370  127.0510 C.3   307  THR307      0.0375
     52  N        -25.0280   77.7910  121.8080 N.3   352  ALA352     -0.1231
     53  CA       -24.3640   76.9350  122.7670 C.3   352  ALA352      0.1694
     54  C        -22.9550   77.4570  123.0920 C.2   352  ALA352      0.2593
     55  O        -22.3160   78.1840  122.3320 O.2   352  ALA352     -0.2718
     56  CB       -24.2800   75.5070  122.2330 C.3   352  ALA352      0.0304
     57  N        -22.4510   76.9750  124.2050 N.am  353  GLY353     -0.1942
     58  CA       -21.1980   77.3200  124.8420 C.3   353  GLY353      0.2014
     59  C        -20.0800   76.4760  124.2750 C.2   353  GLY353      0.2638
     60  O        -19.2150   76.0200  125.0320 O.2   353  GLY353     -0.2714
     61  N        -20.2200   76.0690  123.0160 N.am  354  VAL354     -0.1977
     62  CA       -19.3150   75.1050  122.3960 C.3   354  VAL354      0.1596
     63  C        -18.7130   75.7340  121.1350 C.2   354  VAL354      0.2287
     64  O        -19.2730   76.6890  120.5830 O.2   354  VAL354     -0.2864
     65  CB       -20.0350   73.7890  122.0490 C.3   354  VAL354      0.0276
     66  CG1      -20.7970   73.3270  123.2450 C.3   354  VAL354      0.0022
     67  CG2      -20.9440   74.0470  120.8760 C.3   354  VAL354      0.0022
@<TRIPOS>BOND
     1    64    63    2
     2    67    65    1
     3    63    62    1
     4    52    53    1
     5    65    62    1
     6    65    66    1
     7    56    53    1
     8    55    54    2
     9    62    61    1
    10    53    54    1
    11    61    59   am
    12    54    57   am
    13     9     8    1
    14    57    58    1
    15    59    58    1
    16    59    60    2
    17     8     7    1
    18    17    18    1
    19    17    16    1
    20     7     6    1
    21    48    47    2
    22    31    29   ar
    23    15    16    1
    24    15    14    1
    25    13    12    2
    26    51    49    1
    27    14    11    1
    28     6     5    1
    29    47    46    1
    30    29    28    1
    31    29    30   ar
    32    11    12    1
    33    11    10    1
    34    28    27    1
    35    39    40    1
    36    12    19   am
    37    46    49    1
    38    46    45    1
    39    43    44    1
    40    43    40    1
    41    49    50    1
    42     5     2    1
    43    40    41    1
    44    22    21    2
    45    27    24    1
    46    19    20    1
    47    41    42    2
    48    21    20    1
    49    21    23   am
    50    24    23    1
    51    24    25    1
    52     2     1    1
    53     2     3    1
    54    32    25   am
    55    32    33    1
    56    25    26    2
    57     3     4    2
    58    38    36    1
    59    36    33    1
    60    36    37    1
    61    33    34    1
    62    34    35    2
