@<TRIPOS>MOLECULE
tmp/5e9sC05.pdb
 79 75 0 0 0
SMALL
GASTEIGER

@<TRIPOS>ATOM
      1  N         -0.7560   20.9450  116.0780 N.3   105  PHE105     -0.1241
      2  CA        -1.9720   20.3230  115.5690 C.3   105  PHE105      0.1605
      3  C         -2.0900   20.4130  114.0420 C.2   105  PHE105      0.2264
      4  O         -3.0410   19.8570  113.4790 O.2   105  PHE105     -0.2867
      5  CB        -3.1940   20.9530  116.2650 C.3   105  PHE105      0.0534
      6  CG        -3.4610   20.4190  117.6690 C.ar  105  PHE105     -0.0203
      7  CD1       -2.5610   20.6420  118.7090 C.ar  105  PHE105     -0.0042
      8  CD2       -4.6400   19.7470  117.9560 C.ar  105  PHE105     -0.0042
      9  CE1       -2.8140   20.1670  120.0010 C.ar  105  PHE105     -0.0003
     10  CE2       -4.9030   19.2750  119.2440 C.ar  105  PHE105     -0.0003
     11  CZ        -3.9890   19.4860  120.2660 C.ar  105  PHE105     -0.0000
     12  N        -18.1920   20.5200  115.6310 N.3   222  VAL222     -0.1231
     13  CA       -16.7920   20.1230  115.6790 C.3   222  VAL222      0.1692
     14  C        -16.7420   18.6980  115.1440 C.2   222  VAL222      0.2591
     15  O        -16.6440   17.7370  115.9170 O.2   222  VAL222     -0.2718
     16  CB       -16.3460   20.1860  117.1640 C.3   222  VAL222      0.0266
     17  CG1      -14.8750   20.0400  117.3500 C.3   222  VAL222      0.0020
     18  CG2      -16.8650   21.4560  117.8540 C.3   222  VAL222      0.0020
     19  N        -16.7290   18.5510  113.8180 N.am  223  VAL223     -0.1980
     20  CA       -16.3570   17.3020  113.1650 C.3   223  VAL223      0.1595
     21  C        -15.1340   17.4100  112.2550 C.2   223  VAL223      0.2287
     22  O        -14.6460   16.3820  111.7630 O.2   223  VAL223     -0.2864
     23  CB       -17.5700   16.7160  112.4030 C.3   223  VAL223      0.0276
     24  CG1      -17.9700   17.5900  111.2280 C.3   223  VAL223      0.0022
     25  CG2      -17.3640   15.2460  112.0040 C.3   223  VAL223      0.0022
     26  N        -12.3990   20.7600  114.1230 N.3   227  ALA227     -0.1245
     27  CA       -12.1730   19.9780  115.3300 C.3   227  ALA227      0.1562
     28  C        -10.7270   20.0990  115.8000 C.2   227  ALA227      0.2260
     29  O        -10.4690   20.2220  117.0030 O.2   227  ALA227     -0.2867
     30  CB       -12.5610   18.5210  115.0900 C.3   227  ALA227      0.0290
     31  N        -10.4830   23.4450  117.6800 N.3   230  VAL230     -0.1231
     32  CA       -10.9890   23.3480  119.0430 C.3   230  VAL230      0.1692
     33  C         -9.9530   22.6590  119.9150 C.2   230  VAL230      0.2592
     34  O         -9.6320   23.1300  121.0120 O.2   230  VAL230     -0.2718
     35  CB       -12.3340   22.6020  119.0600 C.3   230  VAL230      0.0266
     36  CG1      -12.8090   22.4260  120.4880 C.3   230  VAL230      0.0020
     37  CG2      -13.3620   23.3300  118.2220 C.3   230  VAL230      0.0020
     38  N         -9.3610   21.5740  119.4020 N.am  231  GLY231     -0.1957
     39  CA        -8.3520   20.8600  120.1620 C.3   231  GLY231      0.1869
     40  C         -7.0880   21.6710  120.3960 C.2   231  GLY231      0.2309
     41  O         -6.4990   21.6140  121.4780 O.2   231  GLY231     -0.2863
     42  N         -7.9020   24.7680  122.9180 N.3   234  TYR234     -0.1227
     43  CA        -8.0770   24.2630  124.2630 C.3   234  TYR234      0.1736
     44  C         -6.7760   23.7170  124.8110 C.2   234  TYR234      0.2596
     45  O         -6.4710   23.9030  125.9930 O.2   234  TYR234     -0.2718
     46  CB        -9.1960   23.2340  124.2710 C.3   234  TYR234      0.0548
     47  CG       -10.4930   23.9770  124.4130 C.ar  234  TYR234     -0.0200
     48  CD1      -11.1020   24.5520  123.3180 C.ar  234  TYR234     -0.0009
     49  CD2      -11.0570   24.1900  125.6670 C.ar  234  TYR234     -0.0009
     50  CE1      -12.2510   25.2610  123.4520 C.ar  234  TYR234      0.0417
     51  CE2      -12.2110   24.9020  125.8110 C.ar  234  TYR234      0.0417
     52  CZ       -12.8040   25.4360  124.7010 C.ar  234  TYR234      0.1957
     53  OH       -13.9740   26.1450  124.8350 O.3   234  TYR234     -0.2866
     54  N         -5.9850   23.0620  123.9700 N.am  235  THR235     -0.1953
     55  CA        -4.6580   22.6500  124.4090 C.3   235  THR235      0.1897
     56  C         -3.8280   23.8550  124.8380 C.2   235  THR235      0.2313
     57  O         -3.2130   23.8570  125.9110 O.2   235  THR235     -0.2863
     58  CB        -3.9480   21.8860  123.2930 C.3   235  THR235      0.1794
     59  OG1       -4.6120   20.6330  123.0710 O.3   235  THR235     -0.2208
     60  CG2       -2.5180   21.6290  123.6940 C.3   235  THR235      0.0378
     61  N         -5.0220   25.6140  127.9920 N.3   238  PHE238     -0.1241
     62  CA        -4.5850   24.7480  129.0720 C.3   238  PHE238      0.1605
     63  C         -3.1300   25.0150  129.4080 C.2   238  PHE238      0.2264
     64  O         -2.7920   25.2910  130.5610 O.2   238  PHE238     -0.2867
     65  CB        -4.8090   23.2970  128.6500 C.3   238  PHE238      0.0534
     66  CG        -4.4500   22.2950  129.6800 C.ar  238  PHE238     -0.0203
     67  CD1       -5.3150   22.0060  130.7130 C.ar  238  PHE238     -0.0042
     68  CD2       -3.2450   21.6120  129.5960 C.ar  238  PHE238     -0.0042
     69  CE1       -4.9750   21.0520  131.6690 C.ar  238  PHE238     -0.0003
     70  CE2       -2.9000   20.6570  130.5420 C.ar  238  PHE238     -0.0003
     71  CZ        -3.7670   20.3750  131.5770 C.ar  238  PHE238     -0.0000
     72  N        -17.7890   28.0030  120.8260 N.3   392  ILE392     -0.1245
     73  CA       -16.9560   26.9700  121.4500 C.3   392  ILE392      0.1561
     74  C        -15.5940   27.5370  121.8220 C.2   392  ILE392      0.2260
     75  O        -15.0610   27.2770  122.9100 O.2   392  ILE392     -0.2867
     76  CB       -16.7900   25.7690  120.4950 C.3   392  ILE392      0.0252
     77  CG1      -18.1200   25.0680  120.1860 C.3   392  ILE392      0.0019
     78  CG2      -15.7770   24.7740  121.0480 C.3   392  ILE392      0.0019
     79  CD1      -18.5280   24.0200  121.1990 C.3   392  ILE392      0.0001
@<TRIPOS>BOND
     1    24    23    1
     2    22    21    2
     3    25    23    1
     4    21    20    1
     5    23    20    1
     6    20    19    1
     7     4     3    2
     8    19    14   am
     9     3     2    1
    10    26    27    1
    11    30    27    1
    12    14    13    1
    13    14    15    2
    14    27    28    1
    15     2     1    1
    16     2     5    1
    17    12    13    1
    18    13    16    1
    19    28    29    2
    20     5     6    1
    21    16    17    1
    22    16    18    1
    23     6     8   ar
    24     6     7   ar
    25    31    32    1
    26     8    10   ar
    27    37    35    1
    28     7     9   ar
    29    32    35    1
    30    32    33    1
    31    35    36    1
    32    10    11   ar
    33    38    33   am
    34    38    39    1
    35    33    34    2
    36     9    11   ar
    37    39    40    1
    38    77    76    1
    39    77    79    1
    40    40    41    2
    41    76    78    1
    42    76    73    1
    43    72    73    1
    44    73    74    1
    45    74    75    2
    46    42    43    1
    47    59    58    1
    48    58    60    1
    49    58    55    1
    50    48    50   ar
    51    48    47   ar
    52    50    52   ar
    53    54    55    1
    54    54    44   am
    55    43    46    1
    56    43    44    1
    57    46    47    1
    58    55    56    1
    59    47    49   ar
    60    52    53    1
    61    52    51   ar
    62    44    45    2
    63    56    57    2
    64    49    51   ar
    65    61    62    1
    66    65    62    1
    67    65    66    1
    68    62    63    1
    69    63    64    2
    70    68    66   ar
    71    68    70   ar
    72    66    67   ar
    73    70    71   ar
    74    67    69   ar
    75    71    69   ar
