@<TRIPOS>MOLECULE
tmp/5e9sB07.pdb
 145 136 0 0 0
SMALL
GASTEIGER

@<TRIPOS>ATOM
      1  N        -43.0570   65.2820  135.5010 N.3    53  LYS53      -0.1245
      2  CA       -42.1850   64.2730  134.9090 C.3    53  LYS53       0.1561
      3  C        -40.8010   64.2760  135.5320 C.2    53  LYS53       0.2260
      4  O        -40.2600   63.2020  135.8210 O.2    53  LYS53      -0.2867
      5  CB       -42.0700   64.4860  133.4010 C.3    53  LYS53       0.0271
      6  CG       -43.2210   63.9360  132.5710 C.3    53  LYS53       0.0035
      7  CD       -42.9860   64.2910  131.1200 C.3    53  LYS53       0.0206
      8  CE       -44.1030   63.8100  130.2390 C.3    53  LYS53       0.1093
      9  NZ       -43.9590   64.4810  128.9230 N.3    53  LYS53      -0.1314
     10  N        -40.3230   61.8040  138.4820 N.3    56  VAL56      -0.1245
     11  CA       -40.7210   60.3910  138.4940 C.3    56  VAL56       0.1561
     12  C        -39.5370   59.4940  138.8500 C.2    56  VAL56       0.2260
     13  O        -39.6080   58.7060  139.7960 O.2    56  VAL56      -0.2867
     14  CB       -41.3770   59.9740  137.1660 C.3    56  VAL56       0.0252
     15  CG1      -41.7400   58.5240  137.2200 C.3    56  VAL56       0.0019
     16  CG2      -42.6370   60.7570  136.9360 C.3    56  VAL56       0.0019
     17  N        -39.9470   40.3010  127.1920 N.3   131  THR131     -0.1203
     18  CA       -40.6420   41.3190  127.9650 C.3   131  THR131      0.1994
     19  C        -40.4060   41.1450  129.4680 C.2   131  THR131      0.2617
     20  O        -40.1740   42.1320  130.1750 O.2   131  THR131     -0.2717
     21  CB       -42.1270   41.2920  127.5790 C.3   131  THR131      0.1784
     22  OG1      -42.2890   41.9560  126.3150 O.3   131  THR131     -0.2211
     23  CG2      -43.0100   41.9350  128.6270 C.3   131  THR131      0.0376
     24  N        -40.3980   39.8970  129.9620 N.am  132  LEU132     -0.1979
     25  CA       -40.0960   39.6320  131.3740 C.3   132  LEU132      0.1596
     26  C        -38.6150   39.8440  131.6940 C.2   132  LEU132      0.2287
     27  O        -38.2680   40.5250  132.6670 O.2   132  LEU132     -0.2864
     28  CB       -40.5170   38.2100  131.7560 C.3   132  LEU132      0.0297
     29  CG       -42.0130   37.9620  131.8330 C.3   132  LEU132      0.0022
     30  CD1      -42.2930   36.5850  132.3880 C.3   132  LEU132      0.0001
     31  CD2      -42.6210   39.0150  132.7370 C.3   132  LEU132      0.0001
     32  N        -37.4360   43.0900  132.6810 N.3   135  ILE135     -0.1245
     33  CA       -37.6490   43.6210  134.0220 C.3   135  ILE135      0.1561
     34  C        -36.3160   43.8400  134.7290 C.2   135  ILE135      0.2260
     35  O        -36.1400   44.8270  135.4470 O.2   135  ILE135     -0.2867
     36  CB       -38.5700   42.6820  134.8130 C.3   135  ILE135      0.0252
     37  CG1      -40.0200   42.8680  134.3690 C.3   135  ILE135      0.0019
     38  CG2      -38.3870   42.8810  136.2950 C.3   135  ILE135      0.0019
     39  CD1      -40.9720   41.8430  134.9970 C.3   135  ILE135      0.0001
     40  N        -33.1180   56.5050  130.8290 N.3   146  LYS146     -0.1231
     41  CA       -34.1700   56.1780  129.8860 C.3   146  LYS146      0.1693
     42  C        -35.5300   56.1420  130.5470 C.2   146  LYS146      0.2593
     43  O        -36.5070   55.7990  129.8970 O.2   146  LYS146     -0.2718
     44  CB       -33.8630   54.8370  129.2180 C.3   146  LYS146      0.0285
     45  CG       -32.6410   54.9100  128.3390 C.3   146  LYS146      0.0035
     46  CD       -31.9100   53.5840  128.2610 C.3   146  LYS146      0.0206
     47  CE       -32.5610   52.5970  127.3270 C.3   146  LYS146      0.1093
     48  NZ       -32.0030   52.7380  125.9370 N.3   146  LYS146     -0.1314
     49  N        -35.6140   56.4200  131.8340 N.am  147  GLY147     -0.1942
     50  CA       -36.9170   56.5090  132.4570 C.3   147  GLY147      0.2014
     51  C        -37.7070   55.2270  132.4810 C.2   147  GLY147      0.2639
     52  O        -38.9320   55.2630  132.3690 O.2   147  GLY147     -0.2714
     53  N        -37.0520   54.0950  132.6300 N.am  148  GLU148     -0.1963
     54  CA       -37.7440   52.8150  132.6460 C.3   148  GLU148      0.1733
     55  C        -38.1070   52.4680  134.0850 C.2   148  GLU148      0.2616
     56  O        -37.2360   52.0940  134.8810 O.2   148  GLU148     -0.2715
     57  CB       -36.8580   51.7440  132.0270 C.3   148  GLU148      0.0429
     58  CG       -36.4460   52.0840  130.6200 C.3   148  GLU148      0.1163
     59  CD       -35.2830   51.2520  130.1220 C.2   148  GLU148      0.3649
     60  OE1      -34.7400   50.4350  130.9110 O.co2 148  GLU148     -0.2457
     61  OE2      -34.9130   51.4290  128.9360 O.co2 148  GLU148     -0.2457
     62  N        -39.4050   52.5090  134.4010 N.am  149  VAL149     -0.1963
     63  CA       -39.8140   52.3850  135.7960 C.3   149  VAL149      0.1727
     64  C        -39.5890   50.9650  136.3060 C.2   149  VAL149      0.2616
     65  O        -38.9480   50.7770  137.3450 O.2   149  VAL149     -0.2715
     66  CB       -41.2810   52.8190  135.9740 C.3   149  VAL149      0.0290
     67  CG1      -41.8290   52.3180  137.3060 C.3   149  VAL149      0.0023
     68  CG2      -41.4020   54.3280  135.9130 C.3   149  VAL149      0.0023
     69  N        -40.0500   49.9440  135.5750 N.am  150  LEU150     -0.1977
     70  CA       -39.9610   48.5910  136.1310 C.3   150  LEU150      0.1596
     71  C        -38.5360   48.0910  136.3740 C.2   150  LEU150      0.2287
     72  O        -38.3160   47.4320  137.4040 O.2   150  LEU150     -0.2864
     73  CB       -40.7240   47.5810  135.2720 C.3   150  LEU150      0.0297
     74  CG       -42.1350   47.2020  135.7090 C.3   150  LEU150      0.0022
     75  CD1      -42.9630   48.4400  135.8930 C.3   150  LEU150      0.0001
     76  CD2      -42.7430   46.3180  134.6450 C.3   150  LEU150      0.0001
     77  N        -47.5500   57.1930  134.5690 N.3   277  SER277     -0.1217
     78  CA       -46.1770   57.4400  135.0140 C.3   277  SER277      0.1889
     79  C        -45.9640   58.8960  135.4190 C.2   277  SER277      0.2288
     80  O        -45.3900   59.1760  136.4750 O.2   277  SER277     -0.2866
     81  CB       -45.1960   57.0430  133.9030 C.3   277  SER277      0.2089
     82  OG       -44.9770   55.6440  133.9230 O.3   277  SER277     -0.2183
     83  N        -45.2800   49.9220  140.3460 N.3   304  LEU304     -0.1245
     84  CA       -45.6160   48.6990  139.6420 C.3   304  LEU304      0.1561
     85  C        -46.9880   48.8210  139.0040 C.2   304  LEU304      0.2260
     86  O        -47.1630   48.5300  137.8180 O.2   304  LEU304     -0.2867
     87  CB       -45.5840   47.5290  140.6210 C.3   304  LEU304      0.0270
     88  CG       -46.0390   46.2030  140.0390 C.3   304  LEU304      0.0019
     89  CD1      -45.0220   45.7610  139.0260 C.3   304  LEU304      0.0001
     90  CD2      -46.2330   45.1850  141.1260 C.3   304  LEU304      0.0001
     91  N        -48.6570   51.4540  138.0870 N.3   306  ALA306     -0.1231
     92  CA       -48.7510   52.4440  137.0170 C.3   306  ALA306      0.1694
     93  C        -48.5240   51.8210  135.6550 C.2   306  ALA306      0.2593
     94  O        -48.9730   52.3700  134.6420 O.2   306  ALA306     -0.2718
     95  CB       -47.7590   53.5790  137.2430 C.3   306  ALA306      0.0304
     96  N        -47.7940   50.7090  135.6010 N.am  307  THR307     -0.1939
     97  CA       -47.5970   49.9730  134.3580 C.3   307  THR307      0.2028
     98  C        -48.5840   48.8130  134.2450 C.2   307  THR307      0.2642
     99  O        -49.3910   48.7800  133.3130 O.2   307  THR307     -0.2714
    100  CB       -46.1460   49.4700  134.2400 C.3   307  THR307      0.1808
    101  OG1      -45.2200   50.5680  134.3520 O.3   307  THR307     -0.2208
    102  CG2      -45.9350   48.7250  132.9280 C.3   307  THR307      0.0379
    103  N        -48.5390   47.8450  135.1700 N.am  308  ILE308     -0.1977
    104  CA       -49.2740   46.6070  134.9200 C.3   308  ILE308      0.1596
    105  C        -50.7510   46.6390  135.3200 C.2   308  ILE308      0.2287
    106  O        -51.5320   45.8110  134.8120 O.2   308  ILE308     -0.2864
    107  CB       -48.5660   45.3920  135.5590 C.3   308  ILE308      0.0276
    108  CG1      -48.7590   45.3360  137.0610 C.3   308  ILE308      0.0022
    109  CG2      -47.0860   45.3940  135.2330 C.3   308  ILE308      0.0022
    110  CD1      -48.1560   44.0980  137.6350 C.3   308  ILE308      0.0001
    111  N        -51.9560   45.2550  130.5580 N.3   349  ILE349     -0.1231
    112  CA       -50.6930   45.0610  131.2840 C.3   349  ILE349      0.1692
    113  C        -49.5200   45.6290  130.4920 C.2   349  ILE349      0.2593
    114  O        -48.6310   46.2890  131.0450 O.2   349  ILE349     -0.2718
    115  CB       -50.4650   43.5680  131.5880 C.3   349  ILE349      0.0266
    116  CG1      -51.4940   43.0310  132.5580 C.3   349  ILE349      0.0019
    117  CG2      -49.0950   43.3560  132.2130 C.3   349  ILE349      0.0020
    118  CD1      -51.4180   41.5540  132.6870 C.3   349  ILE349      0.0001
    119  N        -49.4920   45.3680  129.1910 N.am  350  GLY350     -0.1942
    120  CA       -48.4040   45.7690  128.3160 C.3   350  GLY350      0.2014
    121  C        -48.4780   47.1870  127.8280 C.2   350  GLY350      0.2640
    122  O        -47.5640   47.6380  127.1320 O.2   350  GLY350     -0.2714
    123  N        -49.5740   47.8760  128.1240 N.am  351  THR351     -0.1936
    124  CA       -49.7270   49.2710  127.7350 C.3   351  THR351      0.2028
    125  C        -48.8490   50.1730  128.6080 C.2   351  THR351      0.2642
    126  O        -48.7810   50.0070  129.8330 O.2   351  THR351     -0.2714
    127  CB       -51.2010   49.6710  127.8340 C.3   351  THR351      0.1808
    128  OG1      -51.9270   49.0380  126.7800 O.3   351  THR351     -0.2208
    129  CG2      -51.3950   51.1680  127.7290 C.3   351  THR351      0.0379
    130  N        -48.1520   51.1110  127.9670 N.am  352  ALA352     -0.1963
    131  CA       -47.3370   52.0630  128.6960 C.3   352  ALA352      0.1728
    132  C        -48.1930   53.0420  129.4930 C.2   352  ALA352      0.2617
    133  O        -49.3750   53.2530  129.2280 O.2   352  ALA352     -0.2715
    134  CB       -46.4490   52.8420  127.7390 C.3   352  ALA352      0.0334
    135  N        -47.5570   53.6770  130.4560 N.am  353  GLY353     -0.1940
    136  CA       -48.2010   54.6270  131.3390 C.3   353  GLY353      0.2014
    137  C        -48.1630   56.0380  130.7870 C.2   353  GLY353      0.2638
    138  O        -48.0190   56.9960  131.5610 O.2   353  GLY353     -0.2714
    139  N        -48.1310   56.1560  129.4630 N.am  354  VAL354     -0.1977
    140  CA       -47.9450   57.4310  128.7620 C.3   354  VAL354      0.1596
    141  C        -49.1290   57.6450  127.8280 C.2   354  VAL354      0.2287
    142  O        -49.8270   56.6830  127.4630 O.2   354  VAL354     -0.2864
    143  CB       -46.6050   57.4570  127.9970 C.3   354  VAL354      0.0276
    144  CG1      -45.4980   56.9910  128.8910 C.3   354  VAL354      0.0022
    145  CG2      -46.7210   56.5970  126.8040 C.3   354  VAL354      0.0022
@<TRIPOS>BOND
     1    48    47    1
     2    22    21    1
     3   128   127    1
     4   145   143    1
     5   122   121    2
     6    17    18    1
     7    47    46    1
     8   142   141    2
     9    21    18    1
    10    21    23    1
    11   129   127    1
    12   124   127    1
    13   124   123    1
    14   124   125    1
    15   134   131    1
    16   141   140    1
    17   121   123   am
    18   121   120    1
    19    18    19    1
    20   130   125   am
    21   130   131    1
    22   143   140    1
    23   143   144    1
    24    46    45    1
    25   120   119    1
    26    45    44    1
    27   125   126    2
    28   131   132    1
    29   140   139    1
    30     9     8    1
    31    61    59   ar
    32   119   113   am
    33    44    41    1
    34   133   132    2
    35   139   137   am
    36    19    24   am
    37    19    20    2
    38   132   135   am
    39    41    42    1
    40    41    40    1
    41    43    42    2
    42    24    25    1
    43    59    58    1
    44    59    60   ar
    45     8     7    1
    46   135   136    1
    47   113   114    2
    48   113   112    1
    49    42    49   am
    50   111   112    1
    51    58    57    1
    52   137   136    1
    53   137   138    2
    54     7     6    1
    55   112   115    1
    56    25    26    1
    57    25    28    1
    58   115   117    1
    59   115   116    1
    60    26    27    2
    61    28    29    1
    62    29    30    1
    63    29    31    1
    64    49    50    1
    65    57    54    1
    66    52    51    2
    67    50    51    1
    68    51    53   am
    69   116   118    1
    70     6     5    1
    71    53    54    1
    72    54    55    1
    73    32    33    1
    74   102   100    1
    75    99    98    2
    76     5     2    1
    77    81    82    1
    78    81    78    1
    79    33    34    1
    80    33    36    1
    81    55    62   am
    82    55    56    2
    83   100   101    1
    84   100    97    1
    85    98    97    1
    86    98   103   am
    87    97    96    1
    88    37    36    1
    89    37    39    1
    90    62    63    1
    91    77    78    1
    92    94    93    2
    93    76    74    1
    94    34    35    2
    95   106   105    2
    96    36    38    1
    97     2     1    1
    98     2     3    1
    99   104   103    1
   100   104   105    1
   101   104   107    1
   102    78    79    1
   103   109   107    1
   104    73    74    1
   105    73    70    1
   106    79    80    2
   107     3     4    2
   108   107   108    1
   109    69    70    1
   110    69    64   am
   111    96    93   am
   112    93    92    1
   113    74    75    1
   114    63    66    1
   115    63    64    1
   116    68    66    1
   117    66    67    1
   118    70    71    1
   119    64    65    2
   120    71    72    2
   121    16    14    1
   122    92    95    1
   123    92    91    1
   124   108   110    1
   125    14    15    1
   126    14    11    1
   127    86    85    2
   128    10    11    1
   129    11    12    1
   130    12    13    2
   131    85    84    1
   132    89    88    1
   133    84    83    1
   134    84    87    1
   135    88    87    1
   136    88    90    1
