@<TRIPOS>MOLECULE
tmp/5e9sC03.pdb
 111 105 0 0 0
SMALL
GASTEIGER

@<TRIPOS>ATOM
      1  N         -7.9020   24.7680  122.9180 N.3   234  TYR234     -0.1241
      2  CA        -8.0770   24.2630  124.2630 C.3   234  TYR234      0.1605
      3  C         -6.7760   23.7170  124.8110 C.2   234  TYR234      0.2264
      4  O         -6.4710   23.9030  125.9930 O.2   234  TYR234     -0.2867
      5  CB        -9.1960   23.2340  124.2710 C.3   234  TYR234      0.0534
      6  CG       -10.4930   23.9770  124.4130 C.ar  234  TYR234     -0.0201
      7  CD1      -11.1020   24.5520  123.3180 C.ar  234  TYR234     -0.0009
      8  CD2      -11.0570   24.1900  125.6670 C.ar  234  TYR234     -0.0009
      9  CE1      -12.2510   25.2610  123.4520 C.ar  234  TYR234      0.0417
     10  CE2      -12.2110   24.9020  125.8110 C.ar  234  TYR234      0.0417
     11  CZ       -12.8040   25.4360  124.7010 C.ar  234  TYR234      0.1957
     12  OH       -13.9740   26.1450  124.8350 O.3   234  TYR234     -0.2866
     13  N         -4.7660   27.0840  125.6370 N.3   237  LEU237     -0.1231
     14  CA        -5.3200   27.7100  126.8300 C.3   237  LEU237      0.1693
     15  C         -4.9110   26.9370  128.0690 C.2   237  LEU237      0.2592
     16  O         -4.4730   27.5170  129.0710 O.2   237  LEU237     -0.2718
     17  CB        -6.8430   27.7600  126.7120 C.3   237  LEU237      0.0284
     18  CG        -7.3780   28.5010  125.4830 C.3   237  LEU237      0.0019
     19  CD1       -8.8950   28.3310  125.3520 C.3   237  LEU237      0.0001
     20  CD2       -6.9530   29.9610  125.4770 C.3   237  LEU237      0.0001
     21  N         -5.0220   25.6140  127.9920 N.am  238  PHE238     -0.1976
     22  CA        -4.5850   24.7480  129.0720 C.3   238  PHE238      0.1639
     23  C         -3.1300   25.0150  129.4080 C.2   238  PHE238      0.2290
     24  O         -2.7920   25.2910  130.5610 O.2   238  PHE238     -0.2864
     25  CB        -4.8090   23.2970  128.6500 C.3   238  PHE238      0.0560
     26  CG        -4.4500   22.2950  129.6800 C.ar  238  PHE238     -0.0200
     27  CD1       -5.3150   22.0060  130.7130 C.ar  238  PHE238     -0.0042
     28  CD2       -3.2450   21.6120  129.5960 C.ar  238  PHE238     -0.0042
     29  CE1       -4.9750   21.0520  131.6690 C.ar  238  PHE238     -0.0003
     30  CE2       -2.9000   20.6570  130.5420 C.ar  238  PHE238     -0.0003
     31  CZ        -3.7670   20.3750  131.5770 C.ar  238  PHE238     -0.0000
     32  N         -2.5540   28.2090  131.2000 N.3   241  ILE241     -0.1231
     33  CA        -2.8290   28.0810  132.6300 C.3   241  ILE241      0.1692
     34  C         -1.7490   27.2570  133.3270 C.2   241  ILE241      0.2591
     35  O         -1.1050   27.7290  134.2690 O.2   241  ILE241     -0.2718
     36  CB        -4.2260   27.4850  132.8490 C.3   241  ILE241      0.0266
     37  CG1       -5.2750   28.3710  132.1710 C.3   241  ILE241      0.0019
     38  CG2       -4.5120   27.3380  134.3220 C.3   241  ILE241      0.0020
     39  CD1       -6.6940   27.8910  132.3590 C.3   241  ILE241      0.0001
     40  N         -1.4990   26.0310  132.8560 N.am  242  VAL242     -0.1980
     41  CA        -0.6600   25.1310  133.6540 C.3   242  VAL242      0.1595
     42  C          0.8220   25.4490  133.5100 C.2   242  VAL242      0.2287
     43  O          1.5850   25.2290  134.4500 O.2   242  VAL242     -0.2864
     44  CB        -0.9190   23.6470  133.3460 C.3   242  VAL242      0.0276
     45  CG1       -2.2910   23.2520  133.8240 C.3   242  VAL242      0.0022
     46  CG2       -0.7480   23.3560  131.8670 C.3   242  VAL242      0.0022
     47  N          0.9790   28.8740  136.0440 N.3   246  PHE246     -0.1241
     48  CA         1.4510   28.1420  137.2210 C.3   246  PHE246      0.1605
     49  C          2.9130   28.4500  137.5280 C.2   246  PHE246      0.2264
     50  O          3.2610   28.7230  138.6800 O.2   246  PHE246     -0.2867
     51  CB         1.2410   26.6380  137.0450 C.3   246  PHE246      0.0534
     52  CG        -0.1650   26.1670  137.3470 C.ar  246  PHE246     -0.0203
     53  CD1       -1.2170   27.0620  137.4620 C.ar  246  PHE246     -0.0042
     54  CD2       -0.4320   24.8100  137.4880 C.ar  246  PHE246     -0.0042
     55  CE1       -2.5000   26.6140  137.7430 C.ar  246  PHE246     -0.0003
     56  CE2       -1.7160   24.3560  137.7610 C.ar  246  PHE246     -0.0003
     57  CZ        -2.7480   25.2590  137.8900 C.ar  246  PHE246     -0.0000
     58  N         -2.6720   25.3640  142.8240 N.3   257  ILE257     -0.1245
     59  CA        -3.9130   24.6030  142.9200 C.3   257  ILE257      0.1561
     60  C         -4.9230   25.3270  143.8040 C.2   257  ILE257      0.2260
     61  O         -6.1350   25.2550  143.5620 O.2   257  ILE257     -0.2867
     62  CB        -3.6380   23.1700  143.3970 C.3   257  ILE257      0.0252
     63  CG1       -2.7300   22.4630  142.4020 C.3   257  ILE257      0.0019
     64  CG2       -4.9330   22.3970  143.4860 C.3   257  ILE257      0.0019
     65  CD1       -3.2840   22.4170  141.0230 C.3   257  ILE257      0.0001
     66  N         -6.5720   27.9730  141.4770 N.3   260  ILE260     -0.1245
     67  CA        -7.6720   27.4860  140.6450 C.3   260  ILE260      0.1561
     68  C         -8.8880   27.1350  141.5020 C.2   260  ILE260      0.2260
     69  O        -10.0320   27.3480  141.0720 O.2   260  ILE260     -0.2867
     70  CB        -7.2300   26.3040  139.7520 C.3   260  ILE260      0.0252
     71  CG1       -6.9540   26.7700  138.3180 C.3   260  ILE260      0.0019
     72  CG2       -8.3170   25.2390  139.6640 C.3   260  ILE260      0.0019
     73  CD1       -5.8070   27.7140  138.1450 C.3   260  ILE260      0.0001
     74  N        -13.8800   31.5260  136.7200 N.3   267  MET267     -0.1245
     75  CA       -13.4640   30.8330  135.5060 C.3   267  MET267      0.1570
     76  C        -14.6470   30.2410  134.7700 C.2   267  MET267      0.2261
     77  O        -14.6940   30.2680  133.5370 O.2   267  MET267     -0.2867
     78  CB       -12.4950   29.7040  135.8220 C.3   267  MET267      0.0387
     79  CG       -11.2570   30.1130  136.4930 C.3   267  MET267      0.0595
     80  SD       -10.2690   28.6440  136.6170 S.3   267  MET267     -0.1393
     81  CE        -8.6990   29.4220  136.9280 C.3   267  MET267      0.0692
     82  N        -16.2570   31.3650  131.3010 N.3   271  PHE271     -0.1241
     83  CA       -16.4540   30.3110  130.3110 C.3   271  PHE271      0.1605
     84  C        -17.8590   30.3700  129.7040 C.2   271  PHE271      0.2264
     85  O        -18.0200   30.4500  128.4830 O.2   271  PHE271     -0.2867
     86  CB       -16.1830   28.9500  130.9500 C.3   271  PHE271      0.0534
     87  CG       -15.9360   27.8500  129.9610 C.ar  271  PHE271     -0.0203
     88  CD1      -14.6800   27.6640  129.4070 C.ar  271  PHE271     -0.0042
     89  CD2      -16.9490   26.9880  129.6060 C.ar  271  PHE271     -0.0042
     90  CE1      -14.4470   26.6430  128.4980 C.ar  271  PHE271     -0.0003
     91  CE2      -16.7190   25.9710  128.6970 C.ar  271  PHE271     -0.0003
     92  CZ       -15.4690   25.8010  128.1400 C.ar  271  PHE271     -0.0000
     93  N        -13.7950   28.9890  126.0180 N.3   396  GLY396     -0.1225
     94  CA       -12.4530   28.6880  126.4910 C.3   396  GLY396      0.1811
     95  C        -11.5760   29.9200  126.6220 C.2   396  GLY396      0.2280
     96  O        -10.8630   30.0790  127.6110 O.2   396  GLY396     -0.2866
     97  N        -12.3900   32.3750  129.4960 N.3   399  MET399     -0.1230
     98  CA       -11.9440   31.8600  130.7890 C.3   399  MET399      0.1702
     99  C        -10.4750   32.1650  131.0310 C.2   399  MET399      0.2592
    100  O        -10.1030   32.6940  132.0830 O.2   399  MET399     -0.2718
    101  CB       -12.1800   30.3580  130.8550 C.3   399  MET399      0.0401
    102  CG       -11.6170   29.6830  132.0830 C.3   399  MET399      0.0596
    103  SD       -11.4500   27.9240  131.7030 S.3   399  MET399     -0.1393
    104  CE       -11.4600   27.1900  133.3380 C.3   399  MET399      0.0692
    105  N         -9.6220   31.8690  130.0490 N.am  400  VAL400     -0.1980
    106  CA        -8.2090   32.1770  130.1990 C.3   400  VAL400      0.1595
    107  C         -7.9850   33.6820  130.2250 C.2   400  VAL400      0.2287
    108  O         -7.0300   34.1480  130.8510 O.2   400  VAL400     -0.2864
    109  CB        -7.4300   31.4650  129.0790 C.3   400  VAL400      0.0276
    110  CG1       -5.9810   31.8830  129.0550 C.3   400  VAL400      0.0022
    111  CG2       -7.5390   29.9830  129.2710 C.3   400  VAL400      0.0022
@<TRIPOS>BOND
     1     1     2    1
     2     7     9   ar
     3     7     6   ar
     4     9    11   ar
     5     2     5    1
     6     2     3    1
     7     5     6    1
     8     6     8   ar
     9    11    12    1
    10    11    10   ar
    11     3     4    2
    12    19    18    1
    13    20    18    1
    14    18    17    1
    15    13    14    1
    16     8    10   ar
    17    93    94    1
    18    94    95    1
    19    95    96    2
    20    17    14    1
    21    14    15    1
    22    21    15   am
    23    21    22    1
    24    15    16    2
    25    92    90   ar
    26    92    91   ar
    27    85    84    2
    28    90    88   ar
    29    25    22    1
    30    25    26    1
    31    91    89   ar
    32   110   109    1
    33    22    23    1
    34   109   111    1
    35   109   106    1
    36    88    87   ar
    37    23    24    2
    38    97    98    1
    39    28    26   ar
    40    28    30   ar
    41    89    87   ar
    42    26    27   ar
    43    84    83    1
    44    87    86    1
    45   105   106    1
    46   105    99   am
    47   106   107    1
    48   107   108    2
    49    83    86    1
    50    83    82    1
    51    30    31   ar
    52    27    29   ar
    53    98   101    1
    54    98    99    1
    55   101   102    1
    56    99   100    2
    57    32    33    1
    58    31    29   ar
    59   103   102    1
    60   103   104    1
    61    46    44    1
    62    37    39    1
    63    37    36    1
    64    33    36    1
    65    33    34    1
    66    36    38    1
    67    40    34   am
    68    40    41    1
    69    34    35    2
    70    44    41    1
    71    44    45    1
    72    42    41    1
    73    42    43    2
    74    77    76    2
    75    76    75    1
    76    75    78    1
    77    75    74    1
    78    78    79    1
    79    47    48    1
    80    79    80    1
    81    80    81    1
    82    51    48    1
    83    51    52    1
    84    48    49    1
    85    52    53   ar
    86    52    54   ar
    87    53    55   ar
    88    54    56   ar
    89    49    50    2
    90    55    57   ar
    91    56    57   ar
    92    73    71    1
    93    71    70    1
    94    72    70    1
    95    70    67    1
    96    67    66    1
    97    67    68    1
    98    65    63    1
    99    69    68    2
   100    63    62    1
   101    58    59    1
   102    59    62    1
   103    59    60    1
   104    62    64    1
   105    61    60    2
