@<TRIPOS>MOLECULE
tmp/5e9uE00.pdb
 177 173 0 0 0
SMALL
GASTEIGER

@<TRIPOS>ATOM
      1  N         22.8450   11.8110  -22.3700 N.3    14  SER14      -0.1202
      2  CA        22.8750   13.2640  -22.4700 C.3    14  SER14       0.2020
      3  C         22.9060   13.6900  -23.9390 C.2    14  SER14       0.2619
      4  O         22.9430   12.8630  -24.8520 O.2    14  SER14      -0.2717
      5  CB        24.0660   13.8200  -21.6840 C.3    14  SER14       0.2103
      6  OG        23.7790   13.8590  -20.2950 O.3    14  SER14      -0.2182
      7  N         22.8880   15.0000  -24.1650 N.am   15  SER15      -0.1937
      8  CA        22.7700   15.5780  -25.5030 C.3    15  SER15       0.2055
      9  C         24.0060   16.4120  -25.8400 C.2    15  SER15       0.2644
     10  O         24.9290   16.5580  -25.0340 O.2    15  SER15      -0.2714
     11  CB        21.5000   16.4280  -25.6280 C.3    15  SER15       0.2130
     12  OG        21.6430   17.4260  -26.6200 O.3    15  SER15      -0.2179
     13  N         23.9980   16.9860  -27.0470 N.am   16  GLY16      -0.1939
     14  CA        25.1550   17.7350  -27.5150 C.3    16  GLY16       0.2014
     15  C         25.4700   18.9410  -26.6530 C.2    16  GLY16       0.2638
     16  O         26.6370   19.2100  -26.3590 O.2    16  GLY16      -0.2714
     17  N         24.4350   19.6800  -26.2380 N.am   17  VAL17      -0.1977
     18  CA        24.6310   20.8200  -25.3430 C.3    17  VAL17       0.1596
     19  C         25.4450   20.3970  -24.1280 C.2    17  VAL17       0.2287
     20  O         26.3500   21.1150  -23.6830 O.2    17  VAL17      -0.2864
     21  CB        23.2730   21.4230  -24.9350 C.3    17  VAL17       0.0276
     22  CG1       23.4790   22.6950  -24.1230 C.3    17  VAL17       0.0022
     23  CG2       22.4190   21.6960  -26.1690 C.3    17  VAL17       0.0022
     24  N         27.4020   17.4360  -24.0750 N.3    19  TYR19      -0.1241
     25  CA        28.6860   16.9970  -24.6170 C.3    19  TYR19       0.1605
     26  C         29.5340   18.1640  -25.1050 C.2    19  TYR19       0.2264
     27  O         30.7660   18.1080  -25.0210 O.2    19  TYR19      -0.2867
     28  CB        28.4770   15.9960  -25.7550 C.3    19  TYR19       0.0534
     29  CG        28.1570   14.5810  -25.3130 C.ar   19  TYR19      -0.0201
     30  CD1       26.8660   14.2100  -24.9590 C.ar   19  TYR19      -0.0009
     31  CD2       29.1510   13.6130  -25.2580 C.ar   19  TYR19      -0.0009
     32  CE1       26.5750   12.9160  -24.5570 C.ar   19  TYR19       0.0417
     33  CE2       28.8700   12.3210  -24.8590 C.ar   19  TYR19       0.0417
     34  CZ        27.5790   11.9770  -24.5080 C.ar   19  TYR19       0.1957
     35  OH        27.2850   10.6920  -24.1090 O.3    19  TYR19      -0.2866
     36  N         33.8120   18.6940  -23.9280 N.3    23  TYR23      -0.1241
     37  CA        35.0610   18.8900  -24.6550 C.3    23  TYR23       0.1605
     38  C         35.6360   20.2740  -24.3980 C.2    23  TYR23       0.2264
     39  O         36.8580   20.4580  -24.4440 O.2    23  TYR23      -0.2867
     40  CB        34.8230   18.6690  -26.1490 C.3    23  TYR23       0.0534
     41  CG        34.3380   17.2710  -26.4230 C.ar   23  TYR23      -0.0201
     42  CD1       34.9400   16.1810  -25.8090 C.ar   23  TYR23      -0.0009
     43  CD2       33.2410   17.0400  -27.2440 C.ar   23  TYR23      -0.0009
     44  CE1       34.4920   14.8970  -26.0280 C.ar   23  TYR23       0.0417
     45  CE2       32.7810   15.7520  -27.4710 C.ar   23  TYR23       0.0417
     46  CZ        33.4150   14.6840  -26.8570 C.ar   23  TYR23       0.1957
     47  OH        32.9820   13.3920  -27.0600 O.3    23  TYR23      -0.2866
     48  N         25.2300    7.1350  -34.7170 N.3   322  ALA322     -0.1231
     49  CA        24.9320    7.3630  -33.3060 C.3   322  ALA322      0.1694
     50  C         24.1370    8.6550  -33.1840 C.2   322  ALA322      0.2593
     51  O         24.6680    9.7430  -33.4250 O.2   322  ALA322     -0.2718
     52  CB        26.2050    7.4160  -32.4580 C.3   322  ALA322      0.0304
     53  N         22.8800    8.5390  -32.7860 N.am  323  SER323     -0.1938
     54  CA        22.0270    9.6940  -32.5980 C.3   323  SER323      0.2055
     55  C         21.4020    9.6560  -31.2110 C.2   323  SER323      0.2642
     56  O         21.5580    8.6950  -30.4510 O.2   323  SER323     -0.2714
     57  CB        20.9420    9.7440  -33.6800 C.3   323  SER323      0.2130
     58  OG        19.9090    8.8160  -33.4130 O.3   323  SER323     -0.2179
     59  N         20.6780   10.7280  -30.8890 N.am  324  ARG324     -0.1977
     60  CA        19.9010   10.7520  -29.6600 C.3   324  ARG324      0.1597
     61  C         18.7280    9.7950  -29.7270 C.2   324  ARG324      0.2287
     62  O         18.0970    9.5330  -28.6960 O.2   324  ARG324     -0.2864
     63  CB        19.3920   12.1580  -29.3790 C.3   324  ARG324      0.0334
     64  CG        18.8870   12.3760  -27.9660 C.3   324  ARG324      0.0492
     65  CD        18.2570   13.7310  -27.8970 C.3   324  ARG324      0.2205
     66  NE        19.1020   14.6970  -28.5850 N.pl3 324  ARG324     -0.0865
     67  CZ        18.6540   15.8150  -29.1440 C.cat 324  ARG324      0.5346
     68  NH1       17.3620   16.1030  -29.1040 N.pl3 324  ARG324      0.1354
     69  NH2       19.4960   16.6360  -29.7570 N.pl3 324  ARG324      0.1354
     70  N         24.0100    3.1430  -31.9640 N.3   353  TYR353     -0.1227
     71  CA        24.4310    3.4220  -30.5950 C.3   353  TYR353      0.1736
     72  C         23.7480    4.7170  -30.1970 C.2   353  TYR353      0.2596
     73  O         24.1370    5.8010  -30.6410 O.2   353  TYR353     -0.2718
     74  CB        25.9490    3.5440  -30.4720 C.3   353  TYR353      0.0548
     75  CG        26.7500    2.2500  -30.4960 C.ar  353  TYR353     -0.0200
     76  CD1       26.1570    1.0280  -30.2180 C.ar  353  TYR353     -0.0009
     77  CD2       28.1170    2.2650  -30.7550 C.ar  353  TYR353     -0.0009
     78  CE1       26.9020   -0.1530  -30.2260 C.ar  353  TYR353      0.0417
     79  CE2       28.8660    1.0930  -30.7650 C.ar  353  TYR353      0.0417
     80  CZ        28.2520   -0.1130  -30.5010 C.ar  353  TYR353      0.1957
     81  OH        28.9850   -1.2820  -30.5090 O.3   353  TYR353     -0.2866
     82  N         22.7260    4.6040  -29.3690 N.am  354  GLY354     -0.1942
     83  CA        22.0540    5.7880  -28.8860 C.3   354  GLY354      0.2014
     84  C         20.8490    5.3800  -28.0750 C.2   354  GLY354      0.2638
     85  O         20.3070    4.2830  -28.2300 O.2   354  GLY354     -0.2714
     86  N         20.4360    6.2850  -27.2020 N.am  355  LYS355     -0.1977
     87  CA        19.3820    6.0080  -26.2420 C.3   355  LYS355      0.1596
     88  C         18.4920    7.2380  -26.1470 C.2   355  LYS355      0.2287
     89  O         18.9580    8.3160  -25.7600 O.2   355  LYS355     -0.2864
     90  CB        20.0010    5.6440  -24.8890 C.3   355  LYS355      0.0298
     91  CG        19.0060    5.2800  -23.7980 C.3   355  LYS355      0.0038
     92  CD        19.7610    4.8500  -22.5530 C.3   355  LYS355      0.0206
     93  CE        18.8280    4.5010  -21.4100 C.3   355  LYS355      0.1093
     94  NZ        19.6150    4.0920  -20.2120 N.3   355  LYS355     -0.1314
     95  N         22.8590    1.2530  -27.4370 N.3   379  GLY379     -0.1210
     96  CA        22.7740    2.2440  -26.3700 C.3   379  GLY379      0.1956
     97  C         24.0260    3.1220  -26.3300 C.2   379  GLY379      0.2612
     98  O         24.6820    3.3430  -27.3520 O.2   379  GLY379     -0.2717
     99  N         24.3260    3.6200  -25.1250 N.am  380  HIS380     -0.1961
    100  CA        25.4490    4.5300  -24.8950 C.3   380  HIS380      0.1787
    101  C         26.7230    3.7370  -24.6220 C.2   380  HIS380      0.2620
    102  O         26.8180    3.0120  -23.6250 O.2   380  HIS380     -0.2715
    103  CB        25.1740    5.4720  -23.7170 C.3   380  HIS380      0.0785
    104  CG        26.4180    6.0160  -23.0640 C.ar  380  HIS380      0.0821
    105  ND1       27.4090    6.6600  -23.7730 N.ar  380  HIS380     -0.2267
    106  CD2       26.8220    6.0250  -21.7680 C.ar  380  HIS380      0.1154
    107  CE1       28.3690    7.0400  -22.9480 C.ar  380  HIS380      0.1986
    108  NE2       28.0390    6.6650  -21.7260 N.ar  380  HIS380     -0.2212
    109  N         27.7060    3.9020  -25.4950 N.am  381  ALA381     -0.1963
    110  CA        29.0720    3.4620  -25.2680 C.3   381  ALA381      0.1728
    111  C         29.9920    4.6390  -25.5540 C.2   381  ALA381      0.2616
    112  O         29.5810    5.6300  -26.1590 O.2   381  ALA381     -0.2715
    113  CB        29.4280    2.2570  -26.1500 C.3   381  ALA381      0.0334
    114  N         31.2420    4.5470  -25.1080 N.am  382  ASP382     -0.1957
    115  CA        32.2120    5.5730  -25.4710 C.3   382  ASP382      0.1840
    116  C         32.6110    5.3580  -26.9230 C.2   382  ASP382      0.2621
    117  O         33.1540    4.3070  -27.2810 O.2   382  ASP382     -0.2715
    118  CB        33.4370    5.5280  -24.5580 C.3   382  ASP382      0.1450
    119  CG        34.4760    6.5900  -24.9100 C.2   382  ASP382      0.3671
    120  OD1       34.1430    7.5480  -25.6420 O.co2 382  ASP382     -0.2456
    121  OD2       35.6320    6.4660  -24.4470 O.co2 382  ASP382     -0.2456
    122  N         32.3440    6.3540  -27.7570 N.am  383  LEU383     -0.1977
    123  CA        32.5260    6.2200  -29.1910 C.3   383  LEU383      0.1596
    124  C         33.9200    6.6170  -29.6450 C.2   383  LEU383      0.2287
    125  O         34.2060    6.5360  -30.8420 O.2   383  LEU383     -0.2864
    126  CB        31.4830    7.0660  -29.9220 C.3   383  LEU383      0.0297
    127  CG        30.0220    6.7950  -29.5680 C.3   383  LEU383      0.0022
    128  CD1       29.1220    7.7090  -30.3670 C.3   383  LEU383      0.0001
    129  CD2       29.6680    5.3410  -29.8280 C.3   383  LEU383      0.0001
    130  N         21.5860   20.0600  -38.8180 N.3   400  GLU400     -0.1245
    131  CA        22.5440   19.9970  -37.7180 C.3   400  GLU400      0.1567
    132  C         23.3500   21.2830  -37.6990 C.2   400  GLU400      0.2260
    133  O         24.0210   21.6030  -38.6830 O.2   400  GLU400     -0.2867
    134  CB        23.4900   18.7950  -37.8440 C.3   400  GLU400      0.0388
    135  CG        22.8050   17.4600  -38.0460 C.3   400  GLU400      0.1160
    136  CD        21.9820   17.0330  -36.8440 C.2   400  GLU400      0.3649
    137  OE1       22.1840   17.6050  -35.7540 O.co2 400  GLU400     -0.2457
    138  OE2       21.1330   16.1280  -36.9870 O.co2 400  GLU400     -0.2457
    139  N         25.9390   21.5350  -35.9050 N.3   402  PHE402     -0.1227
    140  CA        27.2420   20.9210  -36.0720 C.3   402  PHE402      0.1736
    141  C         27.0640   19.4110  -35.9770 C.2   402  PHE402      0.2596
    142  O         26.1190   18.9090  -35.3620 O.2   402  PHE402     -0.2718
    143  CB        28.2520   21.4650  -35.0460 C.3   402  PHE402      0.0547
    144  CG        29.7020   21.3130  -35.4620 C.ar  402  PHE402     -0.0202
    145  CD1       30.5170   22.4250  -35.5840 C.ar  402  PHE402     -0.0042
    146  CD2       30.2760   20.0650  -35.6410 C.ar  402  PHE402     -0.0042
    147  CE1       31.8490   22.3060  -35.9520 C.ar  402  PHE402     -0.0003
    148  CE2       31.6080   19.9370  -35.9990 C.ar  402  PHE402     -0.0003
    149  CZ        32.3970   21.0580  -36.1530 C.ar  402  PHE402     -0.0000
    150  N         27.9860   18.7020  -36.6150 N.am  403  GLY403     -0.1942
    151  CA        27.9550   17.2710  -36.8450 C.3   403  GLY403      0.2014
    152  C         28.7680   16.4140  -35.8930 C.2   403  GLY403      0.2639
    153  O         29.3290   15.4060  -36.3280 O.2   403  GLY403     -0.2714
    154  N         28.8910   16.8130  -34.6230 N.am  404  LEU404     -0.1963
    155  CA        29.8980   16.2360  -33.7320 C.3   404  LEU404      0.1728
    156  C         30.0400   14.7200  -33.8480 C.2   404  LEU404      0.2616
    157  O         31.1610   14.2030  -33.9260 O.2   404  LEU404     -0.2715
    158  CB        29.5690   16.6070  -32.2860 C.3   404  LEU404      0.0311
    159  CG        29.7650   18.0700  -31.9190 C.3   404  LEU404      0.0022
    160  CD1       29.5220   18.2310  -30.4350 C.3   404  LEU404      0.0001
    161  CD2       31.1620   18.5400  -32.3080 C.3   404  LEU404      0.0001
    162  N         28.9200   13.9880  -33.8650 N.am  405  THR405     -0.1951
    163  CA        29.0040   12.5320  -33.9710 C.3   405  THR405      0.1897
    164  C         29.7340   12.1050  -35.2410 C.2   405  THR405      0.2313
    165  O         30.4580   11.1020  -35.2310 O.2   405  THR405     -0.2863
    166  CB        27.6090   11.9060  -33.9230 C.3   405  THR405      0.1794
    167  OG1       27.0170   12.1620  -32.6470 O.3   405  THR405     -0.2208
    168  CG2       27.6800   10.4060  -34.1110 C.3   405  THR405      0.0378
    169  N         33.9180   12.9590  -35.3100 N.3   407  GLU407     -0.1245
    170  CA        34.7260   11.7980  -34.9700 C.3   407  GLU407      0.1567
    171  C         34.6390   10.7000  -36.0240 C.2   407  GLU407      0.2260
    172  O         35.4850    9.7950  -36.0170 O.2   407  GLU407     -0.2867
    173  CB        34.3080   11.2470  -33.6020 C.3   407  GLU407      0.0388
    174  CG        34.5240   12.2040  -32.4210 C.3   407  GLU407      0.1160
    175  CD        33.7370   11.7980  -31.1810 C.2   407  GLU407      0.3649
    176  OE1       32.4900   11.7600  -31.2520 O.co2 407  GLU407     -0.2457
    177  OE2       34.3660   11.5220  -30.1340 O.co2 407  GLU407     -0.2457
@<TRIPOS>BOND
     1   130   131    1
     2   133   132    2
     3   135   134    1
     4   135   136    1
     5   134   131    1
     6   131   132    1
     7   138   136   ar
     8   151   150    1
     9   151   152    1
    10   136   137   ar
    11   150   141   am
    12   153   152    2
    13   149   148   ar
    14   149   147   ar
    15   140   141    1
    16   140   139    1
    17   140   143    1
    18   171   172    2
    19   171   170    1
    20   148   146   ar
    21   141   142    2
    22   147   145   ar
    23   152   154   am
    24   146   144   ar
    25   145   144   ar
    26   144   143    1
    27   169   170    1
    28   164   165    2
    29   164   163    1
    30   170   173    1
    31    48    49    1
    32   154   155    1
    33   168   166    1
    34   163   166    1
    35   163   162    1
    36   157   156    2
    37   166   167    1
    38   162   156   am
    39   156   155    1
    40   155   158    1
    41    57    58    1
    42    57    54    1
    43   173   174    1
    44    51    50    2
    45    49    50    1
    46    49    52    1
    47    50    53   am
    48    53    54    1
    49    54    55    1
    50   174   175    1
    51   161   159    1
    52   158   159    1
    53    70    71    1
    54   159   160    1
    55   176   175   ar
    56    55    59   am
    57    55    56    2
    58   175   177   ar
    59    59    60    1
    60   125   124    2
    61    79    77   ar
    62    79    80   ar
    63    77    75   ar
    64    73    72    2
    65    71    74    1
    66    71    72    1
    67    81    80    1
    68    80    78   ar
    69    75    74    1
    70    75    76   ar
    71   128   127    1
    72    78    76   ar
    73    72    82   am
    74   126   127    1
    75   126   123    1
    76   129   127    1
    77    69    67    1
    78    61    60    1
    79    61    62    2
    80    60    63    1
    81   124   123    1
    82    63    64    1
    83    82    83    1
    84   123   122    1
    85    67    68    1
    86    67    66    2
    87    83    84    1
    88    66    65    1
    89    85    84    2
    90    84    86   am
    91    64    65    1
    92   122   116   am
    93    14    13    1
    94    14    15    1
    95    45    43   ar
    96    45    46   ar
    97    95    96    1
    98    98    97    2
    99   117   116    2
   100    43    41   ar
   101    86    87    1
   102    47    46    1
   103    13     9   am
   104   116   115    1
   105    46    44   ar
   106    15    16    2
   107    15    17   am
   108    12    11    1
   109    41    40    1
   110    41    42   ar
   111    96    97    1
   112    97    99   am
   113    87    88    1
   114    87    90    1
   115    17    18    1
   116    23    21    1
   117   112   111    2
   118   113   110    1
   119    40    37    1
   120    88    89    2
   121    44    42   ar
   122     9     8    1
   123     9    10    2
   124    28    29    1
   125    28    25    1
   126   120   119   ar
   127    11     8    1
   128   111   110    1
   129   111   114   am
   130     8     7    1
   131   109   110    1
   132   109   101   am
   133   115   114    1
   134   115   118    1
   135    18    21    1
   136    18    19    1
   137    29    31   ar
   138    29    30   ar
   139    31    33   ar
   140    99   100    1
   141    26    27    2
   142    26    25    1
   143    30    32   ar
   144    21    22    1
   145   119   118    1
   146   119   121   ar
   147   100   101    1
   148   100   103    1
   149    90    91    1
   150    33    34   ar
   151     4     3    2
   152    37    38    1
   153    37    36    1
   154   101   102    2
   155    25    24    1
   156    32    34   ar
   157    34    35    1
   158    39    38    2
   159     7     3   am
   160    19    20    2
   161     3     2    1
   162    91    92    1
   163   105   104   ar
   164   105   107   ar
   165   103   104    1
   166   104   106   ar
   167   107   108   ar
   168    92    93    1
   169     2     1    1
   170     2     5    1
   171   106   108   ar
   172     5     6    1
   173    93    94    1
