@<TRIPOS>MOLECULE
tmp/5e9uE01.pdb
 118 112 0 0 0
SMALL
GASTEIGER

@<TRIPOS>ATOM
      1  N         22.8880   15.0000  -24.1650 N.3    15  SER15      -0.1202
      2  CA        22.7700   15.5780  -25.5030 C.3    15  SER15       0.2020
      3  C         24.0060   16.4120  -25.8400 C.2    15  SER15       0.2619
      4  O         24.9290   16.5580  -25.0340 O.2    15  SER15      -0.2717
      5  CB        21.5000   16.4280  -25.6280 C.3    15  SER15       0.2103
      6  OG        21.6430   17.4260  -26.6200 O.3    15  SER15      -0.2182
      7  N         23.9980   16.9860  -27.0470 N.am   16  GLY16      -0.1942
      8  CA        25.1550   17.7350  -27.5150 C.3    16  GLY16       0.2014
      9  C         25.4700   18.9410  -26.6530 C.2    16  GLY16       0.2638
     10  O         26.6370   19.2100  -26.3590 O.2    16  GLY16      -0.2714
     11  N         24.4350   19.6800  -26.2380 N.am   17  VAL17      -0.1977
     12  CA        24.6310   20.8200  -25.3430 C.3    17  VAL17       0.1596
     13  C         25.4450   20.3970  -24.1280 C.2    17  VAL17       0.2287
     14  O         26.3500   21.1150  -23.6830 O.2    17  VAL17      -0.2864
     15  CB        23.2730   21.4230  -24.9350 C.3    17  VAL17       0.0276
     16  CG1       23.4790   22.6950  -24.1230 C.3    17  VAL17       0.0022
     17  CG2       22.4190   21.6960  -26.1690 C.3    17  VAL17       0.0022
     18  N         25.3140   29.2980  -29.6360 N.3   238  VAL238     -0.1231
     19  CA        24.1160   29.0340  -30.4250 C.3   238  VAL238      0.1692
     20  C         24.1870   27.6000  -30.9310 C.2   238  VAL238      0.2592
     21  O         25.0390   27.2630  -31.7550 O.2   238  VAL238     -0.2718
     22  CB        23.9720   30.0250  -31.5870 C.3   238  VAL238      0.0266
     23  CG1       22.9360   29.5290  -32.5960 C.3   238  VAL238      0.0020
     24  CG2       23.6090   31.4150  -31.0660 C.3   238  VAL238      0.0020
     25  N         23.2780   26.7610  -30.4470 N.am  239  HIS239     -0.1962
     26  CA        23.1910   25.3650  -30.8510 C.3   239  HIS239      0.1787
     27  C         21.9870   25.1370  -31.7630 C.2   239  HIS239      0.2620
     28  O         20.9170   25.7290  -31.5730 O.2   239  HIS239     -0.2715
     29  CB        23.1110   24.4320  -29.6390 C.3   239  HIS239      0.0785
     30  CG        24.3070   24.4950  -28.7370 C.ar  239  HIS239      0.0821
     31  ND1       24.9960   25.6640  -28.4760 N.ar  239  HIS239     -0.2267
     32  CD2       24.9400   23.5200  -28.0410 C.ar  239  HIS239      0.1154
     33  CE1       25.9940   25.4080  -27.6500 C.ar  239  HIS239      0.1986
     34  NE2       25.9850   24.1150  -27.3760 N.ar  239  HIS239     -0.2212
     35  N         22.1790   24.2540  -32.7370 N.am  240  ALA240     -0.1963
     36  CA        21.2600   23.8630  -33.8180 C.3   240  ALA240      0.1728
     37  C         20.8430   25.0770  -34.6500 C.2   240  ALA240      0.2616
     38  O         21.6210   26.0190  -34.8570 O.2   240  ALA240     -0.2715
     39  CB        20.0840   23.1200  -33.2240 C.3   240  ALA240      0.0334
     40  N         19.5880   25.0580  -35.0880 N.am  241  GLU241     -0.1977
     41  CA        19.0550   26.1110  -35.9310 C.3   241  GLU241      0.1602
     42  C         18.6530   27.2860  -35.0610 C.2   241  GLU241      0.2287
     43  O         18.1670   27.1110  -33.9400 O.2   241  GLU241     -0.2864
     44  CB        17.8490   25.5940  -36.7180 C.3   241  GLU241      0.0415
     45  CG        17.0330   24.5480  -35.9500 C.3   241  GLU241      0.1163
     46  CD        15.6970   24.2030  -36.6000 C.2   241  GLU241      0.3649
     47  OE1       15.1830   25.0090  -37.4090 O.co2 241  GLU241     -0.2457
     48  OE2       15.1650   23.1130  -36.2980 O.co2 241  GLU241     -0.2457
     49  N         28.6250   27.3370  -34.7700 N.3   275  ALA275     -0.1245
     50  CA        29.4210   26.1730  -35.1370 C.3   275  ALA275      0.1562
     51  C         30.2320   26.4210  -36.4020 C.2   275  ALA275      0.2260
     52  O         31.4540   26.2330  -36.4180 O.2   275  ALA275     -0.2867
     53  CB        28.4950   24.9750  -35.3160 C.3   275  ALA275      0.0290
     54  N         32.4270   23.1300  -32.2490 N.3   302  VAL302     -0.1245
     55  CA        32.0100   22.6020  -30.9510 C.3   302  VAL302      0.1561
     56  C         33.0400   21.6370  -30.3800 C.2   302  VAL302      0.2260
     57  O         33.3490   21.6820  -29.1890 O.2   302  VAL302     -0.2867
     58  CB        30.6270   21.9380  -31.0610 C.3   302  VAL302      0.0252
     59  CG1       30.0620   21.7020  -29.6890 C.3   302  VAL302      0.0019
     60  CG2       29.6860   22.8150  -31.8640 C.3   302  VAL302      0.0019
     61  N         20.6780   10.7280  -30.8890 N.3   324  ARG324     -0.1245
     62  CA        19.9010   10.7520  -29.6600 C.3   324  ARG324      0.1563
     63  C         18.7280    9.7950  -29.7270 C.2   324  ARG324      0.2260
     64  O         18.0970    9.5330  -28.6960 O.2   324  ARG324     -0.2867
     65  CB        19.3920   12.1580  -29.3790 C.3   324  ARG324      0.0307
     66  CG        18.8870   12.3760  -27.9660 C.3   324  ARG324      0.0489
     67  CD        18.2570   13.7310  -27.8970 C.3   324  ARG324      0.2205
     68  NE        19.1020   14.6970  -28.5850 N.pl3 324  ARG324     -0.0865
     69  CZ        18.6540   15.8150  -29.1440 C.cat 324  ARG324      0.5346
     70  NH1       17.3620   16.1030  -29.1040 N.pl3 324  ARG324      0.1354
     71  NH2       19.4960   16.6360  -29.7570 N.pl3 324  ARG324      0.1354
     72  N         13.2680   12.9440  -34.5370 N.3   328  GLU328     -0.1245
     73  CA        13.8100   13.9560  -35.4400 C.3   328  GLU328      0.1567
     74  C         14.9270   13.4320  -36.3380 C.2   328  GLU328      0.2260
     75  O         15.0840   13.9240  -37.4610 O.2   328  GLU328     -0.2867
     76  CB        14.3110   15.1650  -34.6430 C.3   328  GLU328      0.0388
     77  CG        15.0800   14.8370  -33.3670 C.3   328  GLU328      0.1160
     78  CD        14.1880   14.4210  -32.2030 C.2   328  GLU328      0.3649
     79  OE1       13.1100   13.8290  -32.4340 O.co2 328  GLU328     -0.2457
     80  OE2       14.5760   14.6770  -31.0440 O.co2 328  GLU328     -0.2457
     81  N         18.4230   18.8900  -40.0060 N.3   399  SER399     -0.1202
     82  CA        19.4110   19.9570  -39.8810 C.3   399  SER399      0.2020
     83  C         20.3160   19.6770  -38.6890 C.2   399  SER399      0.2619
     84  O         19.8750   19.1360  -37.6720 O.2   399  SER399     -0.2717
     85  CB        18.7480   21.3350  -39.7230 C.3   399  SER399      0.2103
     86  OG        18.2710   21.5380  -38.4010 O.3   399  SER399     -0.2182
     87  N         21.5860   20.0600  -38.8180 N.am  400  GLU400     -0.1965
     88  CA        22.5440   19.9970  -37.7180 C.3   400  GLU400      0.1733
     89  C         23.3500   21.2830  -37.6990 C.2   400  GLU400      0.2617
     90  O         24.0210   21.6030  -38.6830 O.2   400  GLU400     -0.2715
     91  CB        23.4900   18.7950  -37.8440 C.3   400  GLU400      0.0429
     92  CG        22.8050   17.4600  -38.0460 C.3   400  GLU400      0.1163
     93  CD        21.9820   17.0330  -36.8440 C.2   400  GLU400      0.3649
     94  OE1       22.1840   17.6050  -35.7540 O.co2 400  GLU400     -0.2457
     95  OE2       21.1330   16.1280  -36.9870 O.co2 400  GLU400     -0.2457
     96  N         23.2810   22.0150  -36.5860 N.am  401  GLY401     -0.1940
     97  CA        24.1880   23.1340  -36.4000 C.3   401  GLY401      0.2014
     98  C         25.6360   22.6980  -36.4730 C.2   401  GLY401      0.2638
     99  O         26.4760   23.3870  -37.0550 O.2   401  GLY401     -0.2714
    100  N         25.9390   21.5350  -35.9050 N.am  402  PHE402     -0.1973
    101  CA        27.2420   20.9210  -36.0720 C.3   402  PHE402      0.1639
    102  C         27.0640   19.4110  -35.9770 C.2   402  PHE402      0.2290
    103  O         26.1190   18.9090  -35.3620 O.2   402  PHE402     -0.2864
    104  CB        28.2520   21.4650  -35.0460 C.3   402  PHE402      0.0560
    105  CG        29.7020   21.3130  -35.4620 C.ar  402  PHE402     -0.0200
    106  CD1       30.5170   22.4250  -35.5840 C.ar  402  PHE402     -0.0042
    107  CD2       30.2760   20.0650  -35.6410 C.ar  402  PHE402     -0.0042
    108  CE1       31.8490   22.3060  -35.9520 C.ar  402  PHE402     -0.0003
    109  CE2       31.6080   19.9370  -35.9990 C.ar  402  PHE402     -0.0003
    110  CZ        32.3970   21.0580  -36.1530 C.ar  402  PHE402     -0.0000
    111  N         28.8910   16.8130  -34.6230 N.3   404  LEU404     -0.1245
    112  CA        29.8980   16.2360  -33.7320 C.3   404  LEU404      0.1561
    113  C         30.0400   14.7200  -33.8480 C.2   404  LEU404      0.2260
    114  O         31.1610   14.2030  -33.9260 O.2   404  LEU404     -0.2867
    115  CB        29.5690   16.6070  -32.2860 C.3   404  LEU404      0.0270
    116  CG        29.7650   18.0700  -31.9190 C.3   404  LEU404      0.0019
    117  CD1       29.5220   18.2310  -30.4350 C.3   404  LEU404      0.0001
    118  CD2       31.1620   18.5400  -32.3080 C.3   404  LEU404      0.0001
@<TRIPOS>BOND
     1    81    82    1
     2    82    85    1
     3    82    83    1
     4    85    86    1
     5    87    83   am
     6    87    88    1
     7    83    84    2
     8    90    89    2
     9    92    91    1
    10    92    93    1
    11    91    88    1
    12    88    89    1
    13    89    96   am
    14    75    74    2
    15    47    46   ar
    16    99    98    2
    17    95    93   ar
    18    93    94   ar
    19    44    45    1
    20    44    41    1
    21    46    48   ar
    22    46    45    1
    23    96    97    1
    24    98    97    1
    25    98   100   am
    26    52    51    2
    27    51    50    1
    28    74    73    1
    29   110   109   ar
    30   110   108   ar
    31   101   102    1
    32   101   100    1
    33   101   104    1
    34   109   107   ar
    35   102   103    2
    36   108   106   ar
    37    41    40    1
    38    41    42    1
    39   107   105   ar
    40   106   105   ar
    41   105   104    1
    42    73    76    1
    43    73    72    1
    44    53    50    1
    45    50    49    1
    46    40    37   am
    47    42    43    2
    48    38    37    2
    49    37    36    1
    50    76    77    1
    51   111   112    1
    52   114   113    2
    53   113   112    1
    54    36    39    1
    55    36    35    1
    56   112   115    1
    57    77    78    1
    58    35    27   am
    59    23    22    1
    60    79    78   ar
    61   118   116    1
    62   115   116    1
    63    54    55    1
    64    78    80   ar
    65   116   117    1
    66    60    58    1
    67    27    28    2
    68    27    26    1
    69    21    20    2
    70    22    24    1
    71    22    19    1
    72    58    55    1
    73    58    59    1
    74    55    56    1
    75    20    25   am
    76    20    19    1
    77    61    62    1
    78    26    25    1
    79    26    29    1
    80    19    18    1
    81    56    57    2
    82    71    69    1
    83    63    62    1
    84    63    64    2
    85    62    65    1
    86    29    30    1
    87    65    66    1
    88    69    70    1
    89    69    68    2
    90    30    31   ar
    91    30    32   ar
    92    68    67    1
    93    31    33   ar
    94    32    34   ar
    95    66    67    1
    96    33    34   ar
    97     8     7    1
    98     8     9    1
    99     7     3   am
   100     9    10    2
   101     9    11   am
   102     6     5    1
   103    11    12    1
   104    17    15    1
   105     3     2    1
   106     3     4    2
   107     5     2    1
   108     2     1    1
   109    12    15    1
   110    12    13    1
   111    15    16    1
   112    13    14    2
