@<TRIPOS>MOLECULE
tmp/5e9vB00.pdb
 120 121 0 0 0
SMALL
GASTEIGER

@<TRIPOS>ATOM
      1  N         23.3810    0.3240   11.1240 N.3    22  GLY22      -0.1210
      2  CA        21.9530    0.3900   11.4280 C.3    22  GLY22       0.1956
      3  C         21.5590   -0.0250   12.8450 C.2    22  GLY22       0.2612
      4  O         20.3880   -0.4700   13.0870 O.2    22  GLY22      -0.2717
      5  N         22.4640    0.1650   13.7990 N.am   23  PHE23      -0.1962
      6  CA        22.1050   -0.1390   15.2180 C.3    23  PHE23       0.1771
      7  C         20.9740    0.6920   15.7670 C.2    23  PHE23       0.2619
      8  O         20.3300    0.2560   16.7350 O.2    23  PHE23      -0.2715
      9  CB        23.2920   -0.0490   16.1650 C.3    23  PHE23       0.0574
     10  CG        24.3450   -1.0960   15.9430 C.ar   23  PHE23      -0.0200
     11  CD1       24.0550   -2.4550   16.1070 C.ar   23  PHE23      -0.0042
     12  CD2       25.6140   -0.7190   15.5780 C.ar   23  PHE23      -0.0042
     13  CE1       25.0340   -3.4010   15.9100 C.ar   23  PHE23      -0.0003
     14  CE2       26.6150   -1.6610   15.3770 C.ar   23  PHE23      -0.0003
     15  CZ        26.3190   -2.9970   15.5230 C.ar   23  PHE23      -0.0000
     16  N         20.7810    1.8950   15.1940 N.am   24  PHE24      -0.1974
     17  CA        19.7400    2.8260   15.5630 C.3    24  PHE24       0.1639
     18  C         18.5510    2.8720   14.5720 C.2    24  PHE24       0.2290
     19  O         17.6580    3.6910   14.6960 O.2    24  PHE24      -0.2864
     20  CB        20.3500    4.2250   15.7980 C.3    24  PHE24       0.0560
     21  CG        21.2190    4.3160   17.0180 C.ar   24  PHE24      -0.0200
     22  CD1       22.5340    3.8800   16.9830 C.ar   24  PHE24      -0.0042
     23  CD2       20.7020    4.7780   18.2530 C.ar   24  PHE24      -0.0042
     24  CE1       23.3450    3.9460   18.1190 C.ar   24  PHE24      -0.0003
     25  CE2       21.5180    4.9170   19.3640 C.ar   24  PHE24      -0.0003
     26  CZ        22.8620    4.4940   19.3010 C.ar   24  PHE24      -0.0000
     27  N         16.1190    0.4980   13.9380 N.3    26  PHE26      -0.1228
     28  CA        14.9230   -0.1690   14.3810 C.3    26  PHE26       0.1721
     29  C         14.7980   -0.0930   15.9270 C.2    26  PHE26       0.2437
     30  O         15.7510    0.0360   16.6300 O.2    26  PHE26      -0.2733
     31  CB        14.9820   -1.6520   14.0280 C.3    26  PHE26       0.0547
     32  CG        15.1610   -1.9230   12.5510 C.ar   26  PHE26      -0.0202
     33  CD1       14.1720   -1.5760   11.6440 C.ar   26  PHE26      -0.0042
     34  CD2       16.3140   -2.4760   12.0810 C.ar   26  PHE26      -0.0042
     35  CE1       14.3640   -1.8150   10.2590 C.ar   26  PHE26      -0.0003
     36  CE2       16.5070   -2.7410   10.7080 C.ar   26  PHE26      -0.0003
     37  CZ        15.5520   -2.3730    9.8090 C.ar   26  PHE26      -0.0000
     38  N         13.5880   -0.2200   16.4330 N.am   27  PRO27      -0.2718
     39  CA        13.4490   -0.2510   17.8590 C.3    27  PRO27       0.1535
     40  C         14.2290   -1.2950   18.6310 C.2    27  PRO27       0.2598
     41  O         14.3030   -2.4580   18.2400 O.2    27  PRO27      -0.2715
     42  CB        11.9370   -0.4810   18.0510 C.3    27  PRO27       0.0310
     43  CG        11.3060   -0.0500   16.7900 C.3    27  PRO27       0.0237
     44  CD        12.3120   -0.4170   15.7460 C.3    27  PRO27       0.0939
     45  N         14.7570   -0.8750   19.7690 N.am   28  VAL28      -0.1978
     46  CA        15.3120   -1.8190   20.7680 C.3    28  VAL28       0.1596
     47  C         14.1670   -2.4420   21.5320 C.2    28  VAL28       0.2287
     48  O         13.3330   -1.7290   22.1220 O.2    28  VAL28      -0.2864
     49  CB        16.2520   -1.1340   21.7840 C.3    28  VAL28       0.0276
     50  CG1       16.9260   -2.1850   22.6560 C.3    28  VAL28       0.0022
     51  CG2       17.2700   -0.2740   21.0860 C.3    28  VAL28       0.0022
     52  N         15.9850   -8.0110   22.3770 N.3    32  ILE32      -0.1231
     53  CA        17.3250   -7.6340   21.9630 C.3    32  ILE32       0.1692
     54  C         18.2530   -7.2630   23.1380 C.2    32  ILE32       0.2592
     55  O         19.4180   -7.6200   23.1300 O.2    32  ILE32      -0.2718
     56  CB        17.2360   -6.4120   20.9580 C.3    32  ILE32       0.0266
     57  CG1       16.5110   -6.8600   19.6620 C.3    32  ILE32       0.0019
     58  CG2       18.6290   -5.8580   20.6800 C.3    32  ILE32       0.0020
     59  CD1       15.9960   -5.7850   18.6910 C.3    32  ILE32       0.0001
     60  N         17.7690   -6.4510   24.0830 N.am   33  ALA33      -0.1966
     61  CA        18.6380   -5.8540   25.1140 C.3    33  ALA33       0.1713
     62  C         17.9800   -6.1050   26.4520 C.2    33  ALA33       0.2458
     63  O         16.8790   -5.5710   26.7000 O.2    33  ALA33      -0.2730
     64  CB        18.8200   -4.3570   24.9080 C.3    33  ALA33       0.0333
     65  N         18.6650   -6.9110   27.3130 N.am   34  PRO34      -0.2727
     66  CA        18.0270   -7.3710   28.5370 C.3    34  PRO34       0.1402
     67  C         17.5530   -6.2350   29.3810 C.2    34  PRO34       0.2269
     68  O         18.3360   -5.3060   29.6970 O.2    34  PRO34      -0.2865
     69  CB        19.1510   -8.1510   29.2700 C.3    34  PRO34       0.0296
     70  CG        20.4390   -7.6360   28.7280 C.3    34  PRO34       0.0237
     71  CD        20.1200   -7.2170   27.2950 C.3    34  PRO34       0.0939
     72  N         15.4520   -3.7420   28.8680 N.3    36  TYR36      -0.1241
     73  CA        15.4110   -2.3830   28.2960 C.3    36  TYR36       0.1605
     74  C         14.2220   -1.5330   28.7750 C.2    36  TYR36       0.2264
     75  O         14.3780   -0.3510   29.1200 O.2    36  TYR36      -0.2867
     76  CB        15.4190   -2.4900   26.7340 C.3    36  TYR36       0.0534
     77  CG        15.7270   -1.1680   26.0520 C.ar   36  TYR36      -0.0201
     78  CD1       17.0520   -0.7450   25.9410 C.ar   36  TYR36      -0.0009
     79  CD2       14.7250   -0.3840   25.4920 C.ar   36  TYR36      -0.0009
     80  CE1       17.3860    0.4500   25.3200 C.ar   36  TYR36       0.0417
     81  CE2       15.0460    0.8280   24.8510 C.ar   36  TYR36       0.0417
     82  CZ        16.3830    1.2270   24.7580 C.ar   36  TYR36       0.1957
     83  OH        16.7410    2.4190   24.1590 O.3    36  TYR36      -0.2866
     84  N         20.1990    5.5960   24.6730 N.3    75  ALA75      -0.1245
     85  CA        21.3870    4.7450   24.5140 C.3    75  ALA75       0.1562
     86  C         22.5300    5.0470   25.5060 C.2    75  ALA75       0.2260
     87  O         23.2380    4.1410   25.9220 O.2    75  ALA75      -0.2867
     88  CB        21.9120    4.8440   23.0890 C.3    75  ALA75       0.0290
     89  N         21.1110    3.4990   29.0010 N.3    78  TYR78      -0.1227
     90  CA        21.0440    2.0660   29.0970 C.3    78  TYR78       0.1736
     91  C         22.3900    1.3630   29.0010 C.2    78  TYR78       0.2595
     92  O         22.6460    0.3830   29.7090 O.2    78  TYR78      -0.2718
     93  CB        20.0570    1.4800   28.0560 C.3    78  TYR78       0.0548
     94  CG        20.0290   -0.0050   28.0690 C.ar   78  TYR78      -0.0200
     95  CD1       19.2440   -0.7270   28.9940 C.ar   78  TYR78      -0.0009
     96  CD2       20.8260   -0.7330   27.1780 C.ar   78  TYR78      -0.0009
     97  CE1       19.2620   -2.1080   28.9980 C.ar   78  TYR78       0.0417
     98  CE2       20.8680   -2.1000   27.2130 C.ar   78  TYR78       0.0417
     99  CZ        20.0680   -2.7860   28.0960 C.ar   78  TYR78       0.1957
    100  OH        20.1430   -4.1440   28.0630 O.3    78  TYR78      -0.2866
    101  N         23.2450    1.8280   28.0860 N.am   79  ASN79      -0.1974
    102  CA        24.4820    1.1520   27.8260 C.3    79  ASN79       0.1688
    103  C         25.6550    1.7680   28.5950 C.2    79  ASN79       0.2292
    104  O         25.6970    2.9670   28.8230 O.2    79  ASN79      -0.2864
    105  CB        24.7920    1.2510   26.3250 C.3    79  ASN79       0.1181
    106  CG        23.6780    0.6760   25.4570 C.2    79  ASN79       0.2629
    107  OD1       23.5080   -0.5360   25.3930 O.2    79  ASN79      -0.2716
    108  ND2       22.9400    1.5490   24.7620 N.am   79  ASN79      -0.0877
    109  N         27.4510    0.9320   21.5240 N.3    85  TYR85      -0.1241
    110  CA        26.1810    1.6350   21.4330 C.3    85  TYR85       0.1605
    111  C         26.2770    3.0140   22.0790 C.2    85  TYR85       0.2264
    112  O         25.7380    3.9790   21.5310 O.2    85  TYR85      -0.2867
    113  CB        25.0630    0.8420   22.0570 C.3    85  TYR85       0.0534
    114  CG        24.9890   -0.5600   21.5070 C.ar   85  TYR85      -0.0201
    115  CD1       24.5770   -0.7730   20.1910 C.ar   85  TYR85      -0.0009
    116  CD2       25.3960   -1.6560   22.2720 C.ar   85  TYR85      -0.0009
    117  CE1       24.5560   -2.0580   19.6500 C.ar   85  TYR85       0.0417
    118  CE2       25.3690   -2.9410   21.7300 C.ar   85  TYR85       0.0417
    119  CZ        24.9400   -3.1120   20.4280 C.ar   85  TYR85       0.1957
    120  OH        24.8620   -4.3530   19.8610 O.3    85  TYR85      -0.2866
@<TRIPOS>BOND
     1    37    35   ar
     2    37    36   ar
     3    35    33   ar
     4    36    34   ar
     5     1     2    1
     6     2     3    1
     7    33    32   ar
     8    34    32   ar
     9    32    31    1
    10     3     4    2
    11     3     5   am
    12     5     6    1
    13    27    28    1
    14    31    28    1
    15    28    29    1
    16    18    19    2
    17    18    17    1
    18    16    17    1
    19    16     7   am
    20     6     7    1
    21     6     9    1
    22    14    15   ar
    23    14    12   ar
    24    15    13   ar
    25    17    20    1
    26    12    10   ar
    27    44    38    1
    28    44    43    1
    29     7     8    2
    30    20    21    1
    31    13    11   ar
    32    29    38   am
    33    29    30    2
    34    10    11   ar
    35    10     9    1
    36    38    39    1
    37    43    42    1
    38    22    21   ar
    39    22    24   ar
    40    21    23   ar
    41    39    42    1
    42    39    40    1
    43    24    26   ar
    44    41    40    2
    45    23    25   ar
    46    40    45   am
    47    59    57    1
    48    26    25   ar
    49   117   115   ar
    50   117   119   ar
    51    57    56    1
    52    45    46    1
    53   120   119    1
    54   115   114   ar
    55   119   118   ar
    56    58    56    1
    57    46    47    1
    58    46    49    1
    59    56    53    1
    60    51    49    1
    61   110   109    1
    62   110   113    1
    63   110   111    1
    64   114   113    1
    65   114   116   ar
    66   112   111    2
    67    47    48    2
    68   118   116   ar
    69    49    50    1
    70    53    52    1
    71    53    54    1
    72    88    85    1
    73    55    54    2
    74    54    60   am
    75    60    61    1
    76    83    82    1
    77    85    84    1
    78    85    86    1
    79    82    81   ar
    80    82    80   ar
    81   108   106   am
    82    81    79   ar
    83    64    61    1
    84    61    62    1
    85    80    78   ar
    86   107   106    2
    87   106   105    1
    88    79    77   ar
    89    86    87    2
    90    78    77   ar
    91    77    76    1
    92   105   102    1
    93    62    63    2
    94    62    65   am
    95    76    73    1
    96    96    98   ar
    97    96    94   ar
    98    98    99   ar
    99    71    65    1
   100    71    70    1
   101    65    66    1
   102   102   101    1
   103   102   103    1
   104    93    94    1
   105    93    90    1
   106   100    99    1
   107    94    95   ar
   108   101    91   am
   109    99    97   ar
   110    73    74    1
   111    73    72    1
   112    66    69    1
   113    66    67    1
   114   103   104    2
   115    70    69    1
   116    74    75    2
   117    95    97   ar
   118    91    90    1
   119    91    92    2
   120    89    90    1
   121    67    68    2
