@<TRIPOS>MOLECULE
tmp/5e9xA00.pdb
 123 118 0 0 0
SMALL
GASTEIGER

@<TRIPOS>ATOM
      1  N         26.9700   83.4520   60.9750 N.3   114  VAL114     -0.1231
      2  CA        27.9410   83.2300   59.8950 C.3   114  VAL114      0.1692
      3  C         27.6270   81.9430   59.1420 C.2   114  VAL114      0.2592
      4  O         27.4010   80.9080   59.7500 O.2   114  VAL114     -0.2718
      5  CB        29.3880   83.1480   60.4150 C.3   114  VAL114      0.0266
      6  CG1       30.3630   83.0060   59.2730 C.3   114  VAL114      0.0020
      7  CG2       29.7320   84.3760   61.2710 C.3   114  VAL114      0.0020
      8  N         27.6190   81.9980   57.8130 N.am  115  VAL115     -0.1966
      9  CA        27.2150   80.8330   57.0350 C.3   115  VAL115      0.1712
     10  C         28.0930   80.7240   55.7870 C.2   115  VAL115      0.2458
     11  O         28.5000   81.7420   55.2410 O.2   115  VAL115     -0.2730
     12  CB        25.7100   80.9310   56.6630 C.3   115  VAL115      0.0289
     13  CG1       25.4030   80.1800   55.3900 C.3   115  VAL115      0.0023
     14  CG2       24.8540   80.4030   57.7960 C.3   115  VAL115      0.0023
     15  N         28.4330   79.4910   55.3670 N.am  116  PRO116     -0.2727
     16  CA        29.2030   79.3550   54.1290 C.3   116  PRO116      0.1402
     17  C         28.3150   79.6830   52.9400 C.2   116  PRO116      0.2269
     18  O         27.2460   79.0920   52.7750 O.2   116  PRO116     -0.2865
     19  CB        29.5910   77.8750   54.1290 C.3   116  PRO116      0.0296
     20  CG        28.5460   77.2130   54.9100 C.3   116  PRO116      0.0237
     21  CD        28.1770   78.1850   55.9930 C.3   116  PRO116      0.0939
     22  N         34.9600   79.2950   56.0890 N.3   271  SER271     -0.1217
     23  CA        33.9440   78.2380   56.1230 C.3   271  SER271      0.1889
     24  C         33.6710   77.5240   54.8000 C.2   271  SER271      0.2288
     25  O         32.8700   76.5920   54.7580 O.2   271  SER271     -0.2866
     26  CB        32.6320   78.7130   56.7560 C.3   271  SER271      0.2089
     27  OG        32.0520   79.7880   56.0440 O.3   271  SER271     -0.2183
     28  N         32.1050   88.1240   53.8550 N.3   327  ARG327     -0.1245
     29  CA        33.5330   87.9740   54.1570 C.3   327  ARG327      0.1563
     30  C         34.2850   87.5240   52.8970 C.2   327  ARG327      0.2260
     31  O         34.1580   86.3690   52.4750 O.2   327  ARG327     -0.2867
     32  CB        33.7670   86.9870   55.3250 C.3   327  ARG327      0.0307
     33  CG        35.2450   86.7660   55.7210 C.3   327  ARG327      0.0489
     34  CD        35.4410   86.2570   57.1900 C.3   327  ARG327      0.2205
     35  NE        35.1410   84.8320   57.3470 N.pl3 327  ARG327     -0.0865
     36  CZ        35.5910   84.0530   58.3300 C.cat 327  ARG327      0.5346
     37  NH1       36.3980   84.5460   59.2620 N.pl3 327  ARG327      0.1354
     38  NH2       35.2550   82.7650   58.3610 N.pl3 327  ARG327      0.1354
     39  N         39.0940   83.1780   68.5860 N.3   448  PHE448     -0.1227
     40  CA        40.0990   82.3690   69.2540 C.3   448  PHE448      0.1736
     41  C         41.0890   81.7190   68.2950 C.2   448  PHE448      0.2595
     42  O         42.2960   81.7260   68.5350 O.2   448  PHE448     -0.2718
     43  CB        39.4370   81.2720   70.0720 C.3   448  PHE448      0.0547
     44  CG        40.4150   80.2990   70.6490 C.ar  448  PHE448     -0.0202
     45  CD1       41.3590   80.7200   71.5700 C.ar  448  PHE448     -0.0042
     46  CD2       40.4050   78.9760   70.2630 C.ar  448  PHE448     -0.0042
     47  CE1       42.2740   79.8250   72.1050 C.ar  448  PHE448     -0.0003
     48  CE2       41.3120   78.0790   70.7820 C.ar  448  PHE448     -0.0003
     49  CZ        42.2480   78.4980   71.7140 C.ar  448  PHE448     -0.0000
     50  N         40.5690   81.1320   67.2200 N.am  449  LEU449     -0.1980
     51  CA        41.3430   80.1620   66.4500 C.3   449  LEU449      0.1596
     52  C         42.4900   80.7740   65.6430 C.2   449  LEU449      0.2287
     53  O         43.6460   80.4590   65.9010 O.2   449  LEU449     -0.2864
     54  CB        40.4190   79.2780   65.5920 C.3   449  LEU449      0.0297
     55  CG        39.4330   78.4130   66.4030 C.3   449  LEU449      0.0022
     56  CD1       38.4180   77.7330   65.5110 C.3   449  LEU449      0.0001
     57  CD2       40.1500   77.3710   67.2630 C.3   449  LEU449      0.0001
     58  N         32.6530   83.0340   68.1180 N.3   503  MET503     -0.1245
     59  CA        31.6600   81.9800   67.9490 C.3   503  MET503      0.1570
     60  C         31.4720   81.0640   69.1630 C.2   503  MET503      0.2261
     61  O         32.4430   80.6470   69.8010 O.2   503  MET503     -0.2867
     62  CB        32.0520   81.1020   66.7610 C.3   503  MET503      0.0387
     63  CG        31.1060   79.9390   66.5080 C.3   503  MET503      0.0595
     64  SD        29.5420   80.4610   65.7740 S.3   503  MET503     -0.1393
     65  CE        30.0990   80.8760   64.1080 C.3   503  MET503      0.0692
     66  N         30.8300   77.4540   69.6160 N.3   505  THR505     -0.1218
     67  CA        31.0670   76.3580   68.6880 C.3   505  THR505      0.1862
     68  C         30.3050   75.0790   69.0360 C.2   505  THR505      0.2287
     69  O         30.1960   74.1780   68.2100 O.2   505  THR505     -0.2866
     70  CB        32.5730   76.0440   68.6090 C.3   505  THR505      0.1770
     71  OG1       33.0600   75.7130   69.9160 O.3   505  THR505     -0.2211
     72  CG2       33.3400   77.2580   68.1060 C.3   505  THR505      0.0375
     73  N         29.2630   85.9670   67.4770 N.3   529  TRP529     -0.1241
     74  CA        28.9280   84.9570   66.4640 C.3   529  TRP529      0.1605
     75  C         28.1640   83.7550   67.0230 C.2   529  TRP529      0.2264
     76  O         28.5110   83.2170   68.0780 O.2   529  TRP529     -0.2867
     77  CB        30.1910   84.5000   65.7240 C.3   529  TRP529      0.0550
     78  CG        30.7070   85.5190   64.7250 C.ar  529  TRP529      0.0003
     79  CD1       30.1460   86.7270   64.4300 C.ar  529  TRP529      0.0946
     80  CD2       31.8810   85.4120   63.9050 C.ar  529  TRP529      0.0152
     81  NE1       30.9000   87.3810   63.4810 N.ar  529  TRP529     -0.2442
     82  CE2       31.9710   86.5950   63.1450 C.ar  529  TRP529      0.0810
     83  CE3       32.8660   84.4330   63.7430 C.ar  529  TRP529      0.0012
     84  CZ2       32.9990   86.8220   62.2320 C.ar  529  TRP529      0.0191
     85  CZ3       33.8860   84.6570   62.8420 C.ar  529  TRP529      0.0001
     86  CH2       33.9440   85.8420   62.0920 C.ar  529  TRP529      0.0015
     87  N         26.2040   79.8980   65.7570 N.3   531  PRO531     -0.2116
     88  CA        26.4050   78.8990   64.7070 C.3   531  PRO531      0.1372
     89  C         25.1400   78.4400   63.9710 C.2   531  PRO531      0.2244
     90  O         25.2510   77.7080   62.9910 O.2   531  PRO531     -0.2868
     91  CB        27.0110   77.7300   65.4820 C.3   531  PRO531      0.0268
     92  CG        26.3560   77.8140   66.7950 C.3   531  PRO531      0.0207
     93  CD        26.2370   79.2900   67.0980 C.3   531  PRO531      0.0892
     94  N         32.3010   73.8810   56.6130 N.3   607  ALA607     -0.1245
     95  CA        31.5720   74.1260   57.8550 C.3   607  ALA607      0.1562
     96  C         30.5530   73.0290   58.1020 C.2   607  ALA607      0.2260
     97  O         29.6600   72.8050   57.2840 O.2   607  ALA607     -0.2867
     98  CB        30.8810   75.4890   57.8250 C.3   607  ALA607      0.0290
     99  N         31.2610   73.4050   65.6830 N.3   619  MET619     -0.1230
    100  CA        31.0930   74.1220   64.4190 C.3   619  MET619      0.1702
    101  C         32.2130   75.1540   64.2950 C.2   619  MET619      0.2592
    102  O         32.0180   76.3360   64.5880 O.2   619  MET619     -0.2718
    103  CB        29.7260   74.8120   64.3970 C.3   619  MET619      0.0401
    104  CG        29.4200   75.6580   63.1750 C.3   619  MET619      0.0596
    105  SD        28.8310   74.7070   61.7760 S.3   619  MET619     -0.1393
    106  CE        27.4700   73.8210   62.5590 C.3   619  MET619      0.0692
    107  N         33.3940   74.6910   63.8930 N.am  620  GLU620     -0.1966
    108  CA        34.5530   75.5570   63.6860 C.3   620  GLU620      0.1733
    109  C         34.8370   75.7090   62.1950 C.2   620  GLU620      0.2616
    110  O         34.5540   74.8000   61.4080 O.2   620  GLU620     -0.2715
    111  CB        35.7950   74.9490   64.3400 C.3   620  GLU620      0.0429
    112  CG        35.6450   74.6520   65.8310 C.3   620  GLU620      0.1163
    113  CD        36.7980   73.8400   66.3970 C.2   620  GLU620      0.3649
    114  OE1       37.2400   72.8820   65.7230 O.co2 620  GLU620     -0.2457
    115  OE2       37.2480   74.1510   67.5280 O.co2 620  GLU620     -0.2457
    116  N         35.4220   76.8400   61.8150 N.am  621  ASP621     -0.1971
    117  CA        35.8860   77.0090   60.4480 C.3   621  ASP621      0.1709
    118  C         37.3480   76.5690   60.3210 C.2   621  ASP621      0.2293
    119  O         37.9480   76.0890   61.2900 O.2   621  ASP621     -0.2864
    120  CB        35.6420   78.4350   59.9240 C.3   621  ASP621      0.1436
    121  CG        36.4810   79.4890   60.6260 C.2   621  ASP621      0.3671
    122  OD1       37.3420   79.1380   61.4550 O.co2 621  ASP621     -0.2456
    123  OD2       36.2860   80.6880   60.3320 O.co2 621  ASP621     -0.2456
@<TRIPOS>BOND
     1    31    30    2
     2    18    17    2
     3    30    29    1
     4    17    16    1
     5    28    29    1
     6    19    16    1
     7    19    20    1
     8    16    15    1
     9    29    32    1
    10    25    24    2
    11    24    23    1
    12    20    21    1
    13    11    10    2
    14    32    33    1
    15    15    10   am
    16    15    21    1
    17    13    12    1
    18    33    34    1
    19    10     9    1
    20    27    26    1
    21    22    23    1
    22    23    26    1
    23    94    95    1
    24    12     9    1
    25    12    14    1
    26     9     8    1
    27    34    35    1
    28    97    96    2
    29    35    36    2
    30     8     3   am
    31    98    95    1
    32    95    96    1
    33    36    38    1
    34    36    37    1
    35     3     4    2
    36     3     2    1
    37     6     5    1
    38     2     5    1
    39     2     1    1
    40   120   117    1
    41   120   121    1
    42   118   117    1
    43   118   119    2
    44   123   121   ar
    45     5     7    1
    46   117   116    1
    47   121   122   ar
    48   110   109    2
    49   105   106    1
    50   105   104    1
    51   116   109   am
    52    86    84   ar
    53    86    85   ar
    54   109   108    1
    55    84    82   ar
    56    85    83   ar
    57    90    89    2
    58    82    81   ar
    59    82    80   ar
    60   104   103    1
    61    81    79   ar
    62   108   107    1
    63   108   111    1
    64    83    80   ar
    65   107   101   am
    66    80    78   ar
    67    89    88    1
    68    65    64    1
    69   101   100    1
    70   101   102    2
    71   111   112    1
    72   103   100    1
    73   100    99    1
    74    79    78   ar
    75    88    91    1
    76    88    87    1
    77    78    77    1
    78    91    92    1
    79    56    55    1
    80    54    55    1
    81    54    51    1
    82    52    53    2
    83    52    51    1
    84   114   113   ar
    85    77    74    1
    86    87    93    1
    87    64    63    1
    88   112   113    1
    89   113   115   ar
    90    55    57    1
    91    51    50    1
    92    74    75    1
    93    74    73    1
    94    63    62    1
    95    62    59    1
    96    92    93    1
    97    75    76    2
    98    50    41   am
    99    59    58    1
   100    59    60    1
   101    72    70    1
   102    69    68    2
   103    41    42    2
   104    41    40    1
   105    39    40    1
   106    70    67    1
   107    70    71    1
   108    67    68    1
   109    67    66    1
   110    60    61    2
   111    40    43    1
   112    43    44    1
   113    46    44   ar
   114    46    48   ar
   115    44    45   ar
   116    48    49   ar
   117    45    47   ar
   118    49    47   ar
