@<TRIPOS>MOLECULE
tmp/5ea1B00.pdb
 116 111 0 0 0
SMALL
GASTEIGER

@<TRIPOS>ATOM
      1  N        -20.9700  -23.1530  -31.7490 N.3    34  VAL34      -0.1231
      2  CA       -21.2360  -21.8990  -31.0500 C.3    34  VAL34       0.1692
      3  C        -20.1830  -21.5990  -29.9810 C.2    34  VAL34       0.2592
      4  O        -20.1500  -20.5010  -29.4330 O.2    34  VAL34      -0.2718
      5  CB       -22.6350  -21.9070  -30.4030 C.3    34  VAL34       0.0266
      6  CG1      -23.6930  -22.1030  -31.4640 C.3    34  VAL34       0.0020
      7  CG2      -22.7280  -23.0020  -29.3650 C.3    34  VAL34       0.0020
      8  N        -19.3280  -22.5790  -29.6970 N.am   35  PHE35      -0.1976
      9  CA       -18.2750  -22.4420  -28.6920 C.3    35  PHE35       0.1639
     10  C        -16.9250  -22.0350  -29.2960 C.2    35  PHE35       0.2290
     11  O        -15.9790  -21.7410  -28.5670 O.2    35  PHE35      -0.2864
     12  CB       -18.1030  -23.7570  -27.9190 C.3    35  PHE35       0.0560
     13  CG       -19.3120  -24.1720  -27.1260 C.ar   35  PHE35      -0.0200
     14  CD1      -20.2670  -25.0110  -27.6720 C.ar   35  PHE35      -0.0042
     15  CD2      -19.4940  -23.7170  -25.8290 C.ar   35  PHE35      -0.0042
     16  CE1      -21.3790  -25.3940  -26.9370 C.ar   35  PHE35      -0.0003
     17  CE2      -20.5980  -24.1040  -25.0870 C.ar   35  PHE35      -0.0003
     18  CZ       -21.5430  -24.9380  -25.6450 C.ar   35  PHE35      -0.0000
     19  N        -16.5520  -16.4660  -29.6910 N.3    38  LEU38      -0.1231
     20  CA       -17.5570  -15.6060  -29.0890 C.3    38  LEU38       0.1678
     21  C        -17.8650  -14.4370  -30.0120 C.2    38  LEU38       0.2434
     22  O        -16.9720  -13.9130  -30.6700 O.2    38  LEU38      -0.2733
     23  CB       -17.0700  -15.0730  -27.7420 C.3    38  LEU38       0.0284
     24  CG       -16.8590  -16.0610  -26.5980 C.3    38  LEU38       0.0019
     25  CD1      -16.1320  -15.3700  -25.4580 C.3    38  LEU38       0.0001
     26  CD2      -18.1850  -16.6390  -26.1330 C.3    38  LEU38       0.0001
     27  N        -19.1310  -14.0060  -30.0410 N.am   39  PRO39      -0.2729
     28  CA       -19.4850  -12.7570  -30.7200 C.3    39  PRO39       0.1401
     29  C        -18.7540  -11.5920  -30.0560 C.2    39  PRO39       0.2269
     30  O        -18.4220  -11.6800  -28.8740 O.2    39  PRO39      -0.2865
     31  CB       -21.0060  -12.6660  -30.5450 C.3    39  PRO39       0.0296
     32  CG       -21.3540  -13.6790  -29.5130 C.3    39  PRO39       0.0237
     33  CD       -20.3110  -14.7370  -29.5570 C.3    39  PRO39       0.0939
     34  N        -22.3880   -8.3720  -28.4890 N.3    44  LEU44      -0.1245
     35  CA       -23.0200   -9.0090  -27.3360 C.3    44  LEU44       0.1561
     36  C        -22.4310   -8.5190  -26.0240 C.2    44  LEU44       0.2260
     37  O        -21.7630   -9.2850  -25.3300 O.2    44  LEU44      -0.2867
     38  CB       -22.8600  -10.5320  -27.3840 C.3    44  LEU44       0.0270
     39  CG       -24.0620  -11.4670  -27.5320 C.3    44  LEU44       0.0019
     40  CD1      -23.6610  -12.8640  -27.0800 C.3    44  LEU44       0.0001
     41  CD2      -25.2910  -10.9910  -26.7860 C.3    44  LEU44       0.0001
     42  N        -22.9290  -10.5390  -22.6900 N.3    47  TYR47      -0.1241
     43  CA       -22.1200  -11.7130  -22.3950 C.3    47  TYR47       0.1605
     44  C        -20.9290  -11.3150  -21.5300 C.2    47  TYR47       0.2264
     45  O        -20.6190  -11.9690  -20.5340 O.2    47  TYR47      -0.2867
     46  CB       -21.6230  -12.3970  -23.6710 C.3    47  TYR47       0.0534
     47  CG       -20.9460  -13.7200  -23.3870 C.ar   47  TYR47      -0.0201
     48  CD1      -19.5780  -13.7920  -23.1350 C.ar   47  TYR47      -0.0009
     49  CD2      -21.6820  -14.8960  -23.3500 C.ar   47  TYR47      -0.0009
     50  CE1      -18.9640  -15.0070  -22.8560 C.ar   47  TYR47       0.0417
     51  CE2      -21.0810  -16.1120  -23.0790 C.ar   47  TYR47       0.0417
     52  CZ       -19.7260  -16.1630  -22.8330 C.ar   47  TYR47       0.1957
     53  OH       -19.1410  -17.3750  -22.5620 O.3    47  TYR47      -0.2866
     54  N        -13.9240  -17.1920  -22.6050 N.3    55  VAL55      -0.1231
     55  CA       -13.0570  -18.1270  -23.2900 C.3    55  VAL55       0.1692
     56  C        -13.8660  -18.8920  -24.3350 C.2    55  VAL55       0.2592
     57  O        -15.0390  -19.2110  -24.1300 O.2    55  VAL55      -0.2718
     58  CB       -12.3760  -19.0960  -22.2830 C.3    55  VAL55       0.0266
     59  CG1      -13.4120  -19.8420  -21.4760 C.3    55  VAL55       0.0020
     60  CG2      -11.4450  -20.0680  -22.9920 C.3    55  VAL55       0.0020
     61  N        -13.2440  -19.1150  -25.4840 N.am   56  ASP56      -0.1974
     62  CA       -13.8000  -19.9460  -26.5380 C.3    56  ASP56       0.1709
     63  C        -12.7090  -20.8900  -27.0180 C.2    56  ASP56       0.2293
     64  O        -11.5800  -20.8240  -26.5280 O.2    56  ASP56      -0.2864
     65  CB       -14.3560  -19.0890  -27.6790 C.3    56  ASP56       0.1436
     66  CG       -13.4200  -17.9650  -28.0830 C.2    56  ASP56       0.3671
     67  OD1      -12.1900  -18.1140  -27.9280 O.co2  56  ASP56      -0.2456
     68  OD2      -13.9210  -16.9300  -28.5750 O.co2  56  ASP56      -0.2456
     69  N        -14.8320  -22.9750  -19.7050 N.3    82  LEU82      -0.1245
     70  CA       -15.6330  -22.6860  -20.8920 C.3    82  LEU82       0.1561
     71  C        -17.0550  -23.2050  -20.7040 C.2    82  LEU82       0.2260
     72  O        -18.0310  -22.4960  -20.9570 O.2    82  LEU82      -0.2867
     73  CB       -14.9880  -23.3040  -22.1420 C.3    82  LEU82       0.0270
     74  CG       -15.6020  -23.0770  -23.5300 C.3    82  LEU82       0.0019
     75  CD1      -14.5300  -23.1860  -24.6050 C.3    82  LEU82       0.0001
     76  CD2      -16.6940  -24.0790  -23.8150 C.3    82  LEU82       0.0001
     77  N        -18.9690  -21.3920  -17.9680 N.3    85  ASN85      -0.1225
     78  CA       -19.4200  -20.1160  -18.5260 C.3    85  ASN85       0.1785
     79  C        -20.6970  -20.2750  -19.3500 C.2    85  ASN85       0.2597
     80  O        -21.6290  -19.4820  -19.2220 O.2    85  ASN85      -0.2718
     81  CB       -18.3370  -19.4830  -19.4050 C.3    85  ASN85       0.1169
     82  CG       -17.1900  -18.8940  -18.6020 C.2    85  ASN85       0.2627
     83  OD1      -17.2960  -18.6920  -17.3940 O.2    85  ASN85      -0.2716
     84  ND2      -16.0920  -18.5890  -19.2840 N.am   85  ASN85      -0.0877
     85  N        -20.7310  -21.3120  -20.1840 N.am   86  ALA86      -0.1979
     86  CA       -21.9010  -21.6190  -21.0050 C.3    86  ALA86       0.1597
     87  C        -23.1170  -21.9030  -20.1370 C.2    86  ALA86       0.2287
     88  O        -24.2350  -21.5060  -20.4620 O.2    86  ALA86      -0.2864
     89  CB       -21.6150  -22.8030  -21.9180 C.3    86  ALA86       0.0319
     90  N        -24.3440  -18.4560  -18.8820 N.3    89  PHE89      -0.1227
     91  CA       -24.9760  -17.5710  -19.8550 C.3    89  PHE89       0.1736
     92  C        -26.2340  -18.2010  -20.4540 C.2    89  PHE89       0.2595
     93  O        -27.1670  -17.4940  -20.8360 O.2    89  PHE89      -0.2718
     94  CB       -23.9860  -17.1930  -20.9630 C.3    89  PHE89       0.0547
     95  CG       -24.5270  -16.1820  -21.9360 C.ar   89  PHE89      -0.0202
     96  CD1      -24.6740  -14.8530  -21.5650 C.ar   89  PHE89      -0.0042
     97  CD2      -24.8870  -16.5580  -23.2220 C.ar   89  PHE89      -0.0042
     98  CE1      -25.1770  -13.9170  -22.4560 C.ar   89  PHE89      -0.0003
     99  CE2      -25.3880  -15.6270  -24.1200 C.ar   89  PHE89      -0.0003
    100  CZ       -25.5340  -14.3040  -23.7360 C.ar   89  PHE89      -0.0000
    101  N        -26.2500  -19.5300  -20.5470 N.am   90  ASN90      -0.1974
    102  CA       -27.3950  -20.2550  -21.0940 C.3    90  ASN90       0.1688
    103  C        -28.2570  -20.8960  -20.0070 C.2    90  ASN90       0.2292
    104  O        -27.7580  -21.2840  -18.9490 O.2    90  ASN90      -0.2864
    105  CB       -26.9210  -21.3150  -22.0920 C.3    90  ASN90       0.1181
    106  CG       -26.1620  -20.7110  -23.2630 C.2    90  ASN90       0.2629
    107  OD1      -26.7530  -20.3620  -24.2860 O.2    90  ASN90      -0.2716
    108  ND2      -24.8510  -20.5770  -23.1150 N.am   90  ASN90      -0.0877
    109  N        -27.9810  -25.4810  -25.7460 N.3    96  ILE96      -0.1245
    110  CA       -26.5830  -25.1130  -25.5360 C.3    96  ILE96       0.1561
    111  C        -26.0990  -25.4680  -24.1310 C.2    96  ILE96       0.2260
    112  O        -24.9670  -25.9290  -23.9580 O.2    96  ILE96      -0.2867
    113  CB       -26.3620  -23.6050  -25.7980 C.3    96  ILE96       0.0252
    114  CG1      -26.6130  -23.2920  -27.2770 C.3    96  ILE96       0.0019
    115  CG2      -24.9500  -23.1820  -25.4140 C.3    96  ILE96       0.0019
    116  CD1      -26.4930  -21.8210  -27.6310 C.3    96  ILE96       0.0001
@<TRIPOS>BOND
     1     1     2    1
     2     6     5    1
     3     2     5    1
     4     2     3    1
     5    28    31    1
     6    28    29    1
     7    28    27    1
     8    22    21    2
     9    31    32    1
    10     5     7    1
    11    29    30    2
    12    27    21   am
    13    27    33    1
    14    21    20    1
    15     3     8   am
    16     3     4    2
    17     8     9    1
    18    19    20    1
    19    33    32    1
    20    10     9    1
    21    10    11    2
    22    20    23    1
    23     9    12    1
    24    68    66   ar
    25    34    35    1
    26    66    67   ar
    27    66    65    1
    28    12    13    1
    29    23    24    1
    30    65    62    1
    31    14    13   ar
    32    14    16   ar
    33   116   114    1
    34    39    38    1
    35    39    40    1
    36    39    41    1
    37    38    35    1
    38    35    36    1
    39   114   113    1
    40    13    15   ar
    41    63    62    1
    42    63    64    2
    43    16    18   ar
    44    24    26    1
    45    24    25    1
    46    62    61    1
    47    36    37    2
    48    15    17   ar
    49   113   110    1
    50   113   115    1
    51   109   110    1
    52    18    17   ar
    53   110   111    1
    54    61    56   am
    55    75    74    1
    56    56    57    2
    57    56    55    1
    58   107   106    2
    59   111   112    2
    60    99   100   ar
    61    99    97   ar
    62    76    74    1
    63   100    98   ar
    64    46    47    1
    65    46    43    1
    66    74    73    1
    67    47    49   ar
    68    47    48   ar
    69    49    51   ar
    70    55    54    1
    71    55    58    1
    72   106   108   am
    73   106   105    1
    74    97    95   ar
    75    48    50   ar
    76    51    52   ar
    77    60    58    1
    78    50    52   ar
    79    52    53    1
    80    42    43    1
    81    98    96   ar
    82    43    44    1
    83    58    59    1
    84    73    70    1
    85   105   102    1
    86    95    96   ar
    87    95    94    1
    88    89    86    1
    89    44    45    2
    90   102   101    1
    91   102   103    1
    92    86    85    1
    93    86    87    1
    94    94    91    1
    95    72    71    2
    96    70    71    1
    97    70    69    1
    98    93    92    2
    99   101    92   am
   100    88    87    2
   101    92    91    1
   102    85    79   am
   103   103   104    2
   104    91    90    1
   105    81    82    1
   106    81    78    1
   107    79    80    2
   108    79    78    1
   109    84    82   am
   110    82    83    2
   111    78    77    1
