@<TRIPOS>MOLECULE
tmp/5ea2B00.pdb
 92 91 0 0 0
SMALL
GASTEIGER

@<TRIPOS>ATOM
      1  N          5.7090   -4.4940   -1.4880 N.3    54  ILE54      -0.1245
      2  CA         4.7260   -5.4860   -1.0340 C.3    54  ILE54       0.1561
      3  C          3.3280   -4.9460   -1.3410 C.2    54  ILE54       0.2260
      4  O          3.0640   -3.7660   -1.1030 O.2    54  ILE54      -0.2867
      5  CB         4.8610   -5.8650    0.4740 C.3    54  ILE54       0.0252
      6  CG1        4.8110   -4.6160    1.4090 C.3    54  ILE54       0.0019
      7  CG2        6.0990   -6.7290    0.7290 C.3    54  ILE54       0.0019
      8  CD1        4.3860   -4.8590    2.8880 C.3    54  ILE54       0.0001
      9  N        -10.4420   -6.5020    3.8640 N.3    68  ASN68      -0.1225
     10  CA        -9.5220   -6.1250    4.9460 C.3    68  ASN68       0.1785
     11  C         -8.1680   -6.8450    4.7550 C.2    68  ASN68       0.2597
     12  O         -7.8680   -7.8370    5.4140 O.2    68  ASN68      -0.2718
     13  CB       -10.1560   -6.3270    6.3270 C.3    68  ASN68       0.1169
     14  CG       -11.2540   -5.3260    6.6090 C.2    68  ASN68       0.2627
     15  OD1      -11.0030   -4.1820    7.0180 O.2    68  ASN68      -0.2716
     16  ND2      -12.4980   -5.7250    6.3800 N.am   68  ASN68      -0.0877
     17  N         -7.3940   -6.3660    3.7700 N.am   69  PHE69      -0.1962
     18  CA        -6.1130   -6.9490    3.3930 C.3    69  PHE69       0.1771
     19  C         -5.0210   -6.8080    4.4680 C.2    69  PHE69       0.2619
     20  O         -4.6760   -5.6940    4.8670 O.2    69  PHE69      -0.2715
     21  CB        -5.6200   -6.3920    2.0420 C.3    69  PHE69       0.0574
     22  CG        -4.2970   -6.9940    1.5910 C.ar   69  PHE69      -0.0200
     23  CD1       -4.2230   -8.3190    1.1700 C.ar   69  PHE69      -0.0042
     24  CD2       -3.1360   -6.2360    1.5880 C.ar   69  PHE69      -0.0042
     25  CE1       -2.9980   -8.8820    0.7790 C.ar   69  PHE69      -0.0003
     26  CE2       -1.9120   -6.7970    1.1890 C.ar   69  PHE69      -0.0003
     27  CZ        -1.8540   -8.1170    0.7860 C.ar   69  PHE69      -0.0000
     28  N         -4.4730   -7.9520    4.8970 N.am   70  GLN70      -0.1963
     29  CA        -3.3650   -8.0360    5.8430 C.3    70  GLN70       0.1733
     30  C         -2.2680   -8.8450    5.1750 C.2    70  GLN70       0.2616
     31  O         -2.4060  -10.0470    4.9670 O.2    70  GLN70      -0.2715
     32  CB        -3.8040   -8.6250    7.1910 C.3    70  GLN70       0.0408
     33  CG        -4.4260   -7.5560    8.0950 C.3    70  GLN70       0.0908
     34  CD        -5.1710   -8.1330    9.2610 C.2    70  GLN70       0.2608
     35  OE1       -5.9320   -9.0990    9.1280 O.2    70  GLN70      -0.2717
     36  NE2       -4.9980   -7.5300   10.4320 N.am   70  GLN70      -0.0878
     37  N         -1.1930   -8.1600    4.7790 N.am   71  TYR71      -0.1960
     38  CA        -0.0860   -8.7860    4.0740 C.3    71  TYR71       0.1756
     39  C          0.4870  -10.0330    4.7700 C.2    71  TYR71       0.2461
     40  O          0.6460  -11.0130    4.0400 O.2    71  TYR71      -0.2730
     41  CB         1.0350   -7.7800    3.7470 C.3    71  TYR71       0.0574
     42  CG         2.0010   -8.3200    2.7130 C.ar   71  TYR71      -0.0198
     43  CD1        1.7350   -8.1970    1.3500 C.ar   71  TYR71      -0.0009
     44  CD2        3.1490   -9.0080    3.0950 C.ar   71  TYR71      -0.0009
     45  CE1        2.5870   -8.7380    0.3960 C.ar   71  TYR71       0.0417
     46  CE2        4.0250   -9.5350    2.1470 C.ar   71  TYR71       0.0417
     47  CZ         3.7460   -9.3890    0.7960 C.ar   71  TYR71       0.1957
     48  OH         4.6070   -9.8940   -0.1550 O.3    71  TYR71      -0.2866
     49  N          0.8110  -10.0490    6.1080 N.am   72  PRO72      -0.2727
     50  CA         1.4020  -11.2680    6.7100 C.3    72  PRO72       0.1402
     51  C          0.5860  -12.5440    6.5500 C.2    72  PRO72       0.2269
     52  O          1.1140  -13.5080    6.0190 O.2    72  PRO72      -0.2865
     53  CB         1.5880  -10.8940    8.1920 C.3    72  PRO72       0.0296
     54  CG         1.6640   -9.3720    8.1930 C.3    72  PRO72       0.0237
     55  CD         0.6770   -8.9750    7.1270 C.3    72  PRO72       0.0939
     56  N         11.2710   -7.8760    2.1300 N.3   121  GLU121     -0.1245
     57  CA         9.8410   -7.8000    2.4490 C.3   121  GLU121      0.1567
     58  C          8.9730   -8.7520    1.5960 C.2   121  GLU121      0.2260
     59  O          8.0890   -9.4180    2.1410 O.2   121  GLU121     -0.2867
     60  CB         9.3500   -6.3440    2.3950 C.3   121  GLU121      0.0388
     61  CG        10.0870   -5.4510    3.3930 C.3   121  GLU121      0.1160
     62  CD         9.7970   -3.9600    3.3760 C.2   121  GLU121      0.3649
     63  OE1        9.3970   -3.4320    2.3130 O.co2 121  GLU121     -0.2457
     64  OE2        9.9130   -3.3290    4.4520 O.co2 121  GLU121     -0.2457
     65  N         10.5210  -17.5710    8.2360 N.3   130  TYR130     -0.1241
     66  CA        10.4630  -17.4760    9.6890 C.3   130  TYR130      0.1605
     67  C          9.1460  -17.9860   10.2750 C.2   130  TYR130      0.2264
     68  O          8.1300  -18.0090    9.5810 O.2   130  TYR130     -0.2867
     69  CB        10.6840  -16.0040   10.1330 C.3   130  TYR130      0.0534
     70  CG         9.5390  -15.0750    9.7810 C.ar  130  TYR130     -0.0201
     71  CD1        9.4330  -14.5160    8.5100 C.ar  130  TYR130     -0.0009
     72  CD2        8.5300  -14.8010   10.7000 C.ar  130  TYR130     -0.0009
     73  CE1        8.3720  -13.6790    8.1760 C.ar  130  TYR130      0.0417
     74  CE2        7.4640  -13.9640   10.3750 C.ar  130  TYR130      0.0417
     75  CZ         7.3840  -13.4190    9.1080 C.ar  130  TYR130      0.1957
     76  OH         6.3300  -12.6090    8.7830 O.3   130  TYR130     -0.2866
     77  N          7.1250  -17.8280   14.4890 N.3   132  TYR132     -0.1241
     78  CA         7.1510  -17.4830   15.9060 C.3   132  TYR132      0.1605
     79  C          7.4420  -18.7780   16.6940 C.2   132  TYR132      0.2264
     80  O          8.0500  -18.7190   17.7560 O.2   132  TYR132     -0.2867
     81  CB         5.7860  -16.9040   16.3200 C.3   132  TYR132      0.0534
     82  CG         5.7690  -15.4200   16.6130 C.ar  132  TYR132     -0.0201
     83  CD1        5.5920  -14.9500   17.9100 C.ar  132  TYR132     -0.0009
     84  CD2        5.8570  -14.4840   15.5860 C.ar  132  TYR132     -0.0009
     85  CE1        5.5330  -13.5850   18.1830 C.ar  132  TYR132      0.0417
     86  CE2        5.8160  -13.1160   15.8490 C.ar  132  TYR132      0.0417
     87  CZ         5.6560  -12.6710   17.1500 C.ar  132  TYR132      0.1957
     88  OH         5.6110  -11.3250   17.4160 O.3   132  TYR132     -0.2866
     89  N         18.0700   -8.9330   13.2370 N.3   178  GLY178     -0.1225
     90  CA        16.6560   -8.8130   12.9060 C.3   178  GLY178      0.1811
     91  C         16.2070   -9.4530   11.6160 C.2   178  GLY178      0.2280
     92  O         15.1270  -10.0520   11.5530 O.2   178  GLY178     -0.2866
@<TRIPOS>BOND
     1     1     2    1
     2     3     4    2
     3     3     2    1
     4     2     5    1
     5    48    47    1
     6    45    47   ar
     7    45    43   ar
     8     5     7    1
     9     5     6    1
    10    25    27   ar
    11    25    23   ar
    12    27    26   ar
    13    47    46   ar
    14    23    22   ar
    15    26    24   ar
    16    43    42   ar
    17     6     8    1
    18    24    22   ar
    19    22    21    1
    20    58    59    2
    21    58    57    1
    22    21    18    1
    23    56    57    1
    24    46    44   ar
    25    63    62   ar
    26    60    57    1
    27    60    61    1
    28    42    44   ar
    29    42    41    1
    30    62    61    1
    31    62    64   ar
    32    18    17    1
    33    18    19    1
    34    41    38    1
    35    17    11   am
    36     9    10    1
    37    40    39    2
    38    38    39    1
    39    38    37    1
    40    19    20    2
    41    19    28   am
    42    11    10    1
    43    11    12    2
    44    39    49   am
    45    37    30   am
    46    28    29    1
    47    10    13    1
    48    31    30    2
    49    30    29    1
    50    29    32    1
    51    52    51    2
    52    49    50    1
    53    49    55    1
    54    13    14    1
    55    16    14   am
    56    51    50    1
    57    14    15    2
    58    50    53    1
    59    55    54    1
    60    32    33    1
    61    33    34    1
    62    73    71   ar
    63    73    75   ar
    64    53    54    1
    65    65    66    1
    66    71    70   ar
    67    76    75    1
    68    75    74   ar
    69    35    34    2
    70    34    36   am
    71    68    67    2
    72    66    69    1
    73    66    67    1
    74    70    69    1
    75    70    72   ar
    76    74    72   ar
    77    92    91    2
    78    91    90    1
    79    90    89    1
    80    77    78    1
    81    84    86   ar
    82    84    82   ar
    83    86    87   ar
    84    78    81    1
    85    78    79    1
    86    81    82    1
    87    82    83   ar
    88    79    80    2
    89    87    88    1
    90    87    85   ar
    91    83    85   ar
