@<TRIPOS>MOLECULE
tmp/5ea2B01.pdb
 204 201 0 0 0
SMALL
GASTEIGER

@<TRIPOS>ATOM
      1  N         23.0210   -2.6860   -6.7950 N.3    15  HIS15      -0.1241
      2  CA        23.6760   -1.5410   -7.4390 C.3    15  HIS15       0.1621
      3  C         23.3610   -1.5580   -8.9320 C.2    15  HIS15       0.2264
      4  O         23.4870   -2.5910   -9.5760 O.2    15  HIS15      -0.2867
      5  CB        25.2030   -1.5330   -7.2070 C.3    15  HIS15       0.0745
      6  CG        25.7870   -0.1510   -7.2940 C.ar   15  HIS15       0.0817
      7  ND1       25.6550    0.6260   -8.4400 N.ar   15  HIS15      -0.2268
      8  CD2       26.4630    0.5590   -6.3630 C.ar   15  HIS15       0.1154
      9  CE1       26.2360    1.7810   -8.1590 C.ar   15  HIS15       0.1986
     10  NE2       26.7420    1.7800   -6.9200 N.ar   15  HIS15      -0.2212
     11  N         24.9590    0.2250  -11.3800 N.3    17  GLU17      -0.1231
     12  CA        26.1210    0.4690  -12.2600 C.3    17  GLU17       0.1699
     13  C         27.1120   -0.6750  -12.3350 C.2    17  GLU17       0.2592
     14  O         27.5610   -1.1900  -11.3100 O.2    17  GLU17      -0.2718
     15  CB        26.8410    1.7780  -11.8680 C.3    17  GLU17       0.0402
     16  CG        25.9240    3.0100  -11.8430 C.3    17  GLU17       0.1161
     17  CD        25.1210    3.2600  -13.1120 C.2    17  GLU17       0.3649
     18  OE1       25.7410    3.3830  -14.1910 O.co2  17  GLU17      -0.2457
     19  OE2       23.8750    3.3390  -13.0290 O.co2  17  GLU17      -0.2457
     20  N         27.4510   -1.0640  -13.5680 N.am   18  ARG18      -0.1966
     21  CA        28.4450   -2.1030  -13.8880 C.3    18  ARG18       0.1729
     22  C         29.8340   -1.5840  -13.5410 C.2    18  ARG18       0.2617
     23  O         30.7450   -2.3640  -13.2640 O.2    18  ARG18      -0.2715
     24  CB        28.4130   -2.4220  -15.3920 C.3    18  ARG18       0.0348
     25  CG        27.1010   -2.9820  -15.8780 C.3    18  ARG18       0.0492
     26  CD        27.1240   -4.4760  -15.8860 C.3    18  ARG18       0.2205
     27  NE        25.9620   -4.9980  -16.5860 N.pl3  18  ARG18      -0.0865
     28  CZ        25.9990   -5.5840  -17.7760 C.cat  18  ARG18       0.5346
     29  NH1       27.1600   -5.7760  -18.3950 N.pl3  18  ARG18       0.1354
     30  NH2       24.8830   -6.0110  -18.3400 N.pl3  18  ARG18       0.1354
     31  N         29.9920   -0.2570  -13.5780 N.am   19  THR19      -0.1937
     32  CA        31.2590    0.4300  -13.2780 C.3    19  THR19       0.2028
     33  C         31.4520    0.6460  -11.7760 C.2    19  THR19       0.2643
     34  O         32.4930    1.1670  -11.3880 O.2    19  THR19      -0.2714
     35  CB        31.3140    1.7700  -14.0240 C.3    19  THR19       0.1808
     36  OG1       30.1160    2.4850  -13.7100 O.3    19  THR19      -0.2208
     37  CG2       31.4890    1.5990  -15.5520 C.3    19  THR19       0.0379
     38  N         30.4500    0.2970  -10.9350 N.am   20  SER20      -0.1935
     39  CA        30.5620    0.4750   -9.4700 C.3    20  SER20       0.2055
     40  C         31.5520   -0.5010   -8.8190 C.2    20  SER20       0.2643
     41  O         31.7570   -1.6000   -9.3370 O.2    20  SER20      -0.2714
     42  CB        29.1980    0.2940   -8.8060 C.3    20  SER20       0.2130
     43  OG        28.7230   -1.0420   -8.9070 O.3    20  SER20      -0.2179
     44  N         32.0970   -0.1380   -7.6390 N.am   21  PHE21      -0.1959
     45  CA        32.9400   -1.0710   -6.8820 C.3    21  PHE21       0.1771
     46  C         32.0700   -2.2340   -6.3610 C.2    21  PHE21       0.2619
     47  O         32.5630   -3.3530   -6.2350 O.2    21  PHE21      -0.2715
     48  CB        33.6560   -0.3830   -5.7160 C.3    21  PHE21       0.0574
     49  CG        34.8190   -1.1870   -5.1850 C.ar   21  PHE21      -0.0200
     50  CD1       35.9820   -1.3350   -5.9320 C.ar   21  PHE21      -0.0042
     51  CD2       34.7520   -1.7970   -3.9300 C.ar   21  PHE21      -0.0042
     52  CE1       37.0580   -2.0970   -5.4430 C.ar   21  PHE21      -0.0003
     53  CE2       35.8400   -2.5370   -3.4300 C.ar   21  PHE21      -0.0003
     54  CZ        36.9790   -2.6840   -4.1900 C.ar   21  PHE21      -0.0000
     55  N         30.7650   -1.9830   -6.1260 N.am   22  ASN22      -0.1972
     56  CA        29.8290   -3.0390   -5.7310 C.3    22  ASN22       0.1688
     57  C         29.7440   -4.1260   -6.8000 C.2    22  ASN22       0.2292
     58  O         29.7380   -5.3070   -6.4680 O.2    22  ASN22      -0.2864
     59  CB        28.4380   -2.4720   -5.4490 C.3    22  ASN22       0.1181
     60  CG        28.3080   -2.1270   -4.0010 C.2    22  ASN22       0.2629
     61  OD1       28.0060   -2.9840   -3.1790 O.2    22  ASN22      -0.2716
     62  ND2       28.6870   -0.9160   -3.6400 N.am   22  ASN22      -0.0877
     63  N         32.1170   -4.7040   -9.1250 N.3    24  ALA24      -0.1245
     64  CA        33.4660   -5.3050   -9.1100 C.3    24  ALA24       0.1562
     65  C         33.5830   -6.4070   -8.0180 C.2    24  ALA24       0.2260
     66  O         34.1470   -7.4850   -8.2640 O.2    24  ALA24      -0.2867
     67  CB        34.5150   -4.2340   -8.8630 C.3    24  ALA24       0.0290
     68  N         25.8920   -1.0170   -1.4950 N.3   106  PRO106     -0.2102
     69  CA        26.4580    0.1800   -0.8700 C.3   106  PRO106      0.1504
     70  C         25.5640    0.5370    0.3270 C.2   106  PRO106      0.2576
     71  O         24.3250    0.4280    0.2450 O.2   106  PRO106     -0.2718
     72  CB        26.3560    1.2390   -1.9720 C.3   106  PRO106      0.0282
     73  CG        25.1410    0.8120   -2.7900 C.3   106  PRO106      0.0208
     74  CD        25.0470   -0.6770   -2.6690 C.3   106  PRO106      0.0893
     75  N         26.1670    0.9490    1.4300 N.am  107  LEU107     -0.1966
     76  CA        25.3750    1.4190    2.5750 C.3   107  LEU107      0.1728
     77  C         24.6090    2.6950    2.1370 C.2   107  LEU107      0.2616
     78  O         25.2020    3.5900    1.5440 O.2   107  LEU107     -0.2715
     79  CB        26.2620    1.7310    3.7950 C.3   107  LEU107      0.0311
     80  CG        25.5070    1.9690    5.1200 C.3   107  LEU107      0.0022
     81  CD1       25.0160    0.6510    5.7250 C.3   107  LEU107      0.0001
     82  CD2       26.4180    2.6930    6.1410 C.3   107  LEU107      0.0001
     83  N         23.2890    2.7300    2.3720 N.am  108  GLN108     -0.1963
     84  CA        22.4320    3.8480    1.9770 C.3   108  GLN108      0.1733
     85  C         21.5350    4.2150    3.1270 C.2   108  GLN108      0.2616
     86  O         20.8040    3.3660    3.6310 O.2   108  GLN108     -0.2715
     87  CB        21.6200    3.5250    0.7070 C.3   108  GLN108      0.0408
     88  CG        22.4710    3.5000   -0.5620 C.3   108  GLN108      0.0908
     89  CD        21.7400    3.1380   -1.8390 C.2   108  GLN108      0.2608
     90  OE1       22.3560    2.9120   -2.8740 O.2   108  GLN108     -0.2717
     91  NE2       20.4260    3.1280   -1.8430 N.am  108  GLN108     -0.0878
     92  N         21.6550    5.4610    3.6130 N.am  109  TRP109     -0.1960
     93  CA        20.9050    5.9460    4.7660 C.3   109  TRP109      0.1771
     94  C         20.9600    4.9310    5.9520 C.2   109  TRP109      0.2619
     95  O         19.9390    4.5590    6.5390 O.2   109  TRP109     -0.2715
     96  CB        19.4820    6.3920    4.3600 C.3   109  TRP109      0.0590
     97  CG        19.5380    7.7230    3.6510 C.ar  109  TRP109      0.0006
     98  CD1       19.3560    7.9540    2.3150 C.ar  109  TRP109      0.0946
     99  CD2       19.9780    8.9710    4.2180 C.ar  109  TRP109      0.0152
    100  NE1       19.6220    9.2760    2.0210 N.ar  109  TRP109     -0.2442
    101  CE2       19.9750    9.9290    3.1780 C.ar  109  TRP109      0.0810
    102  CE3       20.3520    9.3800    5.5150 C.ar  109  TRP109      0.0012
    103  CZ2       20.3440   11.2670    3.3940 C.ar  109  TRP109      0.0191
    104  CZ3       20.6920   10.7100    5.7280 C.ar  109  TRP109      0.0001
    105  CH2       20.7250   11.6240    4.6690 C.ar  109  TRP109      0.0015
    106  N         22.1940    4.4660    6.2480 N.am  110  PHE110     -0.1974
    107  CA        22.5800    3.6090    7.3680 C.3   110  PHE110      0.1639
    108  C         21.8390    2.2400    7.3780 C.2   110  PHE110      0.2290
    109  O         21.6080    1.6580    8.4380 O.2   110  PHE110     -0.2864
    110  CB        22.4340    4.3890    8.7080 C.3   110  PHE110      0.0560
    111  CG        23.2290    5.6850    8.7460 C.ar  110  PHE110     -0.0200
    112  CD1       22.6910    6.8700    8.2480 C.ar  110  PHE110     -0.0042
    113  CD2       24.5330    5.7060    9.2250 C.ar  110  PHE110     -0.0042
    114  CE1       23.4400    8.0530    8.2450 C.ar  110  PHE110     -0.0003
    115  CE2       25.2700    6.8970    9.2540 C.ar  110  PHE110     -0.0003
    116  CZ        24.7210    8.0620    8.7590 C.ar  110  PHE110     -0.0000
    117  N         29.8850   -1.4270    1.1930 N.3   151  THR151     -0.1203
    118  CA        30.7610   -0.3160    0.8250 C.3   151  THR151      0.1994
    119  C         30.0940    0.9130    1.4130 C.2   151  THR151      0.2619
    120  O         28.8660    0.9740    1.4650 O.2   151  THR151     -0.2717
    121  CB        30.9550   -0.1790   -0.6970 C.3   151  THR151      0.1784
    122  OG1       29.7140    0.1810   -1.2840 O.3   151  THR151     -0.2211
    123  CG2       31.5480   -1.4250   -1.3390 C.3   151  THR151      0.0376
    124  N         30.8820    1.8690    1.8910 N.am  152  THR152     -0.1938
    125  CA        30.3180    3.0760    2.4830 C.3   152  THR152      0.2028
    126  C         30.9820    4.3290    1.8920 C.2   152  THR152      0.2643
    127  O         32.0900    4.2580    1.3580 O.2   152  THR152     -0.2714
    128  CB        30.4950    3.0810    4.0410 C.3   152  THR152      0.1808
    129  OG1       31.8560    3.3440    4.3660 O.3   152  THR152     -0.2208
    130  CG2       30.0240    1.7950    4.7330 C.3   152  THR152      0.0379
    131  N         30.3030    5.4600    2.0510 N.am  153  GLY153     -0.1939
    132  CA        30.8170    6.7870    1.7390 C.3   153  GLY153      0.2014
    133  C         31.7280    7.2480    2.8700 C.2   153  GLY153      0.2639
    134  O         32.8490    7.6990    2.6270 O.2   153  GLY153     -0.2714
    135  N         31.2520    7.1060    4.1040 N.am  154  GLY154     -0.1954
    136  CA        31.9750    7.5030    5.3070 C.3   154  GLY154      0.1869
    137  C         33.1760    6.6390    5.6510 C.2   154  GLY154      0.2309
    138  O         33.1870    5.4260    5.3930 O.2   154  GLY154     -0.2863
    139  N         32.6490    5.7770   11.7990 N.3   159  TYR159     -0.1241
    140  CA        31.8910    4.6410   12.3120 C.3   159  TYR159      0.1605
    141  C         32.5590    3.9470   13.4990 C.2   159  TYR159      0.2264
    142  O         32.1250    2.8720   13.8870 O.2   159  TYR159     -0.2867
    143  CB        31.5870    3.6500   11.1830 C.3   159  TYR159      0.0534
    144  CG        30.6690    4.2410   10.1400 C.ar  159  TYR159     -0.0201
    145  CD1       29.3190    4.4520   10.4110 C.ar  159  TYR159     -0.0009
    146  CD2       31.1420    4.5660    8.8690 C.ar  159  TYR159     -0.0009
    147  CE1       28.4660    4.9900    9.4510 C.ar  159  TYR159      0.0417
    148  CE2       30.2880    5.0710    7.8880 C.ar  159  TYR159      0.0417
    149  CZ        28.9500    5.2810    8.1880 C.ar  159  TYR159      0.1957
    150  OH        28.1020    5.8290    7.2670 O.3   159  TYR159     -0.2866
    151  N         29.3400    9.3970   13.3660 N.3   165  HIS165     -0.1241
    152  CA        28.1920    8.5320   13.0500 C.3   165  HIS165      0.1621
    153  C         27.8310    7.5330   14.1430 C.2   165  HIS165      0.2264
    154  O         26.7100    7.0280   14.1740 O.2   165  HIS165     -0.2867
    155  CB        28.3930    7.8030   11.7170 C.3   165  HIS165      0.0745
    156  CG        28.3200    8.6950   10.5140 C.ar  165  HIS165      0.0817
    157  ND1       27.3430    9.6740   10.3920 N.ar  165  HIS165     -0.2268
    158  CD2       29.0570    8.6720    9.3800 C.ar  165  HIS165      0.1154
    159  CE1       27.5550   10.2420    9.2130 C.ar  165  HIS165      0.1986
    160  NE2       28.5680    9.6660    8.5660 N.ar  165  HIS165     -0.2212
    161  N         35.1620    4.0310    0.0570 N.3   196  ILE196     -0.1231
    162  CA        35.6710    3.4780   -1.1990 C.3   196  ILE196      0.1692
    163  C         35.9120    4.5870   -2.2580 C.2   196  ILE196      0.2592
    164  O         36.6890    4.3720   -3.1760 O.2   196  ILE196     -0.2718
    165  CB        34.7780    2.3040   -1.7090 C.3   196  ILE196      0.0266
    166  CG1       35.4480    1.5070   -2.8490 C.3   196  ILE196      0.0019
    167  CG2       33.3780    2.8090   -2.1170 C.3   196  ILE196      0.0020
    168  CD1       36.8980    0.8810   -2.5590 C.3   196  ILE196      0.0001
    169  N         35.2710    5.7520   -2.0810 N.am  197  GLY197     -0.1957
    170  CA        35.4500    6.9280   -2.9290 C.3   197  GLY197      0.1869
    171  C         36.7870    7.6100   -2.6990 C.2   197  GLY197      0.2309
    172  O         37.2720    8.3250   -3.5780 O.2   197  GLY197     -0.2863
    173  N         43.7150    3.6290   -6.2330 N.3   201  ALA201     -0.1245
    174  CA        43.5810    2.5350   -7.1890 C.3   201  ALA201      0.1562
    175  C         44.3010    1.2300   -6.7780 C.2   201  ALA201      0.2260
    176  O         43.7040    0.1650   -6.9140 O.2   201  ALA201     -0.2867
    177  CB        44.0220    2.9810   -8.5790 C.3   201  ALA201      0.0290
    178  N         42.3060   -0.3490   -3.9060 N.3   204  ARG204     -0.1231
    179  CA        41.0210   -0.9040   -4.3890 C.3   204  ARG204      0.1694
    180  C         41.2130   -2.2960   -4.9860 C.2   204  ARG204      0.2591
    181  O         40.4100   -3.1970   -4.7230 O.2   204  ARG204     -0.2718
    182  CB        40.3600    0.0160   -5.4230 C.3   204  ARG204      0.0321
    183  CG        39.8480    1.3360   -4.8330 C.3   204  ARG204      0.0489
    184  CD        38.8800    2.0220   -5.7740 C.3   204  ARG204      0.2205
    185  NE        39.3870    2.1780   -7.1500 N.pl3 204  ARG204     -0.0865
    186  CZ        40.0150    3.2550   -7.6240 C.cat 204  ARG204      0.5346
    187  NH1       40.3120    4.2700   -6.8200 N.pl3 204  ARG204      0.1354
    188  NH2       40.3810    3.3100   -8.8930 N.pl3 204  ARG204      0.1354
    189  N         42.3080   -2.4700   -5.7680 N.am  205  ILE205     -0.1980
    190  CA        42.6990   -3.7450   -6.3800 C.3   205  ILE205      0.1595
    191  C         42.9430   -4.8080   -5.2970 C.2   205  ILE205      0.2287
    192  O         42.4520   -5.9290   -5.4200 O.2   205  ILE205     -0.2864
    193  CB        43.9080   -3.5360   -7.3550 C.3   205  ILE205      0.0276
    194  CG1       43.4110   -2.9350   -8.7060 C.3   205  ILE205      0.0022
    195  CG2       44.7210   -4.8430   -7.5790 C.3   205  ILE205      0.0022
    196  CD1       44.4800   -2.1270   -9.5200 C.3   205  ILE205      0.0001
    197  N         39.6980   -6.1480   -3.5350 N.3   208  LEU208     -0.1245
    198  CA        39.1160   -7.2010   -4.3700 C.3   208  LEU208      0.1561
    199  C         39.8270   -8.5450   -4.1780 C.2   208  LEU208      0.2260
    200  O         39.1560   -9.5580   -4.0030 O.2   208  LEU208     -0.2867
    201  CB        39.1120   -6.7980   -5.8590 C.3   208  LEU208      0.0270
    202  CG        38.1990   -5.6320   -6.2440 C.3   208  LEU208      0.0019
    203  CD1       38.4200   -5.2360   -7.7030 C.3   208  LEU208      0.0001
    204  CD2       36.7320   -5.9780   -6.0370 C.3   208  LEU208      0.0001
@<TRIPOS>BOND
     1    29    28    1
     2    30    28    1
     3    28    27    2
     4    27    26    1
     5    26    25    1
     6    25    24    1
     7    37    35    1
     8    24    21    1
     9    18    17   ar
    10    35    36    1
    11    35    32    1
    12    21    20    1
    13    21    22    1
    14    31    22   am
    15    31    32    1
    16    20    13   am
    17    22    23    2
    18    32    33    1
    19    17    19   ar
    20    17    16    1
    21    13    12    1
    22    13    14    2
    23    12    15    1
    24    12    11    1
    25    15    16    1
    26    33    34    2
    27    33    38   am
    28    38    39    1
    29     4     3    2
    30   196   194    1
    31    39    40    1
    32    39    42    1
    33    41    40    2
    34    63    64    1
    35    64    67    1
    36    64    65    1
    37     3     2    1
    38    43    42    1
    39   188   186    1
    40    40    44   am
    41   194   193    1
    42   177   174    1
    43     7     9   ar
    44     7     6   ar
    45    66    65    2
    46     9    10   ar
    47   203   202    1
    48    44    45    1
    49   186   185    2
    50   186   187    1
    51   195   193    1
    52     2     5    1
    53     2     1    1
    54   193   190    1
    55     6     5    1
    56     6     8   ar
    57   174   175    1
    58   174   173    1
    59   185   184    1
    60    10     8   ar
    61   176   175    2
    62    45    46    1
    63    45    48    1
    64    57    58    2
    65    57    56    1
    66   190   189    1
    67   190   191    1
    68    46    47    2
    69    46    55   am
    70   202   204    1
    71   202   201    1
    72    55    56    1
    73    50    52   ar
    74    50    49   ar
    75   201   198    1
    76   184   183    1
    77   189   180   am
    78    56    59    1
    79    48    49    1
    80    59    60    1
    81    52    54   ar
    82   182   183    1
    83   182   179    1
    84   192   191    2
    85    49    51   ar
    86   180   181    2
    87   180   179    1
    88   179   178    1
    89   198   199    1
    90   198   197    1
    91    54    53   ar
    92   199   200    2
    93    60    62   am
    94    60    61    2
    95    51    53   ar
    96   172   171    2
    97   164   163    2
    98   170   171    1
    99   170   169    1
   100    90    89    2
   101   166   168    1
   102   166   165    1
   103    73    74    1
   104    73    72    1
   105    74    68    1
   106   163   169   am
   107   163   162    1
   108   167   165    1
   109    72    69    1
   110    91    89   am
   111    89    88    1
   112   165   162    1
   113    68    69    1
   114   123   121    1
   115   122   121    1
   116   162   161    1
   117    69    70    1
   118   121   118    1
   119    88    87    1
   120    71    70    2
   121    70    75   am
   122    87    84    1
   123   118   117    1
   124   118   119    1
   125   127   126    2
   126   119   120    2
   127   119   124   am
   128    75    76    1
   129    78    77    2
   130   132   131    1
   131   132   133    1
   132   124   125    1
   133   126   131   am
   134   126   125    1
   135    84    83    1
   136    84    85    1
   137   100    98   ar
   138   100   101   ar
   139    77    83   am
   140    77    76    1
   141    98    97   ar
   142   125   128    1
   143    76    79    1
   144   134   133    2
   145   133   135   am
   146    85    92   am
   147    85    86    2
   148   101   103   ar
   149   101    99   ar
   150   103   105   ar
   151    92    93    1
   152    97    99   ar
   153    97    96    1
   154    79    80    1
   155   128   129    1
   156   128   130    1
   157   135   136    1
   158    99   102   ar
   159    96    93    1
   160   105   104   ar
   161    93    94    1
   162    80    81    1
   163    80    82    1
   164   136   137    1
   165   138   137    2
   166   102   104   ar
   167    94   106   am
   168    94    95    2
   169   106   107    1
   170   150   149    1
   171   107   108    1
   172   107   110    1
   173   108   109    2
   174   148   149   ar
   175   148   146   ar
   176   149   147   ar
   177   114   112   ar
   178   114   116   ar
   179   112   111   ar
   180   160   159   ar
   181   160   158   ar
   182   110   111    1
   183   111   113   ar
   184   116   115   ar
   185   146   144   ar
   186   159   157   ar
   187   113   115   ar
   188   158   156   ar
   189   147   145   ar
   190   144   145   ar
   191   144   143    1
   192   157   156   ar
   193   156   155    1
   194   143   140    1
   195   155   152    1
   196   139   140    1
   197   140   141    1
   198   152   151    1
   199   152   153    1
   200   141   142    2
   201   153   154    2
