@<TRIPOS>MOLECULE
tmp/5ea5A01.pdb
 88 86 0 0 0
SMALL
GASTEIGER

@<TRIPOS>ATOM
      1  N         12.5560   13.5480   23.0790 N.3    71  PHE71      -0.1241
      2  CA        13.6160   14.4140   23.5770 C.3    71  PHE71       0.1605
      3  C         14.9440   13.6650   23.7090 C.2    71  PHE71       0.2264
      4  O         15.8890   13.9370   22.9720 O.2    71  PHE71      -0.2867
      5  CB        13.2230   15.0170   24.9230 C.3    71  PHE71       0.0534
      6  CG        12.6210   16.3960   24.8330 C.ar   71  PHE71      -0.0203
      7  CD1       12.8800   17.2220   23.7590 C.ar   71  PHE71      -0.0042
      8  CD2       11.8030   16.8690   25.8510 C.ar   71  PHE71      -0.0042
      9  CE1       12.3210   18.4890   23.6980 C.ar   71  PHE71      -0.0003
     10  CE2       11.2490   18.1270   25.7920 C.ar   71  PHE71      -0.0003
     11  CZ        11.5080   18.9380   24.7170 C.ar   71  PHE71      -0.0000
     12  N         17.9870   10.7580   21.2800 N.3    74  PHE74      -0.1241
     13  CA        19.3280   10.7730   20.6970 C.3    74  PHE74       0.1605
     14  C         20.3370    9.9540   21.5170 C.2    74  PHE74       0.2264
     15  O         21.4340    9.6380   21.0380 O.2    74  PHE74      -0.2867
     16  CB        19.8230   12.2110   20.5460 C.3    74  PHE74       0.0534
     17  CG        20.2380   12.8320   21.8320 C.ar   74  PHE74      -0.0203
     18  CD1       19.2930   13.3900   22.6790 C.ar   74  PHE74      -0.0042
     19  CD2       21.5750   12.8640   22.2040 C.ar   74  PHE74      -0.0042
     20  CE1       19.6750   13.9730   23.8820 C.ar   74  PHE74      -0.0003
     21  CE2       21.9650   13.4390   23.4070 C.ar   74  PHE74      -0.0003
     22  CZ        21.0130   13.9920   24.2500 C.ar   74  PHE74      -0.0000
     23  N         15.8410   20.5080   30.8540 N.3   316  MET316     -0.1230
     24  CA        16.4310   21.4310   29.8900 C.3   316  MET316      0.1702
     25  C         15.9340   22.8370   30.1760 C.2   316  MET316      0.2593
     26  O         14.8240   23.0210   30.6730 O.2   316  MET316     -0.2718
     27  CB        16.0810   21.0430   28.4570 C.3   316  MET316      0.0401
     28  CG        14.6140   21.2130   28.1120 C.3   316  MET316      0.0596
     29  SD        14.2780   21.1160   26.3480 S.3   316  MET316     -0.1393
     30  CE        14.6140   22.8040   25.8420 C.3   316  MET316      0.0692
     31  N         16.7440   23.8380   29.8620 N.am  317  THR317     -0.1939
     32  CA        16.3570   25.2050   30.1730 C.3   317  THR317      0.2028
     33  C         16.2900   26.0770   28.9340 C.2   317  THR317      0.2642
     34  O         17.0060   25.8420   27.9630 O.2   317  THR317     -0.2714
     35  CB        17.3320   25.8510   31.1710 C.3   317  THR317      0.1808
     36  OG1       18.6050   26.0370   30.5450 O.3   317  THR317     -0.2208
     37  CG2       17.4920   24.9860   32.4070 C.3   317  THR317      0.0379
     38  N         15.4280   27.0850   28.9670 N.am  318  SER318     -0.1949
     39  CA        15.4270   28.0880   27.9180 C.3   318  SER318      0.1924
     40  C         14.7790   29.3680   28.4220 C.2   318  SER318      0.2314
     41  O         14.3670   29.4500   29.5830 O.2   318  SER318     -0.2863
     42  CB        14.7120   27.5760   26.6600 C.3   318  SER318      0.2116
     43  OG        13.3170   27.4350   26.8600 O.3   318  SER318     -0.2180
     44  N         20.1980   27.9590   28.1890 N.3   406  ASP406     -0.1225
     45  CA        20.1820   27.1140   27.0050 C.3   406  ASP406      0.1805
     46  C         20.8620   25.7830   27.2660 C.2   406  ASP406      0.2598
     47  O         21.8690   25.4630   26.6510 O.2   406  ASP406     -0.2718
     48  CB        20.8500   27.8170   25.8180 C.3   406  ASP406      0.1424
     49  CG        20.4860   27.1790   24.4790 C.2   406  ASP406      0.3668
     50  OD1       19.3700   26.6320   24.3800 O.co2 406  ASP406     -0.2456
     51  OD2       21.3090   27.2140   23.5350 O.co2 406  ASP406     -0.2456
     52  N         20.3030   25.0070   28.1810 N.am  407  GLU407     -0.1965
     53  CA        20.8060   23.6710   28.4550 C.3   407  GLU407      0.1733
     54  C         19.8400   22.6520   27.8680 C.2   407  GLU407      0.2616
     55  O         18.6350   22.7930   28.0310 O.2   407  GLU407     -0.2715
     56  CB        20.9780   23.4570   29.9620 C.3   407  GLU407      0.0429
     57  CG        21.9490   24.4250   30.6300 C.3   407  GLU407      0.1163
     58  CD        23.4040   24.1480   30.2750 C.2   407  GLU407      0.3649
     59  OE1       23.9330   23.0890   30.6880 O.co2 407  GLU407     -0.2457
     60  OE2       24.0230   24.9870   29.5840 O.co2 407  GLU407     -0.2457
     61  N         20.3510   21.6380   27.1740 N.am  408  PHE408     -0.1960
     62  CA        19.4710   20.5920   26.6610 C.3   408  PHE408      0.1771
     63  C         19.7150   19.2570   27.3560 C.2   408  PHE408      0.2619
     64  O         18.8310   18.6930   28.0020 O.2   408  PHE408     -0.2715
     65  CB        19.6420   20.4280   25.1530 C.3   408  PHE408      0.0574
     66  CG        18.6050   19.5260   24.5150 C.ar  408  PHE408     -0.0200
     67  CD1       18.8340   18.1640   24.3650 C.ar  408  PHE408     -0.0042
     68  CD2       17.4020   20.0400   24.0670 C.ar  408  PHE408     -0.0042
     69  CE1       17.8830   17.3420   23.7770 C.ar  408  PHE408     -0.0003
     70  CE2       16.4490   19.2170   23.4790 C.ar  408  PHE408     -0.0003
     71  CZ        16.6920   17.8730   23.3320 C.ar  408  PHE408     -0.0000
     72  N         20.9190   18.7380   27.2060 N.am  409  ASP409     -0.1971
     73  CA        21.2550   17.4840   27.8430 C.3   409  ASP409      0.1709
     74  C         21.7820   17.7760   29.2420 C.2   409  ASP409      0.2293
     75  O         22.9720   17.6010   29.5320 O.2   409  ASP409     -0.2864
     76  CB        22.2740   16.7170   27.0070 C.3   409  ASP409      0.1436
     77  CG        22.4640   15.3000   27.4790 C.2   409  ASP409      0.3671
     78  OD1       21.5680   14.7740   28.1740 O.co2 409  ASP409     -0.2456
     79  OD2       23.5160   14.7150   27.1450 O.co2 409  ASP409     -0.2456
     80  N         26.2970   24.8650   37.6550 N.3   418  LYS418     -0.1245
     81  CA        26.5580   26.0460   36.8320 C.3   418  LYS418      0.1561
     82  C         26.1460   27.3170   37.5560 C.2   418  LYS418      0.2260
     83  O         26.7390   28.3710   37.3550 O.2   418  LYS418     -0.2867
     84  CB        25.8400   25.9530   35.4840 C.3   418  LYS418      0.0271
     85  CG        26.6660   25.2620   34.4100 C.3   418  LYS418      0.0035
     86  CD        26.1370   25.5080   33.0010 C.3   418  LYS418      0.0206
     87  CE        27.0650   24.8780   31.9540 C.3   418  LYS418      0.1093
     88  NZ        26.6290   25.0500   30.5290 N.3   418  LYS418     -0.1314
@<TRIPOS>BOND
     1    16    13    1
     2    16    17    1
     3    13    12    1
     4    13    14    1
     5    15    14    2
     6    17    19   ar
     7    17    18   ar
     8    19    21   ar
     9    18    20   ar
    10     4     3    2
    11     1     2    1
    12    71    70   ar
    13    71    69   ar
    14    21    22   ar
    15    70    68   ar
    16    51    49   ar
    17     2     3    1
    18     2     5    1
    19     9     7   ar
    20     9    11   ar
    21     7     6   ar
    22    69    67   ar
    23    20    22   ar
    24    68    66   ar
    25    67    66   ar
    26    50    49   ar
    27    49    48    1
    28    66    65    1
    29    11    10   ar
    30     6     5    1
    31     6     8   ar
    32    65    62    1
    33    10     8   ar
    34    48    45    1
    35    30    29    1
    36    29    28    1
    37    47    46    2
    38    42    43    1
    39    42    39    1
    40    62    61    1
    41    62    63    1
    42    45    46    1
    43    45    44    1
    44    76    77    1
    45    76    73    1
    46    79    77   ar
    47    61    54   am
    48    72    63   am
    49    72    73    1
    50    46    52   am
    51    63    64    2
    52    77    78   ar
    53    73    74    1
    54    54    55    2
    55    54    53    1
    56    39    40    1
    57    39    38    1
    58    34    33    2
    59    28    27    1
    60    52    53    1
    61    40    41    2
    62    53    56    1
    63    27    24    1
    64    33    38   am
    65    33    32    1
    66    74    75    2
    67    60    58   ar
    68    31    32    1
    69    31    25   am
    70    24    25    1
    71    24    23    1
    72    56    57    1
    73    32    35    1
    74    25    26    2
    75    58    57    1
    76    58    59   ar
    77    88    87    1
    78    36    35    1
    79    35    37    1
    80    87    86    1
    81    86    85    1
    82    85    84    1
    83    84    81    1
    84    81    82    1
    85    81    80    1
    86    83    82    2
