@<TRIPOS>MOLECULE
tmp/5ea9B00.pdb
 135 129 0 0 0
SMALL
GASTEIGER

@<TRIPOS>ATOM
      1  N         49.9450  -17.9430  -14.7880 N.3    44  LYS44      -0.1231
      2  CA        48.5300  -17.9000  -14.3810 C.3    44  LYS44       0.1693
      3  C         48.4130  -17.8410  -12.8650 C.2    44  LYS44       0.2593
      4  O         49.1120  -18.6420  -12.1910 O.2    44  LYS44      -0.2718
      5  CB        47.8980  -19.2240  -14.9190 C.3    44  LYS44       0.0285
      6  CG        46.5770  -19.6460  -14.3370 C.3    44  LYS44       0.0035
      7  CD        45.4590  -18.7100  -14.7640 C.3    44  LYS44       0.0206
      8  CE        44.1520  -18.8210  -13.9980 C.3    44  LYS44       0.1093
      9  NZ        43.1540  -17.7850  -14.5830 N.3    44  LYS44      -0.1314
     10  N         47.4560  -17.1020  -12.3300 N.am   45  SER45      -0.1938
     11  CA        47.2840  -17.0690  -10.8390 C.3    45  SER45       0.2055
     12  C         46.9720  -18.4810  -10.3230 C.2    45  SER45       0.2643
     13  O         46.1150  -19.1580  -10.8690 O.2    45  SER45      -0.2714
     14  CB        46.1730  -16.1800  -10.4050 C.3    45  SER45       0.2130
     15  OG        46.4970  -14.8520  -10.6310 O.3    45  SER45      -0.2179
     16  N         47.6020  -18.8630   -9.1920 N.am   46  CYS46      -0.1953
     17  CA        47.4820  -20.2360   -8.7210 C.3    46  CYS46       0.1843
     18  C         47.0140  -20.3180   -7.2720 C.2    46  CYS46       0.2626
     19  O         47.0900  -19.3050   -6.5300 O.2    46  CYS46      -0.2714
     20  CB        48.7710  -21.0010   -8.8860 C.3    46  CYS46       0.0997
     21  SG        50.1680  -20.3740   -7.9600 S.3    46  CYS46      -0.0797
     22  N         46.4340  -21.4830   -6.9710 N.am   47  THR47      -0.1950
     23  CA        46.0570  -21.8150   -5.6110 C.3    47  THR47       0.1897
     24  C         47.0060  -22.9020   -5.1680 C.2    47  THR47       0.2313
     25  O         47.7580  -23.4540   -5.9620 O.2    47  THR47      -0.2863
     26  CB        44.5680  -22.2040   -5.5120 C.3    47  THR47       0.1794
     27  OG1       44.3060  -23.2270   -6.4350 O.3    47  THR47      -0.2208
     28  CG2       43.5880  -21.0790   -5.8070 C.3    47  THR47       0.0378
     29  N         34.9110  -12.7600  -18.9270 N.3    68  ASN68      -0.1240
     30  CA        35.3570  -14.0780  -18.4900 C.3    68  ASN68       0.1653
     31  C         34.9450  -14.3660  -17.0570 C.2    68  ASN68       0.2266
     32  O         34.9360  -13.4540  -16.2590 O.2    68  ASN68      -0.2867
     33  CB        36.8730  -14.2840  -18.6280 C.3    68  ASN68       0.1155
     34  CG        37.6850  -13.7780  -17.4420 C.2    68  ASN68       0.2627
     35  OD1       37.7700  -14.4500  -16.3740 O.2    68  ASN68      -0.2716
     36  ND2       38.2120  -12.6040  -17.5340 N.am   68  ASN68      -0.0877
     37  N         36.5910  -17.2520  -15.4580 N.3    70  MET70      -0.1230
     38  CA        37.3910  -18.4670  -15.5100 C.3    70  MET70       0.1702
     39  C         37.3540  -19.2260  -14.1460 C.2    70  MET70       0.2593
     40  O         37.2360  -20.4530  -14.1250 O.2    70  MET70      -0.2718
     41  CB        38.8400  -18.1820  -15.8270 C.3    70  MET70       0.0401
     42  CG        39.1000  -17.4480  -17.1170 C.3    70  MET70       0.0596
     43  SD        38.5940  -18.4160  -18.5370 S.3    70  MET70      -0.1393
     44  CE        39.6020  -19.8320  -18.4530 C.3    70  MET70       0.0692
     45  N         37.4970  -18.4680  -13.0820 N.am   71  GLY71      -0.1942
     46  CA        37.2830  -19.0140  -11.7170 C.3    71  GLY71       0.2014
     47  C         38.5460  -19.7080  -11.3320 C.2    71  GLY71       0.2639
     48  O         39.5920  -19.2440  -11.6630 O.2    71  GLY71      -0.2714
     49  N         38.5070  -20.8600  -10.7170 N.am   72  LEU72      -0.1963
     50  CA        39.7780  -21.3940  -10.2180 C.3    72  LEU72       0.1713
     51  C         40.9760  -21.9730  -11.1530 C.2    72  LEU72       0.2458
     52  O         41.9210  -22.3950  -10.5550 O.2    72  LEU72      -0.2730
     53  CB        39.4770  -22.3210   -9.0170 C.3    72  LEU72       0.0310
     54  CG        38.4160  -21.8160   -7.9750 C.3    72  LEU72       0.0022
     55  CD1       38.1960  -22.8370   -6.8720 C.3    72  LEU72       0.0001
     56  CD2       38.7730  -20.4820   -7.2910 C.3    72  LEU72       0.0001
     57  N         41.0240  -21.8740  -12.5580 N.am   73  PRO73      -0.2716
     58  CA        41.7820  -22.9740  -13.1930 C.3    73  PRO73       0.1536
     59  C         43.3020  -22.9030  -13.3320 C.2    73  PRO73       0.2598
     60  O         43.8470  -22.0880  -14.1210 O.2    73  PRO73      -0.2715
     61  CB        41.2530  -22.9620  -14.6500 C.3    73  PRO73       0.0310
     62  CG        41.0440  -21.4900  -14.9250 C.3    73  PRO73       0.0237
     63  CD        40.7450  -20.8230  -13.5760 C.3    73  PRO73       0.0939
     64  N         44.0040  -23.8250  -12.6780 N.am   74  ASN74      -0.1973
     65  CA        45.4240  -23.7270  -12.7090 C.3    74  ASN74       0.1688
     66  C         45.9150  -25.1020  -12.2960 C.2    74  ASN74       0.2292
     67  O         45.1910  -25.9090  -11.6180 O.2    74  ASN74      -0.2864
     68  CB        45.9160  -22.6250  -11.7250 C.3    74  ASN74       0.1181
     69  CG        45.7010  -22.9830  -10.2520 C.2    74  ASN74       0.2629
     70  OD1       46.6550  -23.2390   -9.5790 O.2    74  ASN74      -0.2716
     71  ND2       44.4860  -22.9880   -9.7670 N.am   74  ASN74      -0.0877
     72  N         47.0800  -16.5190   -6.0200 N.3   100  SER100     -0.1217
     73  CA        45.8010  -16.0930   -5.6520 C.3   100  SER100      0.1889
     74  C         45.1160  -17.1250   -4.7630 C.2   100  SER100      0.2288
     75  O         44.0910  -17.6660   -5.1200 O.2   100  SER100     -0.2866
     76  CB        44.9710  -15.7420   -6.8670 C.3   100  SER100      0.2089
     77  OG        43.8310  -14.9940   -6.4600 O.3   100  SER100     -0.2183
     78  N         42.7920  -18.4600   -1.4930 N.3   102  LEU102     -0.1245
     79  CA        41.4210  -18.1120   -1.1190 C.3   102  LEU102      0.1561
     80  C         41.2830  -17.5030    0.3460 C.2   102  LEU102      0.2260
     81  O         40.1760  -17.1810    0.8230 O.2   102  LEU102     -0.2867
     82  CB        40.5580  -19.3590   -1.3140 C.3   102  LEU102      0.0270
     83  CG        40.6630  -19.8790   -2.7750 C.3   102  LEU102      0.0019
     84  CD1       39.7090  -21.0280   -2.9880 C.3   102  LEU102      0.0001
     85  CD2       40.3500  -18.7650   -3.7750 C.3   102  LEU102      0.0001
     86  N         47.7170  -11.4910   -6.2600 N.3   128  ASN128     -0.1240
     87  CA        46.4970  -11.0900   -6.8700 C.3   128  ASN128      0.1653
     88  C         45.4310  -10.8140   -5.8190 C.2   128  ASN128      0.2266
     89  O         44.9440  -11.7610   -5.1940 O.2   128  ASN128     -0.2867
     90  CB        46.0510  -12.1930   -7.8840 C.3   128  ASN128      0.1155
     91  CG        44.7710  -11.8460   -8.6140 C.2   128  ASN128      0.2627
     92  OD1       44.1210  -10.8230   -8.3110 O.2   128  ASN128     -0.2716
     93  ND2       44.3260  -12.7470   -9.4860 N.am  128  ASN128     -0.0877
     94  N         40.7260  -10.8490   -8.0530 N.3   131  CYS131     -0.1221
     95  CA        39.9180  -11.8140   -8.8380 C.3   131  CYS131      0.1794
     96  C         38.3980  -11.5260   -8.6330 C.2   131  CYS131      0.2443
     97  O         37.9150  -11.5900   -7.5110 O.2   131  CYS131     -0.2733
     98  CB        40.2880  -13.2580   -8.4460 C.3   131  CYS131      0.0970
     99  SG        39.3760  -14.3710   -9.5740 S.3   131  CYS131     -0.0800
    100  N         37.6540  -11.1850   -9.7190 N.am  132  PRO132     -0.2718
    101  CA        36.2170  -10.8700   -9.5560 C.3   132  PRO132      0.1535
    102  C         35.2630  -12.0890   -9.6930 C.2   132  PRO132      0.2599
    103  O         33.9980  -11.8870   -9.7260 O.2   132  PRO132     -0.2715
    104  CB        36.0020   -9.8390  -10.7000 C.3   132  PRO132      0.0310
    105  CG        36.9470  -10.2840  -11.8510 C.3   132  PRO132      0.0237
    106  CD        38.0660  -11.1030  -11.1460 C.3   132  PRO132      0.0939
    107  N         35.8160  -13.3230   -9.8080 N.am  133  ASN133     -0.1959
    108  CA        35.0270  -14.5280  -10.2710 C.3   133  ASN133      0.1819
    109  C         35.0230  -15.7860   -9.3720 C.2   133  ASN133      0.2621
    110  O         34.6620  -16.8820   -9.8570 O.2   133  ASN133     -0.2715
    111  CB        35.5300  -14.9560  -11.6510 C.3   133  ASN133      0.1195
    112  CG        35.3150  -13.8810  -12.6710 C.2   133  ASN133      0.2630
    113  OD1       34.2030  -13.3040  -12.6990 O.2   133  ASN133     -0.2716
    114  ND2       36.3190  -13.6510  -13.5330 N.am  133  ASN133     -0.0877
    115  N         35.4590  -15.6500   -8.1140 N.am  134  VAL134     -0.1977
    116  CA        35.2680  -16.7450   -7.1050 C.3   134  VAL134      0.1596
    117  C         33.9470  -16.4800   -6.3230 C.2   134  VAL134      0.2287
    118  O         33.8620  -15.4410   -5.6340 O.2   134  VAL134     -0.2864
    119  CB        36.4860  -16.8400   -6.1570 C.3   134  VAL134      0.0276
    120  CG1       36.3970  -18.0550   -5.2170 C.3   134  VAL134      0.0022
    121  CG2       37.7630  -16.9570   -6.9680 C.3   134  VAL134      0.0022
    122  N         43.2850   -5.3470  -12.9960 N.3   195  ASN195     -0.1225
    123  CA        42.5230   -6.5530  -13.2690 C.3   195  ASN195      0.1785
    124  C         41.2610   -6.1600  -14.0150 C.2   195  ASN195      0.2597
    125  O         40.9210   -4.9790  -14.2370 O.2   195  ASN195     -0.2718
    126  CB        42.2550   -7.3460  -11.9500 C.3   195  ASN195      0.1169
    127  CG        42.1940   -8.8420  -12.1550 C.2   195  ASN195      0.2627
    128  OD1       41.6680   -9.3270  -13.1400 O.2   195  ASN195     -0.2716
    129  ND2       42.7280   -9.5960  -11.2080 N.am  195  ASN195     -0.0877
    130  N         40.5390   -7.1870  -14.4150 N.am  196  SER196     -0.1952
    131  CA        39.3070   -6.9840  -15.1700 C.3   196  SER196      0.1924
    132  C         38.2750   -6.1460  -14.4120 C.2   196  SER196      0.2314
    133  O         38.2320   -6.1380  -13.1320 O.2   196  SER196     -0.2863
    134  CB        38.7280   -8.3310  -15.6790 C.3   196  SER196      0.2116
    135  OG        38.3720   -9.2240  -14.5960 O.3   196  SER196     -0.2180
@<TRIPOS>BOND
     1    29    30    1
     2    33    30    1
     3    33    34    1
     4    43    44    1
     5    43    42    1
     6    30    31    1
     7    36    34   am
     8    34    35    2
     9    42    41    1
    10    31    32    2
    11    41    38    1
    12   134   131    1
    13   134   135    1
    14    38    37    1
    15    38    39    1
    16   131   130    1
    17   131   132    1
    18    62    61    1
    19    62    63    1
    20     5     2    1
    21     5     6    1
    22     1     2    1
    23     7     6    1
    24     7     8    1
    25    61    58    1
    26     9     8    1
    27   130   124   am
    28   132   133    2
    29     2     3    1
    30   125   124    2
    31    39    40    2
    32    39    45   am
    33    60    59    2
    34   124   123    1
    35    63    57    1
    36   114   112   am
    37    59    58    1
    38    59    64   am
    39   123   122    1
    40   123   126    1
    41    58    57    1
    42   128   127    2
    43    45    46    1
    44     3    10   am
    45     3     4    2
    46    65    64    1
    47    65    66    1
    48    65    68    1
    49   113   112    2
    50   112   111    1
    51    57    51   am
    52    10    11    1
    53    66    67    2
    54   127   126    1
    55   127   129   am
    56   105   106    1
    57   105   104    1
    58    68    69    1
    59    46    47    1
    60    48    47    2
    61   111   108    1
    62    47    49   am
    63    51    52    2
    64    51    50    1
    65   106   100    1
    66    13    12    2
    67    11    14    1
    68    11    12    1
    69    49    50    1
    70   104   101    1
    71    15    14    1
    72    12    16   am
    73   108   107    1
    74   108   109    1
    75    69    71   am
    76    69    70    2
    77    50    53    1
    78   110   109    2
    79   107   102   am
    80   103   102    2
    81   100   101    1
    82   100    96   am
    83   102   101    1
    84    99    98    1
    85    93    91   am
    86   109   115   am
    87    16    17    1
    88    53    54    1
    89    20    17    1
    90    20    21    1
    91    95    96    1
    92    95    98    1
    93    95    94    1
    94    17    18    1
    95    96    97    2
    96    91    92    2
    97    91    90    1
    98   115   116    1
    99    54    56    1
   100    54    55    1
   101    90    87    1
   102    18    22   am
   103    18    19    2
   104   116   117    1
   105   116   119    1
   106    22    23    1
   107   121   119    1
   108    87    86    1
   109    87    88    1
   110    76    77    1
   111    76    73    1
   112    27    26    1
   113   117   118    2
   114   119   120    1
   115    72    73    1
   116    25    24    2
   117    88    89    2
   118    28    26    1
   119    73    74    1
   120    23    26    1
   121    23    24    1
   122    75    74    2
   123    85    83    1
   124    84    83    1
   125    83    82    1
   126    78    79    1
   127    82    79    1
   128    79    80    1
   129    80    81    2
