@<TRIPOS>MOLECULE
tmp/5eacA01.pdb
 176 171 0 0 0
SMALL
GASTEIGER

@<TRIPOS>ATOM
      1  N         16.8650    4.2230   12.8750 N.3   121  TYR121     -0.1241
      2  CA        17.2320    5.6130   12.6240 C.3   121  TYR121      0.1605
      3  C         17.1530    6.1070   11.1620 C.2   121  TYR121      0.2264
      4  O         16.9200    7.2990   10.9380 O.2   121  TYR121     -0.2867
      5  CB        18.6560    5.8450   13.1170 C.3   121  TYR121      0.0534
      6  CG        18.8520    5.8600   14.6190 C.ar  121  TYR121     -0.0201
      7  CD1       17.9110    6.4190   15.4590 C.ar  121  TYR121     -0.0009
      8  CD2       19.9990    5.3300   15.1850 C.ar  121  TYR121     -0.0009
      9  CE1       18.1060    6.4530   16.8120 C.ar  121  TYR121      0.0417
     10  CE2       20.1950    5.3500   16.5230 C.ar  121  TYR121      0.0417
     11  CZ        19.2550    5.9210   17.3390 C.ar  121  TYR121      0.1957
     12  OH        19.4750    5.9370   18.6890 O.3   121  TYR121     -0.2866
     13  N         14.9860    9.0450    9.2480 N.3   124  LEU124     -0.1231
     14  CA        15.2340   10.5130    9.3250 C.3   124  LEU124      0.1693
     15  C         16.5810   10.9670    8.8880 C.2   124  LEU124      0.2592
     16  O         16.7440   12.0580    8.3480 O.2   124  LEU124     -0.2718
     17  CB        15.1230   10.9970   10.7220 C.3   124  LEU124      0.0284
     18  CG        15.5800   12.3370   11.2550 C.3   124  LEU124      0.0019
     19  CD1       14.3890   13.1530   11.6730 C.3   124  LEU124      0.0001
     20  CD2       16.4570   11.9510   12.4110 C.3   124  LEU124      0.0001
     21  N         17.5600   10.1290    9.1380 N.am  125  THR125     -0.1953
     22  CA        18.8980   10.6080    8.9220 C.3   125  THR125      0.1897
     23  C         19.0670   10.6190    7.4200 C.2   125  THR125      0.2313
     24  O         19.5140   11.6140    6.8690 O.2   125  THR125     -0.2863
     25  CB        19.9330    9.7640    9.6440 C.3   125  THR125      0.1794
     26  OG1       19.7040    8.4000    9.3130 O.3   125  THR125     -0.2208
     27  CG2       19.7790    9.9500   11.1680 C.3   125  THR125      0.0378
     28  N         20.6400   13.7070    5.5810 N.3   129  PHE129     -0.1241
     29  CA        22.0710   13.6300    5.3180 C.3   129  PHE129      0.1605
     30  C         22.3370   13.2740    3.8630 C.2   129  PHE129      0.2264
     31  O         23.2780   13.7810    3.2530 O.2   129  PHE129     -0.2867
     32  CB        22.7500   12.5950    6.2240 C.3   129  PHE129      0.0534
     33  CG        22.5720   12.8460    7.7060 C.ar  129  PHE129     -0.0203
     34  CD1       22.2670   14.1200    8.1920 C.ar  129  PHE129     -0.0042
     35  CD2       22.7250   11.8090    8.6180 C.ar  129  PHE129     -0.0042
     36  CE1       22.1100   14.3470    9.5510 C.ar  129  PHE129     -0.0003
     37  CE2       22.5720   12.0380    9.9830 C.ar  129  PHE129     -0.0003
     38  CZ        22.2650   13.3030   10.4480 C.ar  129  PHE129     -0.0000
     39  N         26.1130    6.7090    6.9430 N.3   134  ILE134     -0.1231
     40  CA        25.5530    6.6780    8.2920 C.3   134  ILE134      0.1692
     41  C         24.6000    5.5060    8.4790 C.2   134  ILE134      0.2592
     42  O         25.0430    4.4080    8.7930 O.2   134  ILE134     -0.2718
     43  CB        24.8020    7.9810    8.6710 C.3   134  ILE134      0.0266
     44  CG1       25.4590    9.2220    8.0670 C.3   134  ILE134      0.0019
     45  CG2       24.6840    8.1000   10.1870 C.3   134  ILE134      0.0020
     46  CD1       26.6650    9.6980    8.7440 C.3   134  ILE134      0.0001
     47  N         23.2950    5.7320    8.3230 N.am  135  TYR135     -0.1976
     48  CA        22.3310    4.6500    8.5320 C.3   135  TYR135      0.1639
     49  C         21.7140    4.1440    7.2150 C.2   135  TYR135      0.2290
     50  O         20.8500    3.2790    7.2180 O.2   135  TYR135     -0.2864
     51  CB        21.2410    5.0940    9.5100 C.3   135  TYR135      0.0560
     52  CG        21.8190    5.4330   10.8620 C.ar  135  TYR135     -0.0198
     53  CD1       22.6760    4.5470   11.5090 C.ar  135  TYR135     -0.0009
     54  CD2       21.5700    6.6590   11.4610 C.ar  135  TYR135     -0.0009
     55  CE1       23.2360    4.8600   12.7290 C.ar  135  TYR135      0.0417
     56  CE2       22.1290    6.9810   12.6940 C.ar  135  TYR135      0.0417
     57  CZ        22.9620    6.0790   13.3220 C.ar  135  TYR135      0.1957
     58  OH        23.5340    6.3930   14.5380 O.3   135  TYR135     -0.2866
     59  N         15.3650   17.9250   10.3690 N.3   231  PHE231     -0.1241
     60  CA        15.8750   17.2110   11.5340 C.3   231  PHE231      0.1605
     61  C         14.9910   17.5510   12.7360 C.2   231  PHE231      0.2264
     62  O         15.4520   18.1420   13.7080 O.2   231  PHE231     -0.2867
     63  CB        17.3460   17.5870   11.7860 C.3   231  PHE231      0.0534
     64  CG        18.1590   16.5240   12.4870 C.ar  231  PHE231     -0.0203
     65  CD1       18.1980   15.2220   12.0090 C.ar  231  PHE231     -0.0042
     66  CD2       18.9340   16.8470   13.6000 C.ar  231  PHE231     -0.0042
     67  CE1       18.9660   14.2530   12.6510 C.ar  231  PHE231     -0.0003
     68  CE2       19.7060   15.8850   14.2460 C.ar  231  PHE231     -0.0003
     69  CZ        19.7200   14.5860   13.7710 C.ar  231  PHE231     -0.0000
     70  N         11.5760   15.4050   14.8460 N.3   233  PRO233     -0.2116
     71  CA        10.9760   14.0610   14.7910 C.3   233  PRO233      0.1372
     72  C          9.4870   13.9950   14.3890 C.2   233  PRO233      0.2244
     73  O          8.8640   12.9580   14.6220 O.2   233  PRO233     -0.2868
     74  CB        11.1730   13.5390   16.2180 C.3   233  PRO233      0.0268
     75  CG        11.2020   14.7580   17.0640 C.3   233  PRO233      0.0207
     76  CD        11.8440   15.8350   16.2320 C.3   233  PRO233      0.0892
     77  N          9.9810   11.4000   11.9260 N.3   236  PHE236     -0.1241
     78  CA         9.9800    9.9630   12.2420 C.3   236  PHE236      0.1605
     79  C          8.5720    9.4130   12.1000 C.2   236  PHE236      0.2264
     80  O          8.3870    8.2730   11.6480 O.2   236  PHE236     -0.2867
     81  CB        10.5240    9.6570   13.6520 C.3   236  PHE236      0.0534
     82  CG        11.9110    9.0960   13.6310 C.ar  236  PHE236     -0.0203
     83  CD1       12.2560    7.9430   14.3210 C.ar  236  PHE236     -0.0042
     84  CD2       12.8750    9.7260   12.8510 C.ar  236  PHE236     -0.0042
     85  CE1       13.5850    7.4470   14.2490 C.ar  236  PHE236     -0.0003
     86  CE2       14.1730    9.2560   12.7800 C.ar  236  PHE236     -0.0003
     87  CZ        14.5400    8.1120   13.4690 C.ar  236  PHE236     -0.0000
     88  N         26.2510   14.8040    7.9320 N.3   305  GLY305     -0.1210
     89  CA        25.8280   14.0700    9.1020 C.3   305  GLY305      0.1956
     90  C         26.7130   14.3800   10.2950 C.2   305  GLY305      0.2611
     91  O         26.2340   14.6350   11.4040 O.2   305  GLY305     -0.2717
     92  N         28.0170   14.3860   10.0590 N.am  306  VAL306     -0.1979
     93  CA        28.9550   14.6140   11.1280 C.3   306  VAL306      0.1595
     94  C         28.8030   16.0340   11.6910 C.2   306  VAL306      0.2287
     95  O         28.6760   16.2150   12.9030 O.2   306  VAL306     -0.2864
     96  CB        30.3890   14.3280   10.6490 C.3   306  VAL306      0.0276
     97  CG1       31.4130   14.9410   11.5830 C.3   306  VAL306      0.0022
     98  CG2       30.5770   12.7990   10.5420 C.3   306  VAL306      0.0022
     99  N         25.1200   16.3690   13.4660 N.3   309  GLY309     -0.1210
    100  CA        25.0970   15.6650   14.7350 C.3   309  GLY309      0.1956
    101  C         25.8700   16.4380   15.7870 C.2   309  GLY309      0.2612
    102  O         25.3440   16.7420   16.8600 O.2   309  GLY309     -0.2717
    103  N         27.1080   16.7980   15.4580 N.am  310  GLY310     -0.1956
    104  CA        27.9310   17.5900   16.3480 C.3   310  GLY310      0.1869
    105  C         27.4240   19.0030   16.6050 C.2   310  GLY310      0.2309
    106  O         27.6900   19.5820   17.6710 O.2   310  GLY310     -0.2863
    107  N         24.3110   18.6400   19.4170 N.3   313  THR313     -0.1218
    108  CA        24.7260   18.2110   20.7530 C.3   313  THR313      0.1862
    109  C         25.5740   19.2850   21.4240 C.2   313  THR313      0.2287
    110  O         25.3710   19.6020   22.5850 O.2   313  THR313     -0.2866
    111  CB        25.5120   16.9050   20.7000 C.3   313  THR313      0.1770
    112  OG1       26.5860   17.0430   19.7660 O.3   313  THR313     -0.2211
    113  CG2       24.6250   15.7760   20.2410 C.3   313  THR313      0.0375
    114  N         20.6760   13.6540   24.1940 N.3   375  LEU375     -0.1231
    115  CA        19.8460   12.6370   23.5560 C.3   375  LEU375      0.1693
    116  C         19.1740   11.7810   24.6190 C.2   375  LEU375      0.2592
    117  O         19.7990   10.8580   25.1330 O.2   375  LEU375     -0.2718
    118  CB        20.6950   11.7720   22.6120 C.3   375  LEU375      0.0284
    119  CG        21.4020   12.5330   21.4810 C.3   375  LEU375      0.0019
    120  CD1       22.4600   11.6840   20.7880 C.3   375  LEU375      0.0001
    121  CD2       20.3870   13.0250   20.4730 C.3   375  LEU375      0.0001
    122  N         17.9160   12.0700   24.9600 N.am  376  HIS376     -0.1962
    123  CA        17.3050   11.3960   26.1130 C.3   376  HIS376      0.1787
    124  C         17.0160    9.9130   25.8540 C.2   376  HIS376      0.2621
    125  O         16.9290    9.1220   26.7920 O.2   376  HIS376     -0.2715
    126  CB        16.0210   12.1110   26.5780 C.3   376  HIS376      0.0785
    127  CG        14.9250   12.1530   25.5560 C.ar  376  HIS376      0.0821
    128  ND1       14.1290   11.0650   25.2630 N.ar  376  HIS376     -0.2267
    129  CD2       14.4730   13.1650   24.7830 C.ar  376  HIS376      0.1154
    130  CE1       13.2490   11.4000   24.3380 C.ar  376  HIS376      0.1986
    131  NE2       13.4380   12.6700   24.0290 N.ar  376  HIS376     -0.2212
    132  N         16.9110    9.5230   24.5950 N.am  377  SER377     -0.1936
    133  CA        16.5770    8.1420   24.2530 C.3   377  SER377      0.2055
    134  C         17.3820    7.6650   23.0610 C.2   377  SER377      0.2643
    135  O         17.4430    8.3560   22.0460 O.2   377  SER377     -0.2714
    136  CB        15.0820    8.0040   23.9350 C.3   377  SER377      0.2130
    137  OG        14.2740    8.3340   25.0460 O.3   377  SER377     -0.2179
    138  N         17.9900    6.4830   23.1680 N.am  378  LEU378     -0.1963
    139  CA        18.6310    5.8730   22.0100 C.3   378  LEU378      0.1728
    140  C         17.8510    4.5860   21.6640 C.2   378  LEU378      0.2616
    141  O         17.4010    3.8650   22.5560 O.2   378  LEU378     -0.2715
    142  CB        20.1190    5.5880   22.2740 C.3   378  LEU378      0.0311
    143  CG        21.1160    6.7340   22.5940 C.3   378  LEU378      0.0022
    144  CD1       20.9800    7.9500   21.6500 C.3   378  LEU378      0.0001
    145  CD2       21.0310    7.1810   24.0410 C.3   378  LEU378      0.0001
    146  N         17.6870    4.3110   20.3730 N.am  379  PHE379     -0.1974
    147  CA        16.8270    3.2240   19.9190 C.3   379  PHE379      0.1639
    148  C         17.5570    2.1870   19.0900 C.2   379  PHE379      0.2290
    149  O         18.5360    2.5010   18.4120 O.2   379  PHE379     -0.2864
    150  CB        15.6790    3.7650   19.0690 C.3   379  PHE379      0.0560
    151  CG        14.9460    4.8930   19.6980 C.ar  379  PHE379     -0.0200
    152  CD1       13.9230    4.6490   20.5880 C.ar  379  PHE379     -0.0042
    153  CD2       15.2850    6.2000   19.4070 C.ar  379  PHE379     -0.0042
    154  CE1       13.2350    5.6820   21.1720 C.ar  379  PHE379     -0.0003
    155  CE2       14.6110    7.2460   19.9930 C.ar  379  PHE379     -0.0003
    156  CZ        13.5800    6.9910   20.8760 C.ar  379  PHE379     -0.0000
    157  N         29.9050    7.2670   20.4330 N.3   465  CYS465     -0.1235
    158  CA        30.3060    8.5550   19.8710 C.3   465  CYS465      0.1677
    159  C         31.7800    8.6110   19.5310 C.2   465  CYS465      0.2270
    160  O         32.6040    8.0640   20.2580 O.2   465  CYS465     -0.2867
    161  CB        29.9870    9.6840   20.8670 C.3   465  CYS465      0.0956
    162  SG        30.1700   11.3390   20.1630 S.3   465  CYS465     -0.0801
    163  N         12.0330   18.2600   21.0190 N.3   503  SER503     -0.1202
    164  CA        12.9700   18.4910   19.9240 C.3   503  SER503      0.2020
    165  C         13.9040   17.2990   19.6660 C.2   503  SER503      0.2618
    166  O         13.7900   16.2360   20.2990 O.2   503  SER503     -0.2717
    167  CB        13.8110   19.7360   20.2070 C.3   503  SER503      0.2103
    168  OG        14.8240   19.8740   19.2280 O.3   503  SER503     -0.2182
    169  N         14.8290   17.4950   18.7260 N.am  504  MET504     -0.1979
    170  CA        15.8850   16.5230   18.4420 C.3   504  MET504      0.1605
    171  C         16.8250   16.2960   19.6310 C.2   504  MET504      0.2287
    172  O         17.1590   15.1550   19.9690 O.2   504  MET504     -0.2864
    173  CB        16.7050   16.9730   17.2350 C.3   504  MET504      0.0413
    174  CG        16.9380   15.8440   16.2660 C.3   504  MET504      0.0598
    175  SD        15.3500   15.2210   15.6890 S.3   504  MET504     -0.1393
    176  CE        15.5900   13.4650   15.6590 C.3   504  MET504      0.0692
@<TRIPOS>BOND
     1    31    30    2
     2    30    29    1
     3    29    28    1
     4    29    32    1
     5    32    33    1
     6    24    23    2
     7    39    40    1
     8    49    50    2
     9    49    48    1
    10    23    22    1
    11    33    34   ar
    12    33    35   ar
    13    88    89    1
    14    44    43    1
    15    44    46    1
    16    34    36   ar
    17    40    41    1
    18    40    43    1
    19    47    41   am
    20    47    48    1
    21    16    15    2
    22    41    42    2
    23    48    51    1
    24    35    37   ar
    25    43    45    1
    26    15    21   am
    27    15    14    1
    28    22    21    1
    29    22    25    1
    30    89    90    1
    31    13    14    1
    32    26    25    1
    33    14    17    1
    34    51    52    1
    35    36    38   ar
    36    25    27    1
    37    37    38   ar
    38    92    90   am
    39    92    93    1
    40    90    91    2
    41    59    60    1
    42    98    96    1
    43    96    93    1
    44    96    97    1
    45    17    18    1
    46    52    54   ar
    47    52    53   ar
    48     4     3    2
    49    93    94    1
    50     3     2    1
    51    18    19    1
    52    18    20    1
    53    54    56   ar
    54    53    55   ar
    55    60    63    1
    56    60    61    1
    57    80    79    2
    58    94    95    2
    59    63    64    1
    60    77    78    1
    61    65    64   ar
    62    65    67   ar
    63    79    78    1
    64    78    81    1
    65    64    66   ar
    66     2     1    1
    67     2     5    1
    68    67    69   ar
    69    56    57   ar
    70    55    57   ar
    71    61    62    2
    72    86    84   ar
    73    86    87   ar
    74    84    82   ar
    75     5     6    1
    76    57    58    1
    77    99   100    1
    78    87    85   ar
    79    66    68   ar
    80    82    81    1
    81    82    83   ar
    82    69    68   ar
    83    85    83   ar
    84    72    73    2
    85    72    71    1
    86     6     8   ar
    87     6     7   ar
    88   100   101    1
    89    71    70    1
    90    71    74    1
    91    70    76    1
    92     8    10   ar
    93   103   101   am
    94   103   104    1
    95     7     9   ar
    96   176   175    1
    97   175   174    1
    98   101   102    2
    99    74    75    1
   100    76    75    1
   101   174   173    1
   102   104   105    1
   103    10    11   ar
   104   105   106    2
   105     9    11   ar
   106   173   170    1
   107    11    12    1
   108   149   148    2
   109   170   169    1
   110   170   171    1
   111   169   165   am
   112   150   151    1
   113   150   147    1
   114   148   147    1
   115   168   167    1
   116   153   151   ar
   117   153   155   ar
   118   107   108    1
   119   159   158    1
   120   159   160    2
   121   171   172    2
   122   165   164    1
   123   165   166    2
   124   151   152   ar
   125   112   111    1
   126   158   157    1
   127   158   161    1
   128   147   146    1
   129   164   167    1
   130   164   163    1
   131   155   156   ar
   132   162   161    1
   133   113   111    1
   134   146   140   am
   135   121   119    1
   136   152   154   ar
   137   111   108    1
   138   108   109    1
   139   120   119    1
   140   156   154   ar
   141   109   110    2
   142   119   118    1
   143   144   143    1
   144   140   139    1
   145   140   141    2
   146   139   142    1
   147   139   138    1
   148   135   134    2
   149   142   143    1
   150   143   145    1
   151   118   115    1
   152   134   138   am
   153   134   133    1
   154   115   114    1
   155   115   116    1
   156   136   133    1
   157   136   137    1
   158   131   130   ar
   159   131   129   ar
   160   133   132    1
   161   130   128   ar
   162   132   124   am
   163   116   122   am
   164   116   117    2
   165   129   127   ar
   166   122   123    1
   167   128   127   ar
   168   127   126    1
   169   124   123    1
   170   124   125    2
   171   123   126    1
