@<TRIPOS>MOLECULE
tmp/5eadA01.pdb
 153 146 0 0 0
SMALL
GASTEIGER

@<TRIPOS>ATOM
      1  N         16.9210    3.9730   12.7000 N.3   121  TYR121     -0.1241
      2  CA        17.2830    5.3740   12.4750 C.3   121  TYR121      0.1605
      3  C         17.2980    5.8730   11.0170 C.2   121  TYR121      0.2264
      4  O         17.2490    7.0840   10.8020 O.2   121  TYR121     -0.2867
      5  CB        18.6790    5.6500   13.0430 C.3   121  TYR121      0.0534
      6  CG        18.8560    5.5760   14.5470 C.ar  121  TYR121     -0.0201
      7  CD1       18.0240    6.2760   15.4070 C.ar  121  TYR121     -0.0009
      8  CD2       19.8970    4.8320   15.0990 C.ar  121  TYR121     -0.0009
      9  CE1       18.2220    6.2390   16.7960 C.ar  121  TYR121      0.0417
     10  CE2       20.0990    4.7740   16.4780 C.ar  121  TYR121      0.0417
     11  CZ        19.2620    5.4840   17.3220 C.ar  121  TYR121      0.1957
     12  OH        19.4700    5.4260   18.6940 O.3   121  TYR121     -0.2866
     13  N         15.1370    8.6830    9.7510 N.3   124  LEU124     -0.1231
     14  CA        15.4050    9.9900   10.3180 C.3   124  LEU124      0.1693
     15  C         16.5830   10.6920    9.6330 C.2   124  LEU124      0.2592
     16  O         16.5210   11.8870    9.3380 O.2   124  LEU124     -0.2718
     17  CB        15.6750    9.8600   11.8070 C.3   124  LEU124      0.0284
     18  CG        16.0580   11.1820   12.4440 C.3   124  LEU124      0.0019
     19  CD1       14.9560   12.2160   12.2010 C.3   124  LEU124      0.0001
     20  CD2       16.2970   10.9530   13.9090 C.3   124  LEU124      0.0001
     21  N         17.6430    9.9400    9.3600 N.am  125  THR125     -0.1953
     22  CA        18.9190   10.5370    8.9550 C.3   125  THR125      0.1897
     23  C         19.1990   10.5200    7.4490 C.2   125  THR125      0.2313
     24  O         19.7600   11.4730    6.9090 O.2   125  THR125     -0.2863
     25  CB        20.0910    9.8250    9.6610 C.3   125  THR125      0.1794
     26  OG1       20.0940    8.4450    9.2810 O.3   125  THR125     -0.2208
     27  CG2       19.9470    9.9390   11.1840 C.3   125  THR125      0.0378
     28  N         21.0770   13.5490    5.4890 N.3   129  PHE129     -0.1241
     29  CA        22.5040   13.4580    5.1660 C.3   129  PHE129      0.1605
     30  C         22.7620   13.0780    3.6920 C.2   129  PHE129      0.2264
     31  O         23.7020   13.5820    3.0730 O.2   129  PHE129     -0.2867
     32  CB        23.2040   12.4260    6.0550 C.3   129  PHE129      0.0534
     33  CG        23.0080   12.6330    7.5520 C.ar  129  PHE129     -0.0203
     34  CD1       22.6730   13.8780    8.0730 C.ar  129  PHE129     -0.0042
     35  CD2       23.1780   11.5680    8.4330 C.ar  129  PHE129     -0.0042
     36  CE1       22.4970   14.0540    9.4460 C.ar  129  PHE129     -0.0003
     37  CE2       23.0160   11.7400    9.7930 C.ar  129  PHE129     -0.0003
     38  CZ        22.6710   12.9760   10.3020 C.ar  129  PHE129     -0.0000
     39  N         26.3610    6.4110    7.0210 N.3   134  ILE134     -0.1231
     40  CA        25.7930    6.3250    8.3720 C.3   134  ILE134      0.1692
     41  C         24.7820    5.1880    8.5150 C.2   134  ILE134      0.2592
     42  O         25.1710    4.0600    8.8360 O.2   134  ILE134     -0.2718
     43  CB        25.1400    7.6660    8.8240 C.3   134  ILE134      0.0266
     44  CG1       26.1010    8.8220    8.5890 C.3   134  ILE134      0.0019
     45  CG2       24.8110    7.6260   10.3250 C.3   134  ILE134      0.0020
     46  CD1       27.3920    8.6610    9.3350 C.3   134  ILE134      0.0001
     47  N         23.4950    5.4630    8.3120 N.am  135  TYR135     -0.1976
     48  CA        22.5120    4.3910    8.4360 C.3   135  TYR135      0.1639
     49  C         21.9370    3.8980    7.0810 C.2   135  TYR135      0.2290
     50  O         21.0750    3.0300    7.0540 O.2   135  TYR135     -0.2864
     51  CB        21.3920    4.8330    9.3660 C.3   135  TYR135      0.0560
     52  CG        21.9180    5.1250   10.7630 C.ar  135  TYR135     -0.0198
     53  CD1       22.7770    4.2300   11.4030 C.ar  135  TYR135     -0.0009
     54  CD2       21.6030    6.3090   11.4110 C.ar  135  TYR135     -0.0009
     55  CE1       23.2770    4.4910   12.6870 C.ar  135  TYR135      0.0417
     56  CE2       22.0950    6.5850   12.6930 C.ar  135  TYR135      0.0417
     57  CZ        22.9400    5.6780   13.3220 C.ar  135  TYR135      0.1957
     58  OH        23.4300    5.9540   14.5890 O.3   135  TYR135     -0.2866
     59  N         15.8180   17.9120   10.0190 N.3   231  PHE231     -0.1241
     60  CA        16.3300   17.0400   11.0800 C.3   231  PHE231      0.1605
     61  C         15.3850   17.1010   12.2810 C.2   231  PHE231      0.2264
     62  O         15.6520   17.8040   13.2540 O.2   231  PHE231     -0.2867
     63  CB        17.7560   17.4640   11.4710 C.3   231  PHE231      0.0534
     64  CG        18.5460   16.4100   12.2170 C.ar  231  PHE231     -0.0203
     65  CD1       18.5910   15.0980   11.7660 C.ar  231  PHE231     -0.0042
     66  CD2       19.2820   16.7480   13.3460 C.ar  231  PHE231     -0.0042
     67  CE1       19.3320   14.1420   12.4390 C.ar  231  PHE231     -0.0003
     68  CE2       20.0180   15.7910   14.0280 C.ar  231  PHE231     -0.0003
     69  CZ        20.0480   14.4920   13.5620 C.ar  231  PHE231     -0.0000
     70  N         10.4180   10.5370   11.6650 N.3   236  PHE236     -0.1241
     71  CA        10.1890    9.1690   12.1240 C.3   236  PHE236      0.1605
     72  C          8.8210    8.6530   11.6870 C.2   236  PHE236      0.2264
     73  O          8.6670    7.4810   11.3520 O.2   236  PHE236     -0.2867
     74  CB        10.3190    9.0690   13.6440 C.3   236  PHE236      0.0534
     75  CG        11.6940    8.6970   14.1040 C.ar  236  PHE236     -0.0203
     76  CD1       12.2610    7.5000   13.7040 C.ar  236  PHE236     -0.0042
     77  CD2       12.4170    9.5360   14.9240 C.ar  236  PHE236     -0.0042
     78  CE1       13.5270    7.1450   14.1110 C.ar  236  PHE236     -0.0003
     79  CE2       13.6900    9.1840   15.3480 C.ar  236  PHE236     -0.0003
     80  CZ        14.2450    7.9850   14.9360 C.ar  236  PHE236     -0.0000
     81  N         26.5410   14.5300    7.7870 N.3   305  GLY305     -0.1225
     82  CA        26.0790   13.7790    8.9370 C.3   305  GLY305      0.1811
     83  C         26.9130   14.0870   10.1690 C.2   305  GLY305      0.2280
     84  O         26.3740   14.2990   11.2580 O.2   305  GLY305     -0.2866
     85  N         25.1790   16.1240   13.2810 N.3   309  GLY309     -0.1210
     86  CA        25.0820   15.4400   14.5540 C.3   309  GLY309      0.1956
     87  C         25.7950   16.2340   15.6340 C.2   309  GLY309      0.2612
     88  O         25.2030   16.5940   16.6520 O.2   309  GLY309     -0.2717
     89  N         27.0630   16.5420   15.3880 N.am  310  GLY310     -0.1956
     90  CA        27.8560   17.3430   16.2960 C.3   310  GLY310      0.1869
     91  C         27.2960   18.7340   16.5400 C.2   310  GLY310      0.2309
     92  O         27.4870   19.2940   17.6260 O.2   310  GLY310     -0.2863
     93  N         24.1780   18.3180   19.3250 N.3   313  THR313     -0.1218
     94  CA        24.6020   17.8980   20.6610 C.3   313  THR313      0.1862
     95  C         25.4420   18.9740   21.3150 C.2   313  THR313      0.2287
     96  O         25.2660   19.2800   22.4990 O.2   313  THR313     -0.2866
     97  CB        25.4130   16.5910   20.6080 C.3   313  THR313      0.1770
     98  OG1       26.4710   16.7450   19.6560 O.3   313  THR313     -0.2211
     99  CG2       24.5210   15.4220   20.1860 C.3   313  THR313      0.0375
    100  N         20.5370   13.3510   24.0910 N.3   375  LEU375     -0.1245
    101  CA        19.6880   12.3490   23.4520 C.3   375  LEU375      0.1561
    102  C         19.0280   11.5180   24.5270 C.2   375  LEU375      0.2260
    103  O         19.6580   10.6260   25.0880 O.2   375  LEU375     -0.2867
    104  CB        20.5050   11.4580   22.5020 C.3   375  LEU375      0.0270
    105  CG        21.5380   12.1150   21.5820 C.3   375  LEU375      0.0019
    106  CD1       22.3640   11.0740   20.8140 C.3   375  LEU375      0.0001
    107  CD2       20.8490   13.0380   20.5950 C.3   375  LEU375      0.0001
    108  N         16.8380    9.2680   24.5570 N.3   377  SER377     -0.1202
    109  CA        16.5590    7.8690   24.2190 C.3   377  SER377      0.2020
    110  C         17.3760    7.4220   23.0190 C.2   377  SER377      0.2619
    111  O         17.4590    8.1380   22.0180 O.2   377  SER377     -0.2717
    112  CB        15.0680    7.6530   23.8980 C.3   377  SER377      0.2103
    113  OG        14.2330    7.9070   25.0130 O.3   377  SER377     -0.2182
    114  N         17.9580    6.2320   23.1080 N.am  378  LEU378     -0.1965
    115  CA        18.6040    5.6110   21.9530 C.3   378  LEU378      0.1728
    116  C         17.8440    4.3320   21.6390 C.2   378  LEU378      0.2616
    117  O         17.3260    3.6830   22.5500 O.2   378  LEU378     -0.2715
    118  CB        20.0950    5.3600   22.2360 C.3   378  LEU378      0.0311
    119  CG        20.6270    6.7340   22.6890 C.3   378  LEU378      0.0022
    120  CD1       21.6600    6.7040   23.7850 C.3   378  LEU378      0.0001
    121  CD2       21.0810    7.6350   21.5240 C.3   378  LEU378      0.0001
    122  N         17.7540    3.9910   20.3540 N.am  379  PHE379     -0.1974
    123  CA        16.9010    2.8960   19.8990 C.3   379  PHE379      0.1639
    124  C         17.6490    1.8730   19.0630 C.2   379  PHE379      0.2290
    125  O         18.6470    2.1910   18.4110 O.2   379  PHE379     -0.2864
    126  CB        15.7350    3.4110   19.0400 C.3   379  PHE379      0.0560
    127  CG        15.1050    4.6630   19.5430 C.ar  379  PHE379     -0.0200
    128  CD1       14.0880    4.6140   20.4820 C.ar  379  PHE379     -0.0042
    129  CD2       15.4990    5.8970   19.0450 C.ar  379  PHE379     -0.0042
    130  CE1       13.4910    5.7840   20.9430 C.ar  379  PHE379     -0.0003
    131  CE2       14.9140    7.0710   19.5010 C.ar  379  PHE379     -0.0003
    132  CZ        13.9070    7.0150   20.4490 C.ar  379  PHE379     -0.0000
    133  N         29.8140    6.9890   20.4230 N.3   465  CYS465     -0.1235
    134  CA        30.1880    8.2750   19.8520 C.3   465  CYS465      0.1677
    135  C         31.6750    8.3360   19.5060 C.2   465  CYS465      0.2270
    136  O         32.5100    7.8000   20.2400 O.2   465  CYS465     -0.2867
    137  CB        29.8470    9.4100   20.8390 C.3   465  CYS465      0.0956
    138  SG        30.1170   11.0460   20.1200 S.3   465  CYS465     -0.0801
    139  N         14.8810   17.3080   18.3560 N.3   504  MET504     -0.1230
    140  CA        15.7780   16.1880   18.0680 C.3   504  MET504      0.1702
    141  C         16.7660   15.9100   19.2070 C.2   504  MET504      0.2592
    142  O         17.0560   14.7550   19.5020 O.2   504  MET504     -0.2718
    143  CB        16.5230   16.4350   16.7600 C.3   504  MET504      0.0401
    144  CG        15.8020   15.8570   15.5600 C.3   504  MET504      0.0596
    145  SD        16.0990   14.1030   15.2580 S.3   504  MET504     -0.1393
    146  CE        14.8790   13.2580   16.2660 C.3   504  MET504      0.0692
    147  N         17.2680   16.9640   19.8470 N.am  505  VAL505     -0.1980
    148  CA        18.0100   16.8210   21.0980 C.3   505  VAL505      0.1595
    149  C         17.2370   17.5130   22.2200 C.2   505  VAL505      0.2287
    150  O         16.2730   18.2190   21.9500 O.2   505  VAL505     -0.2864
    151  CB        19.4470   17.3950   20.9870 C.3   505  VAL505      0.0276
    152  CG1       20.1810   16.7310   19.8340 C.3   505  VAL505      0.0022
    153  CG2       19.4280   18.8950   20.7980 C.3   505  VAL505      0.0022
@<TRIPOS>BOND
     1    31    30    2
     2    30    29    1
     3    29    28    1
     4    29    32    1
     5    32    33    1
     6    24    23    2
     7    39    40    1
     8    50    49    2
     9    49    48    1
    10    23    22    1
    11    33    34   ar
    12    33    35   ar
    13    81    82    1
    14    34    36   ar
    15    47    48    1
    16    47    41   am
    17    40    41    1
    18    40    43    1
    19    35    37   ar
    20    48    51    1
    21    41    42    2
    22    44    43    1
    23    44    46    1
    24    43    45    1
    25    82    83    1
    26    22    21    1
    27    22    25    1
    28    26    25    1
    29    16    15    2
    30    21    15   am
    31    51    52    1
    32    36    38   ar
    33    15    14    1
    34    25    27    1
    35    13    14    1
    36    37    38   ar
    37    59    60    1
    38    83    84    2
    39    14    17    1
    40    52    53   ar
    41    52    54   ar
    42     4     3    2
    43     3     2    1
    44    60    63    1
    45    60    61    1
    46    73    72    2
    47    53    55   ar
    48    54    56   ar
    49    63    64    1
    50    70    71    1
    51    72    71    1
    52    65    64   ar
    53    65    67   ar
    54    17    18    1
    55    71    74    1
    56    19    18    1
    57    64    66   ar
    58    61    62    2
    59    67    69   ar
    60    18    20    1
    61     2     1    1
    62     2     5    1
    63    55    57   ar
    64    56    57   ar
    65     5     6    1
    66    85    86    1
    67    57    58    1
    68    66    68   ar
    69    69    68   ar
    70    74    75    1
    71    76    75   ar
    72    76    78   ar
    73    75    77   ar
    74    78    80   ar
    75     6     8   ar
    76     6     7   ar
    77    86    87    1
    78    77    79   ar
    79    80    79   ar
    80     8    10   ar
    81   145   144    1
    82   145   146    1
    83    89    87   am
    84    89    90    1
    85     7     9   ar
    86   144   143    1
    87    87    88    2
    88    90    91    1
    89    10    11   ar
    90    91    92    2
    91   143   140    1
    92     9    11   ar
    93    11    12    1
    94   140   139    1
    95   140   141    1
    96   125   124    2
    97   126   127    1
    98   126   123    1
    99   129   131   ar
   100   129   127   ar
   101   124   123    1
   102   141   142    2
   103   141   147   am
   104    93    94    1
   105   131   132   ar
   106   135   134    1
   107   135   136    2
   108   127   128   ar
   109    98    97    1
   110   152   151    1
   111   147   148    1
   112   134   133    1
   113   134   137    1
   114   123   122    1
   115   138   137    1
   116    99    97    1
   117   122   116   am
   118   132   130   ar
   119   128   130   ar
   120   107   105    1
   121    97    94    1
   122    94    95    1
   123   153   151    1
   124   106   105    1
   125   151   148    1
   126   148   149    1
   127    95    96    2
   128   121   119    1
   129   105   104    1
   130   116   115    1
   131   116   117    2
   132   150   149    2
   133   115   118    1
   134   115   114    1
   135   111   110    2
   136   118   119    1
   137   104   101    1
   138   119   120    1
   139   110   114   am
   140   110   109    1
   141   101   100    1
   142   101   102    1
   143   112   109    1
   144   112   113    1
   145   109   108    1
   146   102   103    2
