@<TRIPOS>MOLECULE
tmp/5eafB01.pdb
 157 150 0 0 0
SMALL
GASTEIGER

@<TRIPOS>ATOM
      1  N        -36.6680  -48.1230  -67.6890 N.3   120  TYR120     -0.1241
      2  CA       -38.0550  -47.6990  -67.8510 C.3   120  TYR120      0.1605
      3  C        -38.5760  -47.7410  -69.2940 C.2   120  TYR120      0.2264
      4  O        -39.7820  -47.9380  -69.5160 O.2   120  TYR120     -0.2867
      5  CB       -38.2410  -46.2770  -67.2970 C.3   120  TYR120      0.0534
      6  CG       -38.2020  -46.1360  -65.7850 C.ar  120  TYR120     -0.0201
      7  CD1      -38.5540  -47.1880  -64.9470 C.ar  120  TYR120     -0.0009
      8  CD2      -37.8190  -44.9360  -65.2000 C.ar  120  TYR120     -0.0009
      9  CE1      -38.5180  -47.0520  -63.5860 C.ar  120  TYR120      0.0417
     10  CE2      -37.7770  -44.7910  -63.8450 C.ar  120  TYR120      0.0417
     11  CZ       -38.1360  -45.8460  -63.0290 C.ar  120  TYR120      0.1957
     12  OH       -38.1070  -45.6710  -61.6420 O.3   120  TYR120     -0.2866
     13  N        -41.1400  -50.1780  -70.7100 N.3   123  LEU123     -0.1231
     14  CA       -42.5250  -49.9520  -70.3160 C.3   123  LEU123      0.1693
     15  C        -43.1360  -48.7180  -70.9840 C.2   123  LEU123      0.2592
     16  O        -44.2650  -48.7540  -71.4640 O.2   123  LEU123     -0.2718
     17  CB       -42.6060  -49.7950  -68.8070 C.3   123  LEU123      0.0284
     18  CG       -43.9760  -49.4320  -68.2480 C.3   123  LEU123      0.0019
     19  CD1      -44.9730  -50.5120  -68.5780 C.3   123  LEU123      0.0001
     20  CD2      -43.8810  -49.1960  -66.7520 C.3   123  LEU123      0.0001
     21  N        -42.3710  -47.6330  -71.0500 N.am  124  THR124     -0.1953
     22  CA       -42.9540  -46.3480  -71.4190 C.3   124  THR124      0.1897
     23  C        -42.9790  -46.0600  -72.9080 C.2   124  THR124      0.2313
     24  O        -43.9890  -45.5540  -73.4120 O.2   124  THR124     -0.2863
     25  CB       -42.2050  -45.1820  -70.7630 C.3   124  THR124      0.1794
     26  OG1      -40.8730  -45.1090  -71.2950 O.3   124  THR124     -0.2208
     27  CG2      -42.1880  -45.3450  -69.2570 C.3   124  THR124      0.0378
     28  N        -46.0100  -44.0990  -74.8000 N.3   128  PHE128     -0.1241
     29  CA       -46.0170  -42.6610  -75.0400 C.3   128  PHE128      0.1605
     30  C        -45.7430  -42.3520  -76.5000 C.2   128  PHE128      0.2264
     31  O        -46.2110  -41.3410  -77.0340 O.2   128  PHE128     -0.2867
     32  CB       -44.9900  -41.9420  -74.1480 C.3   128  PHE128      0.0534
     33  CG       -45.1610  -42.2290  -72.6730 C.ar  128  PHE128     -0.0203
     34  CD1      -46.3660  -42.7180  -72.1780 C.ar  128  PHE128     -0.0042
     35  CD2      -44.1240  -42.0220  -71.7860 C.ar  128  PHE128     -0.0042
     36  CE1      -46.5250  -43.0040  -70.8450 C.ar  128  PHE128     -0.0003
     37  CE2      -44.2870  -42.2990  -70.4470 C.ar  128  PHE128     -0.0003
     38  CZ       -45.4900  -42.7920  -69.9810 C.ar  128  PHE128     -0.0000
     39  N        -39.2330  -38.7430  -73.2870 N.3   133  ILE133     -0.1231
     40  CA       -39.1920  -39.3380  -71.9470 C.3   133  ILE133      0.1692
     41  C        -37.9820  -40.2760  -71.8060 C.2   133  ILE133      0.2592
     42  O        -36.8890  -39.8300  -71.5060 O.2   133  ILE133     -0.2718
     43  CB       -40.5120  -40.1220  -71.5830 C.3   133  ILE133      0.0266
     44  CG1      -41.7810  -39.3860  -72.0370 C.3   133  ILE133      0.0019
     45  CG2      -40.5630  -40.4240  -70.0970 C.3   133  ILE133      0.0020
     46  CD1      -41.8970  -37.9870  -71.5410 C.3   133  ILE133      0.0001
     47  N        -38.1790  -41.5680  -72.0210 N.am  134  TYR134     -0.1976
     48  CA       -37.1330  -42.5520  -71.7610 C.3   134  TYR134      0.1639
     49  C        -36.6330  -43.1380  -73.0800 C.2   134  TYR134      0.2290
     50  O        -35.8800  -44.1070  -73.1300 O.2   134  TYR134     -0.2864
     51  CB       -37.6640  -43.6340  -70.8330 C.3   134  TYR134      0.0560
     52  CG       -38.0020  -43.0820  -69.4780 C.ar  134  TYR134     -0.0198
     53  CD1      -37.1480  -42.1820  -68.8570 C.ar  134  TYR134     -0.0009
     54  CD2      -39.1860  -43.4210  -68.8400 C.ar  134  TYR134     -0.0009
     55  CE1      -37.4370  -41.6550  -67.6200 C.ar  134  TYR134      0.0417
     56  CE2      -39.4950  -42.8960  -67.5970 C.ar  134  TYR134      0.0417
     57  CZ       -38.6110  -42.0090  -66.9840 C.ar  134  TYR134      0.1957
     58  OH       -38.8920  -41.4640  -65.7470 O.3   134  TYR134     -0.2866
     59  N        -50.1970  -49.7780  -70.2640 N.3   230  PHE230     -0.1241
     60  CA       -49.2920  -49.3010  -69.2210 C.3   230  PHE230      0.1605
     61  C        -49.4460  -50.2110  -68.0090 C.2   230  PHE230      0.2264
     62  O        -50.1100  -49.8610  -67.0390 O.2   230  PHE230     -0.2867
     63  CB       -49.5950  -47.8420  -68.8560 C.3   230  PHE230      0.0534
     64  CG       -48.5970  -47.2200  -67.9180 C.ar  230  PHE230     -0.0203
     65  CD1      -47.3530  -46.8270  -68.3710 C.ar  230  PHE230     -0.0042
     66  CD2      -48.9170  -47.0020  -66.5840 C.ar  230  PHE230     -0.0042
     67  CE1      -46.4440  -46.2460  -67.5060 C.ar  230  PHE230     -0.0003
     68  CE2      -48.0100  -46.4170  -65.7180 C.ar  230  PHE230     -0.0003
     69  CZ       -46.7740  -46.0420  -66.1850 C.ar  230  PHE230     -0.0000
     70  N        -43.1520  -55.4650  -68.5790 N.3   235  PHE235     -0.1241
     71  CA       -41.7730  -55.6540  -68.1020 C.3   235  PHE235      0.1605
     72  C        -41.1930  -56.9880  -68.5360 C.2   235  PHE235      0.2264
     73  O        -40.0100  -57.0890  -68.8380 O.2   235  PHE235     -0.2867
     74  CB       -41.6760  -55.5800  -66.5720 C.3   235  PHE235      0.0534
     75  CG       -41.5180  -54.1910  -66.0290 C.ar  235  PHE235     -0.0203
     76  CD1      -42.0640  -53.1100  -66.6840 C.ar  235  PHE235     -0.0042
     77  CD2      -40.8300  -53.9750  -64.8620 C.ar  235  PHE235     -0.0042
     78  CE1      -41.9260  -51.8450  -66.1850 C.ar  235  PHE235     -0.0003
     79  CE2      -40.6850  -52.7040  -64.3610 C.ar  235  PHE235     -0.0003
     80  CZ       -41.2360  -51.6380  -65.0260 C.ar  235  PHE235     -0.0000
     81  N        -47.3880  -38.5380  -72.4980 N.3   304  GLY304     -0.1210
     82  CA       -46.5620  -38.9000  -71.3560 C.3   304  GLY304      0.1956
     83  C        -46.8980  -38.0820  -70.1200 C.2   304  GLY304      0.2611
     84  O        -47.1280  -38.6350  -69.0480 O.2   304  GLY304     -0.2717
     85  N        -46.9560  -36.7640  -70.2780 N.am  305  VAL305     -0.1979
     86  CA       -47.2490  -35.8910  -69.1730 C.3   305  VAL305      0.1595
     87  C        -48.6210  -36.2210  -68.5720 C.2   305  VAL305      0.2287
     88  O        -48.7160  -36.4290  -67.3650 O.2   305  VAL305     -0.2864
     89  CB       -47.2040  -34.4270  -69.5900 C.3   305  VAL305      0.0276
     90  CG1      -47.7580  -33.5620  -68.4730 C.3   305  VAL305      0.0022
     91  CG2      -45.7820  -34.0350  -69.8680 C.3   305  VAL305      0.0022
     92  N        -50.3180  -38.9960  -68.8210 N.3   307  MET307     -0.1230
     93  CA       -50.3940  -40.3450  -68.2750 C.3   307  MET307      0.1702
     94  C        -49.8350  -40.4020  -66.8460 C.2   307  MET307      0.2592
     95  O        -50.3510  -41.1220  -65.9870 O.2   307  MET307     -0.2718
     96  CB       -49.6370  -41.3260  -69.1830 C.3   307  MET307      0.0401
     97  CG       -49.6530  -42.7640  -68.7030 C.3   307  MET307      0.0596
     98  SD       -51.2370  -43.5600  -69.0170 S.3   307  MET307     -0.1393
     99  CE       -51.1550  -43.7310  -70.7970 C.3   307  MET307      0.0692
    100  N        -48.7730  -39.6500  -66.5990 N.am  308  GLY308     -0.1957
    101  CA       -48.0940  -39.7240  -65.3240 C.3   308  GLY308      0.1869
    102  C        -48.8750  -39.0090  -64.2420 C.2   308  GLY308      0.2309
    103  O        -48.8080  -39.3440  -63.0520 O.2   308  GLY308     -0.2863
    104  N        -51.1860  -41.3510  -60.6660 N.3   312  THR312     -0.1218
    105  CA       -50.7370  -40.8960  -59.3680 C.3   312  THR312      0.1862
    106  C        -51.7710  -39.9900  -58.7060 C.2   312  THR312      0.2287
    107  O        -52.1450  -40.1940  -57.5690 O.2   312  THR312     -0.2866
    108  CB       -49.4360  -40.1520  -59.5020 C.3   312  THR312      0.1770
    109  OG1      -49.6190  -39.1330  -60.4900 O.3   312  THR312     -0.2211
    110  CG2      -48.3110  -41.1090  -59.9600 C.3   312  THR312      0.0375
    111  N        -46.1870  -44.7140  -56.3530 N.3   374  LEU374     -0.1245
    112  CA       -45.1290  -45.5400  -56.9260 C.3   374  LEU374      0.1561
    113  C        -44.2640  -46.1450  -55.8310 C.2   374  LEU374      0.2260
    114  O        -43.3890  -45.4700  -55.3210 O.2   374  LEU374     -0.2867
    115  CB       -44.2720  -44.6790  -57.8530 C.3   374  LEU374      0.0270
    116  CG       -45.1140  -43.8040  -58.7900 C.3   374  LEU374      0.0019
    117  CD1      -44.3120  -42.7020  -59.4180 C.3   374  LEU374      0.0001
    118  CD2      -45.6960  -44.6580  -59.8560 C.3   374  LEU374      0.0001
    119  N        -41.8730  -48.2070  -55.7660 N.3   376  SER376     -0.1202
    120  CA       -40.5190  -48.6170  -56.1340 C.3   376  SER376      0.2020
    121  C        -40.0540  -47.7880  -57.2980 C.2   376  SER376      0.2619
    122  O        -40.7930  -47.6250  -58.2620 O.2   376  SER376     -0.2717
    123  CB       -40.4690  -50.0970  -56.5260 C.3   376  SER376      0.2103
    124  OG       -40.7260  -50.9510  -55.4300 O.3   376  SER376     -0.2182
    125  N        -38.8550  -47.2380  -57.2280 N.am  377  LEU377     -0.1965
    126  CA       -38.2820  -46.6760  -58.4370 C.3   377  LEU377      0.1728
    127  C        -37.0140  -47.4590  -58.7190 C.2   377  LEU377      0.2616
    128  O        -36.2820  -47.7950  -57.7810 O.2   377  LEU377     -0.2715
    129  CB       -38.0220  -45.1820  -58.2840 C.3   377  LEU377      0.0311
    130  CG       -39.2350  -44.4570  -57.6850 C.3   377  LEU377      0.0022
    131  CD1      -38.8610  -43.0400  -57.2950 C.3   377  LEU377      0.0001
    132  CD2      -40.4860  -44.4490  -58.5660 C.3   377  LEU377      0.0001
    133  N        -36.7760  -47.8000  -59.9860 N.am  378  PHE378     -0.1974
    134  CA       -35.5850  -48.5730  -60.3390 C.3   378  PHE378      0.1639
    135  C        -34.5840  -47.7800  -61.1430 C.2   378  PHE378      0.2290
    136  O        -34.9170  -46.7690  -61.7740 O.2   378  PHE378     -0.2864
    137  CB       -35.9270  -49.7960  -61.1620 C.3   378  PHE378      0.0560
    138  CG       -37.1800  -50.4750  -60.7580 C.ar  378  PHE378     -0.0200
    139  CD1      -37.2060  -51.3120  -59.6600 C.ar  378  PHE378     -0.0042
    140  CD2      -38.3360  -50.2870  -61.4900 C.ar  378  PHE378     -0.0042
    141  CE1      -38.3710  -51.9570  -59.2970 C.ar  378  PHE378     -0.0003
    142  CE2      -39.5020  -50.9170  -61.1280 C.ar  378  PHE378     -0.0003
    143  CZ       -39.5240  -51.7500  -60.0240 C.ar  378  PHE378     -0.0000
    144  N        -39.5840  -35.3910  -59.8410 N.3   464  CYS464     -0.1235
    145  CA       -40.8650  -35.0510  -60.4340 C.3   464  CYS464      0.1677
    146  C        -40.9450  -33.5680  -60.7400 C.2   464  CYS464      0.2270
    147  O        -40.2610  -32.7600  -60.1030 O.2   464  CYS464     -0.2867
    148  CB       -42.0100  -35.4530  -59.4900 C.3   464  CYS464      0.0956
    149  SG       -43.6370  -34.9740  -60.1260 S.3   464  CYS464     -0.0801
    150  N        -49.4630  -50.7320  -61.4720 N.3   503  MET503     -0.1245
    151  CA       -48.2520  -49.9390  -61.5540 C.3   503  MET503      0.1570
    152  C        -48.1940  -48.9550  -60.3380 C.2   503  MET503      0.2261
    153  O        -47.1330  -48.7760  -59.7120 O.2   503  MET503     -0.2867
    154  CB       -48.1700  -49.2560  -62.9280 C.3   503  MET503      0.0387
    155  CG       -47.1410  -49.9490  -63.8840 C.3   503  MET503      0.0595
    156  SD       -45.3720  -49.9790  -63.3900 S.3   503  MET503     -0.1393
    157  CE       -45.1500  -51.4770  -62.4150 C.3   503  MET503      0.0692
@<TRIPOS>BOND
     1    31    30    2
     2    30    29    1
     3    29    28    1
     4    29    32    1
     5    32    33    1
     6    24    23    2
     7    39    40    1
     8    50    49    2
     9    49    48    1
    10    23    22    1
    11    33    34   ar
    12    33    35   ar
    13    81    82    1
    14    34    36   ar
    15    44    43    1
    16    44    46    1
    17    47    41   am
    18    47    48    1
    19    40    41    1
    20    40    43    1
    21    41    42    2
    22    35    37   ar
    23    48    51    1
    24    43    45    1
    25    16    15    2
    26    22    21    1
    27    22    25    1
    28    82    83    1
    29    26    25    1
    30    21    15   am
    31    15    14    1
    32    36    38   ar
    33    51    52    1
    34    99    98    1
    35    25    27    1
    36    13    14    1
    37    37    38   ar
    38    14    17    1
    39    85    83   am
    40    85    86    1
    41    59    60    1
    42    83    84    2
    43    91    89    1
    44    89    86    1
    45    89    90    1
    46     4     3    2
    47    52    53   ar
    48    52    54   ar
    49     3     2    1
    50    60    63    1
    51    60    61    1
    52    96    97    1
    53    96    93    1
    54    86    87    1
    55    98    97    1
    56    53    55   ar
    57    63    64    1
    58    54    56   ar
    59    73    72    2
    60    92    93    1
    61    17    18    1
    62    70    71    1
    63    19    18    1
    64    87    88    2
    65    72    71    1
    66    65    64   ar
    67    65    67   ar
    68    93    94    1
    69    18    20    1
    70    71    74    1
    71    61    62    2
    72    64    66   ar
    73     2     1    1
    74     2     5    1
    75    55    57   ar
    76    56    57   ar
    77    67    69   ar
    78     5     6    1
    79    57    58    1
    80    94   100   am
    81    94    95    2
    82    76    78   ar
    83    76    75   ar
    84   100   101    1
    85    66    68   ar
    86    74    75    1
    87    78    80   ar
    88    69    68   ar
    89    75    77   ar
    90     6     8   ar
    91     6     7   ar
    92   101   102    1
    93     8    10   ar
    94    80    79   ar
    95     7     9   ar
    96    77    79   ar
    97   102   103    2
    98   155   156    1
    99   155   154    1
   100    10    11   ar
   101     9    11   ar
   102   156   157    1
   103    11    12    1
   104   154   151    1
   105   136   135    2
   106   151   150    1
   107   151   152    1
   108   140   142   ar
   109   140   138   ar
   110   137   138    1
   111   137   134    1
   112   135   134    1
   113   142   143   ar
   114   138   139   ar
   115   146   145    1
   116   146   147    2
   117   104   105    1
   118   109   108    1
   119   145   144    1
   120   145   148    1
   121   134   133    1
   122   152   153    2
   123   149   148    1
   124   143   141   ar
   125   133   127   am
   126   110   108    1
   127   118   116    1
   128   139   141   ar
   129   108   105    1
   130   117   116    1
   131   105   106    1
   132   116   115    1
   133   127   126    1
   134   127   128    2
   135   106   107    2
   136   132   130    1
   137   126   129    1
   138   126   125    1
   139   129   130    1
   140   122   121    2
   141   115   112    1
   142   130   131    1
   143   121   125   am
   144   121   120    1
   145   112   111    1
   146   112   113    1
   147   123   120    1
   148   123   124    1
   149   120   119    1
   150   113   114    2
