@<TRIPOS>MOLECULE
tmp/5eagA00.pdb
 153 146 0 0 0
SMALL
GASTEIGER

@<TRIPOS>ATOM
      1  N         17.4660    4.3400   12.6040 N.3   120  TYR120     -0.1241
      2  CA        17.7540    5.7560   12.3450 C.3   120  TYR120      0.1605
      3  C         17.7440    6.2070   10.8650 C.2   120  TYR120      0.2264
      4  O         17.5430    7.3860   10.5920 O.2   120  TYR120     -0.2867
      5  CB        19.1250    6.1280   12.9310 C.3   120  TYR120      0.0534
      6  CG        19.2750    6.0990   14.4470 C.ar  120  TYR120     -0.0201
      7  CD1       18.2070    6.3670   15.2960 C.ar  120  TYR120     -0.0009
      8  CD2       20.5130    5.8210   15.0270 C.ar  120  TYR120     -0.0009
      9  CE1       18.3680    6.3560   16.6810 C.ar  120  TYR120      0.0417
     10  CE2       20.6790    5.8150   16.4030 C.ar  120  TYR120      0.0417
     11  CZ        19.6050    6.0800   17.2260 C.ar  120  TYR120      0.1957
     12  OH        19.7950    6.0660   18.5950 O.3   120  TYR120     -0.2866
     13  N         15.3890    8.5950    9.0130 N.3   123  LEU123     -0.1231
     14  CA        15.4900    9.9690    9.4770 C.3   123  LEU123      0.1693
     15  C         16.7370   10.6670    8.9270 C.2   123  LEU123      0.2592
     16  O         16.6710   11.8300    8.5350 O.2   123  LEU123     -0.2718
     17  CB        15.5030    9.9960   10.9990 C.3   123  LEU123      0.0284
     18  CG        14.9100   11.1800   11.7630 C.3   123  LEU123      0.0019
     19  CD1       15.1150   10.9030   13.2390 C.3   123  LEU123      0.0001
     20  CD2       15.5300   12.5220   11.3830 C.3   123  LEU123      0.0001
     21  N         17.8690    9.9680    8.8880 N.am  124  THR124     -0.1953
     22  CA        19.1350   10.6330    8.5580 C.3   124  THR124      0.1897
     23  C         19.5000   10.6660    7.0800 C.2   124  THR124      0.2313
     24  O         20.0270   11.6800    6.6050 O.2   124  THR124     -0.2863
     25  CB        20.3230    9.9900    9.2990 C.3   124  THR124      0.1794
     26  OG1       20.4160    8.6040    8.9410 O.3   124  THR124     -0.2208
     27  CG2       20.1660   10.1550   10.8180 C.3   124  THR124      0.0378
     28  N         21.3240   13.7880    5.3000 N.3   128  PHE128     -0.1241
     29  CA        22.7490   13.7750    4.9930 C.3   128  PHE128      0.1605
     30  C         23.0250   13.4300    3.5370 C.2   128  PHE128      0.2264
     31  O         23.9660   13.9560    2.9380 O.2   128  PHE128     -0.2867
     32  CB        23.4970   12.7630    5.8770 C.3   128  PHE128      0.0534
     33  CG        23.2630   12.9400    7.3600 C.ar  128  PHE128     -0.0203
     34  CD1       22.9630   14.1870    7.8960 C.ar  128  PHE128     -0.0042
     35  CD2       23.3390   11.8520    8.2170 C.ar  128  PHE128     -0.0042
     36  CE1       22.7500   14.3310    9.2420 C.ar  128  PHE128     -0.0003
     37  CE2       23.1190   12.0050    9.5590 C.ar  128  PHE128     -0.0003
     38  CZ        22.8280   13.2340   10.0740 C.ar  128  PHE128     -0.0000
     39  N         26.9310    6.8150    6.8060 N.3   133  ILE133     -0.1231
     40  CA        26.3690    6.7690    8.1620 C.3   133  ILE133      0.1692
     41  C         25.4390    5.5790    8.3630 C.2   133  ILE133      0.2592
     42  O         25.8890    4.5110    8.7700 O.2   133  ILE133     -0.2718
     43  CB        25.5970    8.0670    8.5230 C.3   133  ILE133      0.0266
     44  CG1       26.4160    9.2870    8.1610 C.3   133  ILE133      0.0019
     45  CG2       25.2710    8.0960    9.9890 C.3   133  ILE133      0.0020
     46  CD1       27.7560    9.2350    8.7290 C.3   133  ILE133      0.0001
     47  N         24.1500    5.7750    8.1060 N.am  134  TYR134     -0.1976
     48  CA        23.1690    4.7100    8.2770 C.3   134  TYR134      0.1639
     49  C         22.6250    4.1540    6.9320 C.2   134  TYR134      0.2290
     50  O         21.6990    3.3490    6.9110 O.2   134  TYR134     -0.2864
     51  CB        22.0260    5.2130    9.1520 C.3   134  TYR134      0.0560
     52  CG        22.5180    5.6320   10.5120 C.ar  134  TYR134     -0.0198
     53  CD1       23.3940    4.8150   11.2250 C.ar  134  TYR134     -0.0009
     54  CD2       22.1410    6.8580   11.0760 C.ar  134  TYR134     -0.0009
     55  CE1       23.8690    5.1810   12.4570 C.ar  134  TYR134      0.0417
     56  CE2       22.6050    7.2360   12.3080 C.ar  134  TYR134      0.0417
     57  CZ        23.4770    6.3940   13.0000 C.ar  134  TYR134      0.1957
     58  OH        23.9540    6.7630   14.2300 O.3   134  TYR134     -0.2866
     59  N         15.4770   17.3550   10.0880 N.3   230  PHE230     -0.1241
     60  CA        16.0740   16.6080   11.1930 C.3   230  PHE230      0.1605
     61  C         15.2140   16.7760   12.4350 C.2   230  PHE230      0.2264
     62  O         15.7200   17.0930   13.5060 O.2   230  PHE230     -0.2867
     63  CB        17.5010   17.1160   11.4440 C.3   230  PHE230      0.0534
     64  CG        18.3810   16.1690   12.2090 C.ar  230  PHE230     -0.0203
     65  CD1       18.6360   14.8950   11.7290 C.ar  230  PHE230     -0.0042
     66  CD2       19.0060   16.5860   13.3930 C.ar  230  PHE230     -0.0042
     67  CE1       19.4640   14.0370   12.4280 C.ar  230  PHE230     -0.0003
     68  CE2       19.8410   15.7370   14.0980 C.ar  230  PHE230     -0.0003
     69  CZ        20.0750   14.4580   13.6150 C.ar  230  PHE230     -0.0000
     70  N         10.4750   12.0180   12.2370 N.3   235  PHE235     -0.1241
     71  CA        10.3710   10.8800   13.1530 C.3   235  PHE235      0.1605
     72  C          9.4530    9.7900   12.6060 C.2   235  PHE235      0.2264
     73  O          9.8300    8.6180   12.5270 O.2   235  PHE235     -0.2867
     74  CB         9.8210   11.3740   14.4990 C.3   235  PHE235      0.0534
     75  CG        10.3170   10.6240   15.7170 C.ar  235  PHE235     -0.0203
     76  CD1       11.3690   11.1230   16.4780 C.ar  235  PHE235     -0.0042
     77  CD2        9.6860    9.4630   16.1470 C.ar  235  PHE235     -0.0042
     78  CE1       11.8100   10.4540   17.6260 C.ar  235  PHE235     -0.0003
     79  CE2       10.1230    8.7900   17.2920 C.ar  235  PHE235     -0.0003
     80  CZ        11.1850    9.2860   18.0290 C.ar  235  PHE235     -0.0000
     81  N         26.7310   15.0100    7.7720 N.3   304  GLY304     -0.1210
     82  CA        26.2570   14.2030    8.8760 C.3   304  GLY304      0.1956
     83  C         27.0660   14.4230   10.1540 C.2   304  GLY304      0.2611
     84  O         26.5180   14.5010   11.2580 O.2   304  GLY304     -0.2717
     85  N         28.3800   14.5340    9.9970 N.am  305  VAL305     -0.1979
     86  CA        29.2540   14.6300   11.1410 C.3   305  VAL305      0.1595
     87  C         29.1200   16.0260   11.7790 C.2   305  VAL305      0.2287
     88  O         29.0100   16.1350   12.9930 O.2   305  VAL305     -0.2864
     89  CB        30.7190   14.2840   10.7300 C.3   305  VAL305      0.0276
     90  CG1       31.7210   14.7720   11.7530 C.3   305  VAL305      0.0022
     91  CG2       30.8540   12.7590   10.5370 C.3   305  VAL305      0.0022
     92  N         25.3330   16.6580   13.6780 N.3   308  GLY308     -0.1210
     93  CA        25.1100   16.0730   14.9830 C.3   308  GLY308      0.1956
     94  C         25.8110   16.8860   16.0550 C.2   308  GLY308      0.2612
     95  O         25.1860   17.3310   17.0080 O.2   308  GLY308     -0.2717
     96  N         27.1040   17.1140   15.8420 N.am  309  GLY309     -0.1956
     97  CA        27.9210   17.9160   16.7170 C.3   309  GLY309      0.1869
     98  C         27.4440   19.3460   16.8910 C.2   309  GLY309      0.2309
     99  O         27.7060   19.9560   17.9280 O.2   309  GLY309     -0.2863
    100  N         24.1150   19.2870   19.4860 N.3   312  THR312     -0.1218
    101  CA        24.4050   18.7850   20.8270 C.3   312  THR312      0.1862
    102  C         25.2810   19.7920   21.5580 C.2   312  THR312      0.2287
    103  O         25.0110   20.1400   22.6990 O.2   312  THR312     -0.2866
    104  CB        25.1010   17.4070   20.7940 C.3   312  THR312      0.1770
    105  OG1       26.2280   17.4460   19.9060 O.3   312  THR312     -0.2211
    106  CG2       24.1280   16.3300   20.3230 C.3   312  THR312      0.0375
    107  N         20.4430   14.0130   24.1270 N.3   374  LEU374     -0.1245
    108  CA        19.5150   13.0040   23.5890 C.3   374  LEU374      0.1561
    109  C         18.9490   12.1490   24.6960 C.2   374  LEU374      0.2260
    110  O         19.6740   11.3600   25.3030 O.2   374  LEU374     -0.2867
    111  CB        20.2130   12.1120   22.5660 C.3   374  LEU374      0.0270
    112  CG        20.9700   12.9160   21.5110 C.3   374  LEU374      0.0019
    113  CD1       22.3220   12.3070   21.2430 C.3   374  LEU374      0.0001
    114  CD2       20.1600   13.0430   20.2600 C.3   374  LEU374      0.0001
    115  N         16.9780    9.6960   24.6160 N.3   376  SER376     -0.1202
    116  CA        16.6520    8.3260   24.2210 C.3   376  SER376      0.2020
    117  C         17.5030    7.8680   23.0490 C.2   376  SER376      0.2619
    118  O         17.6990    8.6160   22.0940 O.2   376  SER376     -0.2717
    119  CB        15.1680    8.2120   23.8620 C.3   376  SER376      0.2103
    120  OG        14.3610    8.5010   24.9940 O.3   376  SER376     -0.2182
    121  N         18.0310    6.6520   23.1300 N.am  377  LEU377     -0.1965
    122  CA        18.7800    6.0970   22.0130 C.3   377  LEU377      0.1728
    123  C         18.1140    4.7690   21.6290 C.2   377  LEU377      0.2616
    124  O         17.6360    4.0310   22.4940 O.2   377  LEU377     -0.2715
    125  CB        20.2680    5.9340   22.3710 C.3   377  LEU377      0.0311
    126  CG        20.9090    7.2320   22.9050 C.3   377  LEU377      0.0022
    127  CD1       22.2860    7.0450   23.5330 C.3   377  LEU377      0.0001
    128  CD2       20.9920    8.2620   21.8110 C.3   377  LEU377      0.0001
    129  N         18.0630    4.4800   20.3340 N.am  378  PHE378     -0.1974
    130  CA        17.2490    3.3740   19.8310 C.3   378  PHE378      0.1639
    131  C         18.0470    2.3670   19.0370 C.2   378  PHE378      0.2290
    132  O         19.0530    2.7030   18.4210 O.2   378  PHE378     -0.2864
    133  CB        16.1290    3.8820   18.9260 C.3   378  PHE378      0.0560
    134  CG        15.2500    4.9200   19.5470 C.ar  378  PHE378     -0.0200
    135  CD1       14.1880    4.5520   20.3500 C.ar  378  PHE378     -0.0042
    136  CD2       15.4620    6.2720   19.2920 C.ar  378  PHE378     -0.0042
    137  CE1       13.3610    5.5100   20.9080 C.ar  378  PHE378     -0.0003
    138  CE2       14.6390    7.2410   19.8530 C.ar  378  PHE378     -0.0003
    139  CZ        13.5860    6.8610   20.6590 C.ar  378  PHE378     -0.0000
    140  N         29.9990    7.7460   20.3780 N.3   464  CYS464     -0.1235
    141  CA        30.4370    9.0310   19.8370 C.3   464  CYS464      0.1677
    142  C         31.9420    9.0760   19.6340 C.2   464  CYS464      0.2270
    143  O         32.7070    8.5380   20.4490 O.2   464  CYS464     -0.2867
    144  CB        30.0240   10.1820   20.7620 C.3   464  CYS464      0.0956
    145  SG        30.4590   11.8120   20.1210 S.3   464  CYS464     -0.0801
    146  N         14.6630   17.3760   18.4330 N.3   503  MET503     -0.1245
    147  CA        15.5940   16.2450   18.3450 C.3   503  MET503      0.1570
    148  C         16.5240   16.1940   19.5560 C.2   503  MET503      0.2261
    149  O         16.7100   15.1380   20.1750 O.2   503  MET503     -0.2867
    150  CB        16.4180   16.3080   17.0610 C.3   503  MET503      0.0387
    151  CG        15.9060   15.3760   15.9750 C.3   503  MET503      0.0595
    152  SD        15.6910   13.6730   16.5290 S.3   503  MET503     -0.1393
    153  CE        14.2260   13.2060   15.6320 C.3   503  MET503      0.0692
@<TRIPOS>BOND
     1    31    30    2
     2    30    29    1
     3    29    28    1
     4    29    32    1
     5    32    33    1
     6    24    23    2
     7    39    40    1
     8    50    49    2
     9    49    48    1
    10    23    22    1
    11    33    34   ar
    12    33    35   ar
    13    81    82    1
    14    34    36   ar
    15    47    48    1
    16    47    41   am
    17    44    43    1
    18    44    46    1
    19    40    41    1
    20    40    43    1
    21    35    37   ar
    22    48    51    1
    23    41    42    2
    24    43    45    1
    25    16    15    2
    26    22    21    1
    27    22    25    1
    28    82    83    1
    29    21    15   am
    30    15    14    1
    31    26    25    1
    32    13    14    1
    33    51    52    1
    34    36    38   ar
    35    25    27    1
    36    14    17    1
    37    37    38   ar
    38    85    83   am
    39    85    86    1
    40    59    60    1
    41    83    84    2
    42    52    54   ar
    43    52    53   ar
    44    91    89    1
    45     4     3    2
    46    89    86    1
    47    89    90    1
    48     3     2    1
    49    17    18    1
    50    54    56   ar
    51    86    87    1
    52    60    63    1
    53    60    61    1
    54    53    55   ar
    55    20    18    1
    56    63    64    1
    57    65    64   ar
    58    65    67   ar
    59    18    19    1
    60    87    88    2
    61    64    66   ar
    62    70    71    1
    63    56    57   ar
    64     2     1    1
    65     2     5    1
    66    67    69   ar
    67    61    62    2
    68    55    57   ar
    69    73    72    2
    70    72    71    1
    71     5     6    1
    72    57    58    1
    73    71    74    1
    74    66    68   ar
    75    69    68   ar
    76    92    93    1
    77     6     8   ar
    78     6     7   ar
    79    74    75    1
    80    93    94    1
    81     8    10   ar
    82     7     9   ar
    83   153   152    1
    84    75    77   ar
    85    75    76   ar
    86    96    94   am
    87    96    97    1
    88   151   152    1
    89   151   150    1
    90    94    95    2
    91    77    79   ar
    92    10    11   ar
    93    76    78   ar
    94     9    11   ar
    95    97    98    1
    96    98    99    2
    97   150   147    1
    98    11    12    1
    99    79    80   ar
   100    78    80   ar
   101   147   146    1
   102   147   148    1
   103   132   131    2
   104   133   134    1
   105   133   130    1
   106   131   130    1
   107   136   134   ar
   108   136   138   ar
   109   100   101    1
   110   134   135   ar
   111   148   149    2
   112   142   141    1
   113   142   143    2
   114   130   129    1
   115   141   140    1
   116   141   144    1
   117   138   139   ar
   118   105   104    1
   119   145   144    1
   120   114   112    1
   121   106   104    1
   122   129   123   am
   123   135   137   ar
   124   139   137   ar
   125   104   101    1
   126   101   102    1
   127   113   112    1
   128   112   111    1
   129   102   103    2
   130   123   122    1
   131   123   124    2
   132   128   126    1
   133   122   125    1
   134   122   121    1
   135   118   117    2
   136   125   126    1
   137   111   108    1
   138   126   127    1
   139   117   121   am
   140   117   116    1
   141   108   107    1
   142   108   109    1
   143   119   116    1
   144   119   120    1
   145   116   115    1
   146   109   110    2
