@<TRIPOS>MOLECULE
tmp/5eahA01.pdb
 166 155 0 0 0
SMALL
GASTEIGER

@<TRIPOS>ATOM
      1  N         17.0900    4.8230   12.7850 N.3   121  TYR121     -0.1241
      2  CA        17.4720    6.2040   12.5450 C.3   121  TYR121      0.1605
      3  C         17.4380    6.6300   11.0880 C.2   121  TYR121      0.2264
      4  O         17.3220    7.8270   10.8230 O.2   121  TYR121     -0.2867
      5  CB        18.9000    6.4500   13.0420 C.3   121  TYR121      0.0534
      6  CG        19.1190    6.3590   14.5170 C.ar  121  TYR121     -0.0201
      7  CD1       18.1030    6.6420   15.4210 C.ar  121  TYR121     -0.0009
      8  CD2       20.3710    5.9920   15.0110 C.ar  121  TYR121     -0.0009
      9  CE1       18.3340    6.5680   16.7870 C.ar  121  TYR121      0.0417
     10  CE2       20.6130    5.9090   16.3600 C.ar  121  TYR121      0.0417
     11  CZ        19.6010    6.2130   17.2510 C.ar  121  TYR121      0.1957
     12  OH        19.8790    6.1390   18.6040 O.3   121  TYR121     -0.2866
     13  N         15.0720    9.1980    9.8120 N.3   124  LEU124     -0.1231
     14  CA        15.2760   10.5410   10.3490 C.3   124  LEU124      0.1693
     15  C         16.4540   11.2540    9.6930 C.2   124  LEU124      0.2592
     16  O         16.3790   12.4540    9.4120 O.2   124  LEU124     -0.2718
     17  CB        15.5000   10.4600   11.8540 C.3   124  LEU124      0.0284
     18  CG        15.8530   11.7820   12.5210 C.3   124  LEU124      0.0019
     19  CD1       14.7400   12.7940   12.3020 C.3   124  LEU124      0.0001
     20  CD2       16.0980   11.5520   13.9970 C.3   124  LEU124      0.0001
     21  N         17.5450   10.5380    9.4410 N.am  125  THR125     -0.1953
     22  CA        18.7940   11.1680    9.0430 C.3   125  THR125      0.1897
     23  C         19.0390   11.1630    7.5460 C.2   125  THR125      0.2313
     24  O         19.6160   12.1270    7.0250 O.2   125  THR125     -0.2863
     25  CB        19.9700   10.4800    9.7300 C.3   125  THR125      0.1794
     26  OG1       20.0340    9.1110    9.3110 O.3   125  THR125     -0.2208
     27  CG2       19.8090   10.5740   11.2450 C.3   125  THR125      0.0378
     28  N         20.8060   14.1810    5.6360 N.3   129  PHE129     -0.1241
     29  CA        22.2370   14.1710    5.3530 C.3   129  PHE129      0.1605
     30  C         22.5540   13.7930    3.9160 C.2   129  PHE129      0.2264
     31  O         23.5260   14.2940    3.3400 O.2   129  PHE129     -0.2867
     32  CB        22.9640   13.1960    6.2870 C.3   129  PHE129      0.0534
     33  CG        22.7230   13.4540    7.7540 C.ar  129  PHE129     -0.0203
     34  CD1       22.4780   14.7510    8.2180 C.ar  129  PHE129     -0.0042
     35  CD2       22.7370   12.3980    8.6730 C.ar  129  PHE129     -0.0042
     36  CE1       22.2530   14.9970    9.5580 C.ar  129  PHE129     -0.0003
     37  CE2       22.5220   12.6440   10.0260 C.ar  129  PHE129     -0.0003
     38  CZ        22.2710   13.9450   10.4650 C.ar  129  PHE129     -0.0000
     39  N         26.3090    6.8850    6.9520 N.3   134  ILE134     -0.1231
     40  CA        25.7810    6.9960    8.3050 C.3   134  ILE134      0.1692
     41  C         24.7750    5.8760    8.5640 C.2   134  ILE134      0.2592
     42  O         25.1620    4.7810    8.9940 O.2   134  ILE134     -0.2718
     43  CB        25.2130    8.4170    8.5390 C.3   134  ILE134      0.0266
     44  CG1       26.3510    9.4360    8.3870 C.3   134  ILE134      0.0019
     45  CG2       24.5840    8.5410    9.9020 C.3   134  ILE134      0.0020
     46  CD1       25.9120   10.8950    8.3480 C.3   134  ILE134      0.0001
     47  N         23.4900    6.1260    8.3220 N.am  135  TYR135     -0.1976
     48  CA        22.4660    5.1170    8.5630 C.3   135  TYR135      0.1639
     49  C         21.8330    4.6340    7.2780 C.2   135  TYR135      0.2290
     50  O         20.9230    3.8050    7.3200 O.2   135  TYR135     -0.2864
     51  CB        21.4090    5.6580    9.5270 C.3   135  TYR135      0.0560
     52  CG        22.0530    5.9680   10.8460 C.ar  135  TYR135     -0.0198
     53  CD1       22.9390    5.0600   11.4160 C.ar  135  TYR135     -0.0009
     54  CD2       21.8400    7.1780   11.4850 C.ar  135  TYR135     -0.0009
     55  CE1       23.5580    5.3280   12.5880 C.ar  135  TYR135      0.0417
     56  CE2       22.4660    7.4590   12.6560 C.ar  135  TYR135      0.0417
     57  CZ        23.3240    6.5340   13.2190 C.ar  135  TYR135      0.1957
     58  OH        23.9540    6.8120   14.4140 O.3   135  TYR135     -0.2866
     59  N         29.3980    2.2030    8.2540 N.3   142  LEU142     -0.1245
     60  CA        29.4010    3.0980    9.4010 C.3   142  LEU142      0.1561
     61  C         30.7220    3.0090   10.1650 C.2   142  LEU142      0.2260
     62  O         31.4060    4.0230   10.3350 O.2   142  LEU142     -0.2867
     63  CB        28.2180    2.7710   10.3260 C.3   142  LEU142      0.0270
     64  CG        28.1140    3.7380   11.5110 C.3   142  LEU142      0.0019
     65  CD1       28.0380    5.1500   10.9590 C.3   142  LEU142      0.0001
     66  CD2       26.9220    3.4920   12.3850 C.3   142  LEU142      0.0001
     67  N         33.4120    4.6490    8.2810 N.3   145  GLN145     -0.1231
     68  CA        33.2360    6.0940    8.1980 C.3   145  GLN145      0.1698
     69  C         33.6860    6.7590    9.4890 C.2   145  GLN145      0.2592
     70  O         34.3990    7.7670    9.4530 O.2   145  GLN145     -0.2718
     71  CB        31.7790    6.4370    7.8900 C.3   145  GLN145      0.0381
     72  CG        31.3500    6.0850    6.4700 C.3   145  GLN145      0.0905
     73  CD        29.8610    5.8540    6.3770 C.2   145  GLN145      0.2608
     74  OE1       29.0970    6.4150    7.1570 O.2   145  GLN145     -0.2717
     75  NE2       29.4400    4.9970    5.4460 N.am  145  GLN145     -0.0878
     76  N         33.3060    6.1820   10.6380 N.am  146  LYS146     -0.1980
     77  CA        33.7970    6.6770   11.9220 C.3   146  LYS146      0.1596
     78  C         35.3160    6.6130   11.9870 C.2   146  LYS146      0.2287
     79  O         35.9610    7.5290   12.5190 O.2   146  LYS146     -0.2864
     80  CB        33.1640    5.8850   13.0680 C.3   146  LYS146      0.0298
     81  CG        31.6370    6.0090   13.1440 C.3   146  LYS146      0.0038
     82  CD        31.0430    5.0620   14.1710 C.3   146  LYS146      0.0206
     83  CE        31.2650    5.5840   15.5790 C.3   146  LYS146      0.1093
     84  NZ        30.4990    4.7570   16.5140 N.3   146  LYS146     -0.1314
     85  N         36.4140    9.7160    9.9280 N.3   149  VAL149     -0.1245
     86  CA        36.1640   10.9760   10.6280 C.3   149  VAL149      0.1561
     87  C         37.1000   11.1320   11.8240 C.2   149  VAL149      0.2260
     88  O         37.6880   12.1990   12.0390 O.2   149  VAL149     -0.2867
     89  CB        34.6900   11.0540   11.0540 C.3   149  VAL149      0.0252
     90  CG1       34.4850   12.2340   11.9700 C.3   149  VAL149      0.0019
     91  CG2       33.8050   11.1630    9.8330 C.3   149  VAL149      0.0019
     92  N         15.2930   18.4580    9.9560 N.3   231  PHE231     -0.1241
     93  CA        15.7840   17.5250   10.9610 C.3   231  PHE231      0.1605
     94  C         14.8740   17.6790   12.1790 C.2   231  PHE231      0.2264
     95  O         15.2000   18.3630   13.1440 O.2   231  PHE231     -0.2867
     96  CB        17.2530   17.8300   11.2680 C.3   231  PHE231      0.0534
     97  CG        17.9700   16.7480   12.0150 C.ar  231  PHE231     -0.0203
     98  CD1       17.9230   15.4390   11.5740 C.ar  231  PHE231     -0.0042
     99  CD2       18.7230   17.0470   13.1380 C.ar  231  PHE231     -0.0042
    100  CE1       18.5930   14.4410   12.2540 C.ar  231  PHE231     -0.0003
    101  CE2       19.3900   16.0530   13.8230 C.ar  231  PHE231     -0.0003
    102  CZ        19.3210   14.7480   13.3760 C.ar  231  PHE231     -0.0000
    103  N         28.6110   12.9130    4.4300 N.3   302  LEU302     -0.1245
    104  CA        29.1820   12.6040    5.7330 C.3   302  LEU302      0.1561
    105  C         29.5730   13.8900    6.4750 C.2   302  LEU302      0.2260
    106  O         29.4190   13.9760    7.7000 O.2   302  LEU302     -0.2867
    107  CB        30.3720   11.6550    5.5630 C.3   302  LEU302      0.0270
    108  CG        31.0320   11.0740    6.8350 C.3   302  LEU302      0.0019
    109  CD1       30.1830   10.0050    7.5350 C.3   302  LEU302      0.0001
    110  CD2       32.4210   10.5310    6.5420 C.3   302  LEU302      0.0001
    111  N         26.5270   15.3580    7.9200 N.3   305  GLY305     -0.1210
    112  CA        26.1770   14.6170    9.1170 C.3   305  GLY305      0.1956
    113  C         27.0450   15.0180   10.2990 C.2   305  GLY305      0.2611
    114  O         26.5450   15.2340   11.4120 O.2   305  GLY305     -0.2717
    115  N         28.3550   15.1330   10.0700 N.am  306  VAL306     -0.1979
    116  CA        29.2630   15.5730   11.1240 C.3   306  VAL306      0.1595
    117  C         28.8210   16.9300   11.6640 C.2   306  VAL306      0.2287
    118  O         28.4890   17.0630   12.8420 O.2   306  VAL306     -0.2864
    119  CB        30.7160   15.6100   10.6120 C.3   306  VAL306      0.0276
    120  CG1       31.5800   16.3520   11.5960 C.3   306  VAL306      0.0022
    121  CG2       31.2620   14.1980   10.4220 C.3   306  VAL306      0.0022
    122  N         25.2340   16.8530   13.4090 N.3   309  GLY309     -0.1210
    123  CA        25.1880   16.1940   14.6980 C.3   309  GLY309      0.1956
    124  C         25.9470   16.9630   15.7590 C.2   309  GLY309      0.2612
    125  O         25.4830   17.0980   16.8970 O.2   309  GLY309     -0.2717
    126  N         27.1210   17.4810   15.4000 N.am  310  GLY310     -0.1956
    127  CA        27.8650   18.3010   16.3320 C.3   310  GLY310      0.1869
    128  C         27.1680   19.6080   16.6490 C.2   310  GLY310      0.2309
    129  O         27.2950   20.1260   17.7600 O.2   310  GLY310     -0.2863
    130  N         24.1420   19.0260   19.5640 N.3   313  THR313     -0.1218
    131  CA        24.6860   18.6200   20.8600 C.3   313  THR313      0.1862
    132  C         25.4970   19.7470   21.4830 C.2   313  THR313      0.2287
    133  O         25.3250   20.0770   22.6580 O.2   313  THR313     -0.2866
    134  CB        25.5900   17.4020   20.7080 C.3   313  THR313      0.1770
    135  OG1       26.5380   17.6690   19.6650 O.3   313  THR313     -0.2211
    136  CG2       24.8070   16.1330   20.4090 C.3   313  THR313      0.0375
    137  N         20.5480   14.0790   24.2270 N.3   375  LEU375     -0.1245
    138  CA        19.6600   13.0520   23.6920 C.3   375  LEU375      0.1561
    139  C         19.0970   12.2900   24.8790 C.2   375  LEU375      0.2260
    140  O         19.8390   11.6080   25.5890 O.2   375  LEU375     -0.2867
    141  CB        20.4080   12.1170   22.7370 C.3   375  LEU375      0.0270
    142  CG        21.2160   12.8770   21.6700 C.3   375  LEU375      0.0019
    143  CD1       22.4090   12.0750   21.1060 C.3   375  LEU375      0.0001
    144  CD2       20.2890   13.2640   20.5790 C.3   375  LEU375      0.0001
    145  N         18.0100    6.9170   23.1540 N.3   378  LEU378     -0.1245
    146  CA        18.6800    6.3440   22.0030 C.3   378  LEU378      0.1561
    147  C         17.9950    5.0200   21.7030 C.2   378  LEU378      0.2260
    148  O         17.5060    4.3480   22.6190 O.2   378  LEU378     -0.2867
    149  CB        20.1750    6.1700   22.2780 C.3   378  LEU378      0.0270
    150  CG        20.7970    7.4310   22.9030 C.3   378  LEU378      0.0019
    151  CD1       22.1340    7.1000   23.4830 C.3   378  LEU378      0.0001
    152  CD2       20.9470    8.5750   21.9130 C.3   378  LEU378      0.0001
    153  N         29.8940    7.6230   20.5000 N.3   465  CYS465     -0.1221
    154  CA        30.3000    8.8940   19.9240 C.3   465  CYS465      0.1808
    155  C         31.7960    8.9080   19.6440 C.2   465  CYS465      0.2601
    156  O         32.5910    8.2980   20.3640 O.2   465  CYS465     -0.2717
    157  CB        29.9270   10.0460   20.8730 C.3   465  CYS465      0.0970
    158  SG        30.2210   11.7100   20.1900 S.3   465  CYS465     -0.0800
    159  N         32.1790    9.6170   18.5790 N.am  466  ILE466     -0.1979
    160  CA        33.5780    9.9280   18.3260 C.3   466  ILE466      0.1595
    161  C         33.8450   11.4260   18.3800 C.2   466  ILE466      0.2287
    162  O         34.9130   11.8700   17.9620 O.2   466  ILE466     -0.2864
    163  CB        34.0780    9.3460   16.9860 C.3   466  ILE466      0.0276
    164  CG1       33.2910    9.9100   15.8040 C.3   466  ILE466      0.0022
    165  CG2       34.0810    7.8240   16.9940 C.3   466  ILE466      0.0022
    166  CD1       34.0000    9.6760   14.4900 C.3   466  ILE466      0.0001
@<TRIPOS>BOND
     1    31    30    2
     2    30    29    1
     3   103   104    1
     4    29    28    1
     5    29    32    1
     6    75    73   am
     7   107   104    1
     8   107   108    1
     9   104   105    1
    10    32    33    1
    11    73    72    1
    12    73    74    2
    13    72    71    1
    14   105   106    2
    15   110   108    1
    16   108   109    1
    17    39    40    1
    18    24    23    2
    19    49    50    2
    20    49    48    1
    21    23    22    1
    22    33    34   ar
    23    33    35   ar
    24    71    68    1
    25   111   112    1
    26    68    67    1
    27    68    69    1
    28    34    36   ar
    29    59    60    1
    30    40    43    1
    31    40    41    1
    32    47    48    1
    33    47    41   am
    34    46    44    1
    35    44    43    1
    36    43    45    1
    37    48    51    1
    38    41    42    2
    39    35    37   ar
    40    22    21    1
    41    22    25    1
    42   112   113    1
    43    26    25    1
    44    60    61    1
    45    60    63    1
    46    16    15    2
    47    21    15   am
    48    70    69    2
    49    69    76   am
    50    51    52    1
    51    36    38   ar
    52    15    14    1
    53    25    27    1
    54    13    14    1
    55    91    89    1
    56    85    86    1
    57    92    93    1
    58    37    38   ar
    59   115   113   am
    60   115   116    1
    61    61    62    2
    62   113   114    2
    63    63    64    1
    64    14    17    1
    65   121   119    1
    66   119   116    1
    67   119   120    1
    68    86    89    1
    69    86    87    1
    70    76    77    1
    71     4     3    2
    72    52    53   ar
    73    52    54   ar
    74    65    64    1
    75    93    96    1
    76    93    94    1
    77    89    90    1
    78     3     2    1
    79   116   117    1
    80    96    97    1
    81    53    55   ar
    82    54    56   ar
    83    64    66    1
    84    98    97   ar
    85    98   100   ar
    86   117   118    2
    87    87    88    2
    88    17    18    1
    89    77    78    1
    90    77    80    1
    91    78    79    2
    92    97    99   ar
    93    94    95    2
    94   100   102   ar
    95    19    18    1
    96    18    20    1
    97     2     1    1
    98     2     5    1
    99    55    57   ar
   100    56    57   ar
   101     5     6    1
   102    80    81    1
   103    99   101   ar
   104    81    82    1
   105    57    58    1
   106   102   101   ar
   107   122   123    1
   108    82    83    1
   109   166   164    1
   110     6     8   ar
   111     6     7   ar
   112   123   124    1
   113     8    10   ar
   114   126   124   am
   115   126   127    1
   116     7     9   ar
   117    83    84    1
   118   124   125    2
   119   164   163    1
   120   127   128    1
   121    10    11   ar
   122   128   129    2
   123     9    11   ar
   124   163   165    1
   125   163   160    1
   126    11    12    1
   127   162   161    2
   128   160   161    1
   129   160   159    1
   130   159   155   am
   131   130   131    1
   132   155   154    1
   133   155   156    2
   134   135   134    1
   135   154   153    1
   136   154   157    1
   137   158   157    1
   138   136   134    1
   139   144   142    1
   140   134   131    1
   141   131   132    1
   142   143   142    1
   143   132   133    2
   144   142   141    1
   145   147   146    1
   146   147   148    2
   147   152   150    1
   148   146   149    1
   149   146   145    1
   150   149   150    1
   151   141   138    1
   152   150   151    1
   153   138   137    1
   154   138   139    1
   155   139   140    2
