@<TRIPOS>MOLECULE
tmp/5eakA00.pdb
 168 156 0 0 0
SMALL
GASTEIGER

@<TRIPOS>ATOM
      1  N         48.7300   34.7330    2.0960 N.3    13  ILE13      -0.1231
      2  CA        47.5220   35.5090    2.3840 C.3    13  ILE13       0.1692
      3  C         46.4790   34.6760    3.0980 C.2    13  ILE13       0.2593
      4  O         45.3830   35.1470    3.3580 O.2    13  ILE13      -0.2718
      5  CB        46.8680   36.0700    1.1170 C.3    13  ILE13       0.0266
      6  CG1       46.2370   34.9480    0.3060 C.3    13  ILE13       0.0019
      7  CG2       47.8820   36.8220    0.2840 C.3    13  ILE13       0.0020
      8  CD1       45.7320   35.3880   -1.0430 C.3    13  ILE13       0.0001
      9  N         46.8230   33.4310    3.4000 N.am   14  GLY14      -0.1942
     10  CA        45.9330   32.5460    4.1230 C.3    14  GLY14       0.2014
     11  C         46.6580   31.2870    4.5380 C.2    14  GLY14       0.2639
     12  O         47.3930   30.7020    3.7450 O.2    14  GLY14      -0.2714
     13  N         46.4740   30.8810    5.7900 N.am   15  LYS15      -0.1963
     14  CA        47.0020   29.6060    6.2660 C.3    15  LYS15       0.1728
     15  C         45.8680   28.7580    6.8310 C.2    15  LYS15       0.2616
     16  O         45.0970   29.2130    7.6780 O.2    15  LYS15      -0.2715
     17  CB        48.0980   29.7970    7.3290 C.3    15  LYS15       0.0311
     18  CG        49.4930   30.1040    6.7790 C.3    15  LYS15       0.0038
     19  CD        50.5870   30.0010    7.8570 C.3    15  LYS15       0.0206
     20  CE        51.2680   31.3660    8.1350 C.3    15  LYS15       0.1093
     21  NZ        52.2350   31.8560    7.0700 N.3    15  LYS15      -0.1314
     22  N         45.7500   27.5340    6.3250 N.am   16  GLY16      -0.1955
     23  CA        44.8830   26.5290    6.9110 C.3    16  GLY16       0.1869
     24  C         45.8230   25.5180    7.5280 C.2    16  GLY16       0.2309
     25  O         47.0490   25.6720    7.4230 O.2    16  GLY16      -0.2863
     26  N         46.6260   23.4090    4.1640 N.3    19  ALA19      -0.1245
     27  CA        46.7640   24.1710    2.9480 C.3    19  ALA19       0.1562
     28  C         47.1850   25.5960    3.2620 C.2    19  ALA19       0.2260
     29  O         46.7320   26.1740    4.2510 O.2    19  ALA19      -0.2867
     30  CB        45.4530   24.1560    2.1710 C.3    19  ALA19       0.0290
     31  N         47.6040   29.4640    1.3020 N.3    21  VAL21      -0.1245
     32  CA        47.3090   30.2390    0.1030 C.3    21  VAL21       0.1561
     33  C         48.2730   31.3990   -0.0270 C.2    21  VAL21       0.2260
     34  O         48.4660   32.1670    0.9110 O.2    21  VAL21      -0.2867
     35  CB        45.9110   30.8230    0.1130 C.3    21  VAL21       0.0252
     36  CG1       45.6990   31.6400   -1.1590 C.3    21  VAL21       0.0019
     37  CG2       44.8610   29.7200    0.2580 C.3    21  VAL21       0.0019
     38  N         45.7240   33.9970   -6.8300 N.3    34  ALA34      -0.1245
     39  CA        45.7920   33.2220   -5.5880 C.3    34  ALA34       0.1562
     40  C         46.2420   31.7890   -5.8510 C.2    34  ALA34       0.2260
     41  O         45.6550   31.0860   -6.6690 O.2    34  ALA34      -0.2867
     42  CB        44.4590   33.2260   -4.8800 C.3    34  ALA34       0.0290
     43  N         46.6640   28.1370   -4.1470 N.3    36  LYS36      -0.1245
     44  CA        46.4160   27.2200   -3.0410 C.3    36  LYS36       0.1561
     45  C         47.3350   26.0190   -3.1440 C.2    36  LYS36       0.2260
     46  O         47.3260   25.2860   -4.1210 O.2    36  LYS36      -0.2867
     47  CB        44.9640   26.7810   -3.0090 C.3    36  LYS36       0.0271
     48  CG        44.5180   26.1950   -1.6890 C.3    36  LYS36       0.0035
     49  CD        43.0250   25.9530   -1.7400 C.3    36  LYS36       0.0206
     50  CE        42.5490   25.3210   -0.4650 C.3    36  LYS36       0.1093
     51  NZ        41.0830   25.1980   -0.5160 N.3    36  LYS36      -0.1314
     52  N         37.2170   19.0370   -4.5780 N.3    54  GLU54      -0.1245
     53  CA        37.4120   20.4700   -4.7420 C.3    54  GLU54       0.1567
     54  C         37.8540   20.7810   -6.1630 C.2    54  GLU54       0.2260
     55  O         37.3720   21.7390   -6.7940 O.2    54  GLU54      -0.2867
     56  CB        38.4380   21.0100   -3.7460 C.3    54  GLU54       0.0388
     57  CG        38.6680   22.5060   -3.8900 C.3    54  GLU54       0.1160
     58  CD        39.6460   23.0880   -2.8650 C.2    54  GLU54       0.3649
     59  OE1       40.3060   22.3050   -2.1250 O.co2  54  GLU54      -0.2457
     60  OE2       39.7320   24.3470   -2.8070 O.co2  54  GLU54      -0.2457
     61  N         35.2320   32.6110   -7.0970 N.3    67  VAL67      -0.1245
     62  CA        36.6120   32.7030   -7.5550 C.3    67  VAL67       0.1561
     63  C         36.8600   31.7090   -8.6880 C.2    67  VAL67       0.2260
     64  O         36.4910   30.5260   -8.6020 O.2    67  VAL67      -0.2867
     65  CB        37.6410   32.5430   -6.4140 C.3    67  VAL67       0.0252
     66  CG1       37.3130   33.5080   -5.2710 C.3    67  VAL67       0.0019
     67  CG2       37.6790   31.1170   -5.9100 C.3    67  VAL67       0.0019
     68  N         44.1080   30.2980   -8.6560 N.3    83  MET83      -0.1230
     69  CA        42.8120   30.9270   -8.8880 C.3    83  MET83       0.1702
     70  C         42.8370   32.4540   -8.7770 C.2    83  MET83       0.2592
     71  O         43.8640   33.0680   -8.4880 O.2    83  MET83      -0.2718
     72  CB        41.7220   30.3030   -8.0000 C.3    83  MET83       0.0401
     73  CG        42.0660   30.1700   -6.5150 C.3    83  MET83       0.0596
     74  SD        41.3940   28.6580   -5.7430 S.3    83  MET83      -0.1393
     75  CE        39.9570   28.4060   -6.7820 C.3    83  MET83       0.0692
     76  N         41.6870   33.0520   -9.0490 N.am   84  GLU84      -0.1966
     77  CA        41.4990   34.4900   -8.9950 C.3    84  GLU84       0.1733
     78  C         41.8100   35.0370   -7.6010 C.2    84  GLU84       0.2616
     79  O         41.5280   34.3810   -6.5910 O.2    84  GLU84      -0.2715
     80  CB        40.0490   34.7510   -9.3340 C.3    84  GLU84       0.0429
     81  CG        39.6610   36.1820   -9.4820 C.3    84  GLU84       0.1163
     82  CD        38.2130   36.3070   -9.9190 C.2    84  GLU84       0.3649
     83  OE1       37.5220   35.2630   -9.9780 O.co2  84  GLU84      -0.2457
     84  OE2       37.7750   37.4400  -10.2090 O.co2  84  GLU84      -0.2457
     85  N         42.3900   36.2390   -7.5430 N.am   85  TYR85      -0.1960
     86  CA        42.6850   36.8990   -6.2570 C.3    85  TYR85       0.1771
     87  C         41.6680   37.9910   -5.9390 C.2    85  TYR85       0.2619
     88  O         41.4030   38.8660   -6.7550 O.2    85  TYR85      -0.2715
     89  CB        44.0890   37.4960   -6.2700 C.3    85  TYR85       0.0574
     90  CG        44.4200   38.3300   -5.0460 C.ar   85  TYR85      -0.0198
     91  CD1       44.5290   37.7400   -3.7930 C.ar   85  TYR85      -0.0009
     92  CD2       44.6510   39.7080   -5.1490 C.ar   85  TYR85      -0.0009
     93  CE1       44.8410   38.4960   -2.6690 C.ar   85  TYR85       0.0417
     94  CE2       44.9590   40.4730   -4.0350 C.ar   85  TYR85       0.0417
     95  CZ        45.0520   39.8650   -2.7890 C.ar   85  TYR85       0.1957
     96  OH        45.3590   40.6080   -1.6530 O.3    85  TYR85      -0.2866
     97  N         41.0810   37.9410   -4.7540 N.am   86  ALA86      -0.1963
     98  CA        40.1050   38.9570   -4.3800 C.3    86  ALA86       0.1728
     99  C         40.7830   39.8970   -3.3930 C.2    86  ALA86       0.2617
    100  O         41.0090   39.5350   -2.2340 O.2    86  ALA86      -0.2715
    101  CB        38.8440   38.3160   -3.7810 C.3    86  ALA86       0.0334
    102  N         41.1250   41.0960   -3.8660 N.am   87  SER87      -0.1936
    103  CA        42.0180   42.0040   -3.1340 C.3    87  SER87       0.2055
    104  C         41.3180   42.7280   -1.9940 C.2    87  SER87       0.2644
    105  O         41.9790   43.2760   -1.0980 O.2    87  SER87      -0.2714
    106  CB        42.6290   43.0270   -4.0860 C.3    87  SER87       0.2130
    107  OG        41.6240   43.8580   -4.6360 O.3    87  SER87      -0.2179
    108  N         39.9830   42.7250   -2.0330 N.am   88  GLY88      -0.1939
    109  CA        39.1730   43.3060   -0.9720 C.3    88  GLY88       0.2014
    110  C         39.2160   42.4770    0.2990 C.2    88  GLY88       0.2639
    111  O         38.9170   42.9560    1.3890 O.2    88  GLY88      -0.2714
    112  N         39.5800   41.2110    0.1650 N.am   89  GLY89      -0.1939
    113  CA        39.6100   40.3240    1.3130 C.3    89  GLY89       0.2014
    114  C         38.2430   39.8820    1.8270 C.2    89  GLY89       0.2638
    115  O         37.2200   39.9200    1.1130 O.2    89  GLY89      -0.2714
    116  N         38.2410   39.4680    3.0900 N.am   90  GLU90      -0.1977
    117  CA        37.0870   38.8560    3.7290 C.3    90  GLU90       0.1602
    118  C         35.9510   39.8520    4.0070 C.2    90  GLU90       0.2287
    119  O         36.1880   40.9720    4.4600 O.2    90  GLU90      -0.2864
    120  CB        37.5580   38.2110    5.0230 C.3    90  GLU90       0.0415
    121  CG        36.9470   36.8610    5.3120 C.3    90  GLU90       0.1163
    122  CD        37.7790   36.0450    6.3020 C.2    90  GLU90       0.3649
    123  OE1       38.9850   35.8070    6.0230 O.co2  90  GLU90      -0.2457
    124  OE2       37.2200   35.6490    7.3560 O.co2  90  GLU90      -0.2457
    125  N         35.8690   41.0070    7.6690 N.3    93  ASP93      -0.1239
    126  CA        36.7020   42.1650    7.9350 C.3    93  ASP93       0.1674
    127  C         35.9250   43.4520    7.6960 C.2    93  ASP93       0.2266
    128  O         35.8710   44.3220    8.5700 O.2    93  ASP93      -0.2867
    129  CB        37.9560   42.1350    7.0450 C.3    93  ASP93       0.1410
    130  CG        38.9160   40.9910    7.4090 C.2    93  ASP93       0.3668
    131  OD1       38.8110   40.4650    8.5530 O.co2  93  ASP93      -0.2456
    132  OD2       39.7710   40.6310    6.5500 O.co2  93  ASP93      -0.2456
    133  N         34.3110   33.0060    6.2630 N.3   133  GLU133     -0.1245
    134  CA        35.5360   33.0030    5.4670 C.3   133  GLU133      0.1567
    135  C         35.3120   32.6740    3.9840 C.2   133  GLU133      0.2260
    136  O         36.1930   32.8590    3.1600 O.2   133  GLU133     -0.2867
    137  CB        36.5810   32.0520    6.0770 C.3   133  GLU133      0.0388
    138  CG        36.4440   30.5910    5.6490 C.3   133  GLU133      0.1160
    139  CD        37.4870   29.6680    6.2930 C.2   133  GLU133      0.3649
    140  OE1       38.3470   30.1520    7.0640 O.co2 133  GLU133     -0.2457
    141  OE2       37.4430   28.4430    6.0280 O.co2 133  GLU133     -0.2457
    142  N         34.4910   36.5800    0.0570 N.3   136  LEU136     -0.1245
    143  CA        35.5560   37.5400   -0.1860 C.3   136  LEU136      0.1561
    144  C         35.0630   38.6380   -1.1050 C.2   136  LEU136      0.2260
    145  O         33.9540   38.5430   -1.6570 O.2   136  LEU136     -0.2867
    146  CB        36.7650   36.8650   -0.8190 C.3   136  LEU136      0.0270
    147  CG        37.3280   35.6640   -0.0650 C.3   136  LEU136      0.0019
    148  CD1       38.6500   35.2000   -0.7040 C.3   136  LEU136      0.0001
    149  CD2       37.5060   35.9790    1.4250 C.3   136  LEU136      0.0001
    150  N         34.6380   31.6430   -2.1420 N.3   146  ALA146     -0.1231
    151  CA        35.9510   31.0260   -2.1390 C.3   146  ALA146      0.1694
    152  C         36.0240   29.7860   -1.2690 C.2   146  ALA146      0.2592
    153  O         35.3970   29.7160   -0.2140 O.2   146  ALA146     -0.2718
    154  CB        36.9720   32.0210   -1.6790 C.3   146  ALA146      0.0304
    155  N         36.8140   28.8200   -1.7290 N.am  147  ASP147     -0.1974
    156  CA        37.1660   27.6210   -0.9660 C.3   147  ASP147      0.1709
    157  C         36.0660   26.5670   -0.9290 C.2   147  ASP147      0.2293
    158  O         35.1530   26.6260   -0.1100 O.2   147  ASP147     -0.2864
    159  CB        37.6250   27.9660    0.4570 C.3   147  ASP147      0.1436
    160  CG        37.9900   26.7320    1.2590 C.2   147  ASP147      0.3671
    161  OD1       38.1310   25.6540    0.6330 O.co2 147  ASP147     -0.2456
    162  OD2       38.1440   26.8300    2.5020 O.co2 147  ASP147     -0.2456
    163  N         38.8960   24.0330    4.3470 N.3   151  SER151     -0.1217
    164  CA        40.2250   24.2860    4.9240 C.3   151  SER151      0.1889
    165  C         40.4010   25.7020    5.4950 C.2   151  SER151      0.2288
    166  O         40.3970   25.9100    6.7170 O.2   151  SER151     -0.2866
    167  CB        41.3120   23.9830    3.8850 C.3   151  SER151      0.2089
    168  OG        40.7950   24.0790    2.5610 O.3   151  SER151     -0.2183
@<TRIPOS>BOND
     1    84    82   ar
     2    83    82   ar
     3    82    81    1
     4    81    80    1
     5    80    77    1
     6    76    77    1
     7    76    70   am
     8    77    78    1
     9    69    70    1
    10    69    68    1
    11    69    72    1
    12    70    71    2
    13    63    64    2
    14    63    62    1
    15    72    73    1
    16    78    85   am
    17    78    79    2
    18    62    61    1
    19    62    65    1
    20    85    86    1
    21    38    39    1
    22    55    54    2
    23    75    74    1
    24    88    87    2
    25    41    40    2
    26    73    74    1
    27    65    67    1
    28    65    66    1
    29    89    86    1
    30    89    90    1
    31    86    87    1
    32    54    53    1
    33    87    97   am
    34    40    39    1
    35    39    42    1
    36    92    90   ar
    37    92    94   ar
    38    90    91   ar
    39    97    98    1
    40    53    52    1
    41    53    56    1
    42   107   106    1
    43    98   101    1
    44    98    99    1
    45    43    44    1
    46    46    45    2
    47   106   103    1
    48    94    95   ar
    49    57    56    1
    50    57    58    1
    51   102    99   am
    52   102   103    1
    53    91    93   ar
    54    99   100    2
    55    45    44    1
    56   103   104    1
    57    44    47    1
    58    47    48    1
    59    58    60   ar
    60    58    59   ar
    61    95    93   ar
    62    95    96    1
    63   150   151    1
    64   151   154    1
    65   151   152    1
    66   108   104   am
    67   108   109    1
    68   104   105    2
    69    49    48    1
    70    49    50    1
    71   155   152   am
    72   155   156    1
    73   145   144    2
    74   152   153    2
    75    36    35    1
    76   144   143    1
    77     8     6    1
    78   109   110    1
    79   156   157    1
    80   156   159    1
    81   157   158    2
    82   146   143    1
    83   146   147    1
    84   148   147    1
    85    51    50    1
    86   143   142    1
    87   147   149    1
    88    33    32    1
    89    33    34    2
    90    32    35    1
    91    32    31    1
    92    35    37    1
    93   112   110   am
    94   112   113    1
    95     7     5    1
    96   110   111    2
    97     6     5    1
    98   159   160    1
    99   161   160   ar
   100   115   114    2
   101     5     2    1
   102   160   162   ar
   103   113   114    1
   104   114   116   am
   105     1     2    1
   106    30    27    1
   107     2     3    1
   108   168   167    1
   109    27    28    1
   110    27    26    1
   111   116   117    1
   112     3     4    2
   113     3     9   am
   114   136   135    2
   115    28    29    2
   116     9    10    1
   117   117   118    1
   118   117   120    1
   119    12    11    2
   120   167   164    1
   121   135   134    1
   122   118   119    2
   123    10    11    1
   124   163   164    1
   125    11    13   am
   126   164   165    1
   127   120   121    1
   128   121   122    1
   129   134   137    1
   130   134   133    1
   131   165   166    2
   132   138   137    1
   133   138   139    1
   134    13    14    1
   135   123   122   ar
   136   141   139   ar
   137    14    15    1
   138    14    17    1
   139   139   140   ar
   140   122   124   ar
   141    22    15   am
   142    22    23    1
   143   132   130   ar
   144    18    17    1
   145    18    19    1
   146    15    16    2
   147    23    24    1
   148   129   130    1
   149   129   126    1
   150    21    20    1
   151   130   131   ar
   152    25    24    2
   153   125   126    1
   154   127   126    1
   155   127   128    2
   156    19    20    1
