@<TRIPOS>MOLECULE
tmp/5ealA00.pdb
 172 164 0 0 0
SMALL
GASTEIGER

@<TRIPOS>ATOM
      1  N        -13.8660   -6.7230    6.1060 N.3    17  ALA17      -0.1245
      2  CA       -12.9550   -5.5660    6.0090 C.3    17  ALA17       0.1562
      3  C        -12.1340   -5.6040    4.7090 C.2    17  ALA17       0.2260
      4  O        -11.6280   -6.6550    4.3270 O.2    17  ALA17      -0.2867
      5  CB       -12.0280   -5.5480    7.2210 C.3    17  ALA17       0.0290
      6  N         -8.7430   -4.4790    2.8530 N.3    19  SER19      -0.1202
      7  CA        -7.3740   -4.1830    3.2900 C.3    19  SER19       0.2020
      8  C         -6.5420   -3.3290    2.3310 C.2    19  SER19       0.2619
      9  O         -5.6530   -2.6020    2.7840 O.2    19  SER19      -0.2717
     10  CB        -6.6090   -5.4760    3.5290 C.3    19  SER19       0.2103
     11  OG        -6.6480   -6.2990    2.3650 O.3    19  SER19      -0.2182
     12  N         -6.7710   -3.4710    1.0230 N.am   20  SER20      -0.1951
     13  CA        -5.8920   -2.8280    0.0260 C.3    20  SER20       0.1924
     14  C         -6.6130   -2.6290   -1.2790 C.2    20  SER20       0.2314
     15  O         -7.3340   -3.5170   -1.7390 O.2    20  SER20      -0.2863
     16  CB        -4.6240   -3.6530   -0.2070 C.3    20  SER20       0.2116
     17  OG        -3.5590   -2.8610   -0.6960 O.3    20  SER20      -0.2180
     18  N        -10.3630   -9.2230    4.0790 N.3    35  ALA35      -0.1245
     19  CA       -10.4790  -10.3010    5.0840 C.3    35  ALA35       0.1562
     20  C        -11.3650  -11.4510    4.6050 C.2    35  ALA35       0.2260
     21  O        -11.2090  -12.5710    5.1030 O.2    35  ALA35      -0.2867
     22  CB       -10.9740   -9.7710    6.4310 C.3    35  ALA35       0.0290
     23  N         -7.5370  -14.5260    5.3110 N.3    59  GLY59      -0.1210
     24  CA        -7.6310  -13.1220    4.8960 C.3    59  GLY59       0.1956
     25  C         -6.4140  -12.6460    4.1200 C.2    59  GLY59       0.2612
     26  O         -5.3210  -13.2120    4.2910 O.2    59  GLY59      -0.2717
     27  N         -6.6170  -11.6090    3.2900 N.am   60  ILE60      -0.1965
     28  CA        -5.5740  -11.0270    2.4130 C.3    60  ILE60       0.1727
     29  C         -5.3190   -9.5730    2.8380 C.2    60  ILE60       0.2617
     30  O         -6.2480   -8.7640    2.8330 O.2    60  ILE60      -0.2715
     31  CB        -5.9720  -11.0540    0.9120 C.3    60  ILE60       0.0290
     32  CG1       -6.3270  -12.4820    0.4480 C.3    60  ILE60       0.0022
     33  CG2       -4.8470  -10.5050    0.0420 C.3    60  ILE60       0.0023
     34  CD1       -6.9250  -12.5540   -0.9610 C.3    60  ILE60       0.0001
     35  N         -4.0650   -9.2620    3.1720 N.am   61  SER61      -0.1936
     36  CA        -3.6730   -7.9140    3.6330 C.3    61  SER61       0.2055
     37  C         -3.2780   -6.9810    2.5060 C.2    61  SER61       0.2643
     38  O         -3.3570   -5.7650    2.6650 O.2    61  SER61      -0.2714
     39  CB        -2.4920   -7.9730    4.5940 C.3    61  SER61       0.2130
     40  OG        -2.8990   -8.3110    5.9050 O.3    61  SER61      -0.2179
     41  N         -2.8110   -7.5410    1.3850 N.am   62  ASP62      -0.1971
     42  CA        -2.2820   -6.7020    0.2960 C.3    62  ASP62       0.1709
     43  C         -2.3530   -7.3590   -1.0760 C.2    62  ASP62       0.2293
     44  O         -2.3930   -8.5920   -1.2020 O.2    62  ASP62      -0.2864
     45  CB        -0.8270   -6.3220    0.6400 C.3    62  ASP62       0.1436
     46  CG        -0.3810   -4.9940    0.0290 C.2    62  ASP62       0.3671
     47  OD1       -1.1840   -4.2330   -0.5630 O.co2  62  ASP62      -0.2456
     48  OD2        0.8190   -4.7170    0.1530 O.co2  62  ASP62      -0.2456
     49  N         -2.7470  -14.0020    5.3360 N.3    77  ASP77      -0.1239
     50  CA        -2.5940  -14.6160    6.6780 C.3    77  ASP77       0.1674
     51  C         -2.2900  -16.1120    6.6280 C.2    77  ASP77       0.2266
     52  O         -1.8300  -16.6840    7.6190 O.2    77  ASP77      -0.2867
     53  CB        -3.8750  -14.4300    7.4790 C.3    77  ASP77       0.1410
     54  CG        -4.0630  -13.0240    7.9880 C.2    77  ASP77       0.3668
     55  OD1       -3.1660  -12.1730    7.8630 O.co2  77  ASP77      -0.2456
     56  OD2       -5.1600  -12.7770    8.5230 O.co2  77  ASP77      -0.2456
     57  N          1.9900  -14.7530    9.0070 N.3   101  TYR101     -0.1241
     58  CA         1.1800  -13.8850    8.1400 C.3   101  TYR101      0.1605
     59  C          2.0400  -12.9910    7.2630 C.2   101  TYR101      0.2264
     60  O          3.0390  -12.4390    7.7410 O.2   101  TYR101     -0.2867
     61  CB         0.2520  -12.9740    8.9510 C.3   101  TYR101      0.0534
     62  CG        -0.3080  -13.5360   10.2380 C.ar  101  TYR101     -0.0201
     63  CD1       -1.3840  -14.4420   10.2320 C.ar  101  TYR101     -0.0009
     64  CD2        0.2120  -13.1320   11.4650 C.ar  101  TYR101     -0.0009
     65  CE1       -1.9200  -14.9260   11.4270 C.ar  101  TYR101      0.0417
     66  CE2       -0.3170  -13.6040   12.6680 C.ar  101  TYR101      0.0417
     67  CZ        -1.3630  -14.5120   12.6430 C.ar  101  TYR101      0.1957
     68  OH        -1.8640  -14.9780   13.8410 O.3   101  TYR101     -0.2866
     69  N          1.9730   -9.6360    5.1180 N.3   103  PHE103     -0.1227
     70  CA         1.2130   -8.3820    5.2260 C.3   103  PHE103      0.1736
     71  C          1.3350   -7.4400    4.0460 C.2   103  PHE103      0.2595
     72  O          0.4550   -6.5990    3.8370 O.2   103  PHE103     -0.2718
     73  CB         1.6140   -7.6120    6.4820 C.3   103  PHE103      0.0547
     74  CG         1.2340   -8.2780    7.7740 C.ar  103  PHE103     -0.0202
     75  CD1       -0.0100   -8.9180    7.9430 C.ar  103  PHE103     -0.0042
     76  CD2        2.1370   -8.2500    8.8520 C.ar  103  PHE103     -0.0042
     77  CE1       -0.3380   -9.5200    9.1620 C.ar  103  PHE103     -0.0003
     78  CE2        1.8050   -8.8320   10.0660 C.ar  103  PHE103     -0.0003
     79  CZ         0.5800   -9.4730   10.2140 C.ar  103  PHE103     -0.0000
     80  N          2.4160   -7.5620    3.2800 N.am  104  CYS104     -0.1970
     81  CA         2.6840   -6.6000    2.2190 C.3   104  CYS104      0.1712
     82  C          3.4850   -7.2050    1.0890 C.2   104  CYS104      0.2296
     83  O          4.2770   -8.1030    1.3150 O.2   104  CYS104     -0.2864
     84  CB         3.4160   -5.3810    2.7900 C.3   104  CYS104      0.0983
     85  SG         4.8330   -5.7760    3.8700 S.3   104  CYS104     -0.0798
     86  N          4.7860  -10.7910    9.3480 N.3   119  PHE119     -0.1241
     87  CA         4.7900  -10.9070   10.8070 C.3   119  PHE119      0.1605
     88  C          6.0870  -11.5790   11.3060 C.2   119  PHE119      0.2264
     89  O          6.6010  -11.2050   12.3740 O.2   119  PHE119     -0.2867
     90  CB         3.5580  -11.7210   11.2310 C.3   119  PHE119      0.0534
     91  CG         3.3520  -11.8240   12.7270 C.ar  119  PHE119     -0.0203
     92  CD1        3.9810  -12.8460   13.4680 C.ar  119  PHE119     -0.0042
     93  CD2        2.5070  -10.9360   13.3870 C.ar  119  PHE119     -0.0042
     94  CE1        3.7850  -12.9570   14.8510 C.ar  119  PHE119     -0.0003
     95  CE2        2.2930  -11.0460   14.7570 C.ar  119  PHE119     -0.0003
     96  CZ         2.9350  -12.0490   15.4880 C.ar  119  PHE119     -0.0000
     97  N          7.0300   -7.3280   13.3090 N.3   143  PRO143     -0.2116
     98  CA         6.3370   -7.4240   12.0180 C.3   143  PRO143      0.1372
     99  C          6.6670   -6.3130   11.0130 C.2   143  PRO143      0.2244
    100  O          6.7840   -5.1410   11.3840 O.2   143  PRO143     -0.2868
    101  CB         4.8670   -7.3900   12.4290 C.3   143  PRO143      0.0268
    102  CG         4.8840   -8.1580   13.7180 C.3   143  PRO143      0.0207
    103  CD         6.1040   -7.6310   14.4240 C.3   143  PRO143      0.0892
    104  N          5.6140   -3.9680    8.0800 N.3   145  SER145     -0.1217
    105  CA         4.3290   -3.3390    7.6820 C.3   145  SER145      0.1889
    106  C          4.2240   -2.9980    6.2030 C.2   145  SER145      0.2288
    107  O          3.1300   -3.0160    5.6700 O.2   145  SER145     -0.2866
    108  CB         4.0460   -2.0850    8.4900 C.3   145  SER145      0.2089
    109  OG         5.1660   -1.2320    8.4530 O.3   145  SER145     -0.2183
    110  N          7.1970   -2.5220   12.8460 N.3   161  TYR161     -0.1241
    111  CA         6.8150   -2.1670   14.2060 C.3   161  TYR161      0.1605
    112  C          8.0300   -2.0210   15.1520 C.2   161  TYR161      0.2264
    113  O          7.8670   -1.5340   16.2520 O.2   161  TYR161     -0.2867
    114  CB         5.8210   -3.2000   14.7530 C.3   161  TYR161      0.0534
    115  CG         4.3750   -2.9020   14.4030 C.ar  161  TYR161     -0.0201
    116  CD1        3.9270   -2.9520   13.0620 C.ar  161  TYR161     -0.0009
    117  CD2        3.4480   -2.5470   15.4020 C.ar  161  TYR161     -0.0009
    118  CE1        2.6000   -2.6750   12.7320 C.ar  161  TYR161      0.0417
    119  CE2        2.1100   -2.2620   15.0770 C.ar  161  TYR161      0.0417
    120  CZ         1.6980   -2.3200   13.7440 C.ar  161  TYR161      0.1957
    121  OH         0.3780   -2.0620   13.3930 O.3   161  TYR161     -0.2866
    122  N         -3.8530    1.2260   13.0870 N.3   230  TYR230     -0.1227
    123  CA        -3.8790    0.4570   11.8310 C.3   230  TYR230      0.1736
    124  C         -2.7610    0.8520   10.8680 C.2   230  TYR230      0.2595
    125  O         -2.3020    2.0040   10.8600 O.2   230  TYR230     -0.2718
    126  CB        -5.2550    0.5680   11.1700 C.3   230  TYR230      0.0548
    127  CG        -6.3490   -0.1140   11.9660 C.ar  230  TYR230     -0.0200
    128  CD1       -6.5400   -1.5010   11.8780 C.ar  230  TYR230     -0.0009
    129  CD2       -7.1960    0.6220   12.8160 C.ar  230  TYR230     -0.0009
    130  CE1       -7.5360   -2.1430   12.6050 C.ar  230  TYR230      0.0417
    131  CE2       -8.1950   -0.0140   13.5470 C.ar  230  TYR230      0.0417
    132  CZ        -8.3570   -1.3880   13.4370 C.ar  230  TYR230      0.1957
    133  OH        -9.3380   -2.0320   14.1560 O.3   230  TYR230     -0.2866
    134  N         -2.3130   -0.1120   10.0700 N.am  231  CYS231     -0.1970
    135  CA        -1.3080    0.1500    9.0620 C.3   231  CYS231      0.1712
    136  C         -2.0390    0.7390    7.8530 C.2   231  CYS231      0.2296
    137  O         -2.5390    0.0050    6.9920 O.2   231  CYS231     -0.2864
    138  CB        -0.5050   -1.1350    8.7330 C.3   231  CYS231      0.0983
    139  SG         0.6460   -1.5120   10.0900 S.3   231  CYS231     -0.0798
    140  N         -2.2980    2.9250    4.4960 N.3   233  PHE233     -0.1241
    141  CA        -1.5350    3.1690    3.3010 C.3   233  PHE233      0.1605
    142  C         -1.7110    4.6180    2.8490 C.2   233  PHE233      0.2264
    143  O         -2.8330    5.1630    2.8420 O.2   233  PHE233     -0.2867
    144  CB        -1.9980    2.1910    2.2100 C.3   233  PHE233      0.0534
    145  CG        -0.9560    1.8860    1.1740 C.ar  233  PHE233     -0.0203
    146  CD1       -0.7820    2.7250    0.0740 C.ar  233  PHE233     -0.0042
    147  CD2       -0.1680    0.7290    1.2770 C.ar  233  PHE233     -0.0042
    148  CE1        0.1770    2.4290   -0.8920 C.ar  233  PHE233     -0.0003
    149  CE2        0.7870    0.4260    0.3060 C.ar  233  PHE233     -0.0003
    150  CZ         0.9570    1.2820   -0.7770 C.ar  233  PHE233     -0.0000
    151  N         -8.3810    2.3070    5.6380 N.3   275  ILE275     -0.1231
    152  CA        -7.0770    1.6600    5.8150 C.3   275  ILE275      0.1692
    153  C         -6.2340    1.7470    4.5470 C.2   275  ILE275      0.2592
    154  O         -5.0070    1.6860    4.6110 O.2   275  ILE275     -0.2718
    155  CB        -7.2240    0.2010    6.3010 C.3   275  ILE275      0.0266
    156  CG1       -5.8910   -0.2890    6.9250 C.3   275  ILE275      0.0019
    157  CG2       -7.7720   -0.6720    5.1620 C.3   275  ILE275      0.0020
    158  CD1       -5.9950   -1.3600    8.0030 C.3   275  ILE275      0.0001
    159  N         -6.8900    1.9240    3.4010 N.am  276  SER276     -0.1952
    160  CA        -6.1730    1.9630    2.1270 C.3   276  SER276      0.1924
    161  C         -6.6260    3.1200    1.2420 C.2   276  SER276      0.2314
    162  O         -7.8180    3.4080    1.1610 O.2   276  SER276     -0.2863
    163  CB        -6.3690    0.6520    1.3660 C.3   276  SER276      0.2116
    164  OG        -5.5830    0.6540    0.1830 O.3   276  SER276     -0.2180
    165  N        -12.7690   -0.5550    6.7330 N.3   291  LEU291     -0.1245
    166  CA       -12.8300   -1.7810    7.5270 C.3   291  LEU291      0.1561
    167  C        -14.2700   -2.2860    7.7590 C.2   291  LEU291      0.2260
    168  O        -15.2060   -1.7800    7.1360 O.2   291  LEU291     -0.2867
    169  CB       -12.0060   -1.6090    8.8270 C.3   291  LEU291      0.0270
    170  CG       -10.5010   -1.2940    8.6700 C.3   291  LEU291      0.0019
    171  CD1       -9.8130   -1.2070   10.0380 C.3   291  LEU291      0.0001
    172  CD2       -9.7750   -2.2980    7.7700 C.3   291  LEU291      0.0001
@<TRIPOS>BOND
     1    15    14    2
     2    14    13    1
     3    44    43    2
     4    43    42    1
     5    34    32    1
     6   148   150   ar
     7   148   146   ar
     8   150   149   ar
     9    17    16    1
    10    47    46   ar
    11    16    13    1
    12    13    12    1
    13    46    48   ar
    14    46    45    1
    15    33    31    1
    16   146   145   ar
    17   164   163    1
    18    42    45    1
    19    42    41    1
    20   149   147   ar
    21    32    31    1
    22    31    28    1
    23    12     8   am
    24    82    83    2
    25    82    81    1
    26   162   161    2
    27   145   147   ar
    28   145   144    1
    29   161   160    1
    30   163   160    1
    31    41    37   am
    32   160   159    1
    33   144   141    1
    34    81    84    1
    35    81    80    1
    36     8     9    2
    37     8     7    1
    38    11    10    1
    39    28    29    1
    40    28    27    1
    41    37    38    2
    42    37    36    1
    43    84    85    1
    44    30    29    2
    45    29    35   am
    46   143   142    2
    47   142   141    1
    48     6     7    1
    49    35    36    1
    50    80    71   am
    51    27    25   am
    52     7    10    1
    53   141   140    1
    54   159   153   am
    55    36    39    1
    56    72    71    2
    57    71    70    1
    58    18    19    1
    59    25    26    2
    60    25    24    1
    61     4     3    2
    62   153   154    2
    63   153   152    1
    64    39    40    1
    65    20    19    1
    66    20    21    2
    67     3     2    1
    68    24    23    1
    69    19    22    1
    70    69    70    1
    71   157   155    1
    72    70    73    1
    73    49    50    1
    74   151   152    1
    75   107   106    2
    76   152   155    1
    77     2     1    1
    78     2     5    1
    79   106   105    1
    80   155   156    1
    81    73    74    1
    82    51    50    1
    83    51    52    2
    84    50    53    1
    85   165   166    1
    86   156   158    1
    87   137   136    2
    88   168   167    2
    89    59    60    2
    90    59    58    1
    91    53    54    1
    92   166   167    1
    93   166   169    1
    94   105   104    1
    95   105   108    1
    96   172   170    1
    97    74    75   ar
    98    74    76   ar
    99   136   135    1
   100    55    54   ar
   101    75    77   ar
   102    54    56   ar
   103    58    61    1
   104    58    57    1
   105   109   108    1
   106   170   169    1
   107   170   171    1
   108   138   135    1
   109   138   139    1
   110    76    78   ar
   111    61    62    1
   112   135   134    1
   113    77    79   ar
   114    86    87    1
   115    78    79   ar
   116   134   124   am
   117    63    62   ar
   118    63    65   ar
   119    62    64   ar
   120    87    90    1
   121    87    88    1
   122   125   124    2
   123   124   123    1
   124    99   100    2
   125    99    98    1
   126   126   123    1
   127   126   127    1
   128    90    91    1
   129    88    89    2
   130    65    67   ar
   131    64    66   ar
   132   123   122    1
   133   128   127   ar
   134   128   130   ar
   135   127   129   ar
   136    98   101    1
   137    98    97    1
   138   101   102    1
   139   130   132   ar
   140    67    66   ar
   141    67    68    1
   142    91    93   ar
   143    91    92   ar
   144   118   116   ar
   145   118   120   ar
   146   129   131   ar
   147   110   111    1
   148   116   115   ar
   149    97   103    1
   150    93    95   ar
   151   121   120    1
   152   132   131   ar
   153   132   133    1
   154    92    94   ar
   155   102   103    1
   156   120   119   ar
   157   111   114    1
   158   111   112    1
   159   115   114    1
   160   115   117   ar
   161    95    96   ar
   162    94    96   ar
   163   119   117   ar
   164   112   113    2
