@<TRIPOS>MOLECULE
tmp/5earA00.pdb
 172 164 0 0 0
SMALL
GASTEIGER

@<TRIPOS>ATOM
      1  N        -13.9000    5.9480   -6.5820 N.3    17  ALA17      -0.1245
      2  CA       -13.0080    4.7970   -6.3130 C.3    17  ALA17       0.1562
      3  C        -12.2050    4.9980   -5.0110 C.2    17  ALA17       0.2260
      4  O        -11.7000    6.0950   -4.7470 O.2    17  ALA17      -0.2867
      5  CB       -12.0500    4.5810   -7.4840 C.3    17  ALA17       0.0290
      6  N         -8.8270    4.0750   -3.0780 N.3    19  SER19      -0.1202
      7  CA        -7.4630    3.6990   -3.5300 C.3    19  SER19       0.2020
      8  C         -6.6150    2.9230   -2.5180 C.2    19  SER19       0.2619
      9  O         -5.7110    2.1610   -2.9060 O.2    19  SER19      -0.2717
     10  CB        -6.6880    4.9540   -3.9180 C.3    19  SER19       0.2103
     11  OG        -6.7050    5.8560   -2.8230 O.3    19  SER19      -0.2182
     12  N         -6.8510    3.1460   -1.2280 N.am   20  SER20      -0.1951
     13  CA        -5.9300    2.6180   -0.2200 C.3    20  SER20       0.1924
     14  C         -6.6470    2.5820    1.1050 C.2    20  SER20       0.2314
     15  O         -7.3640    3.5230    1.4450 O.2    20  SER20      -0.2863
     16  CB        -4.6830    3.5140   -0.1150 C.3    20  SER20       0.2116
     17  OG        -3.5950    2.8610    0.5080 O.3    20  SER20      -0.2180
     18  N        -10.3940    8.7180   -4.8450 N.3    35  ALA35      -0.1245
     19  CA       -10.4740    9.6580   -5.9650 C.3    35  ALA35       0.1562
     20  C        -11.3860   10.8550   -5.6330 C.2    35  ALA35       0.2260
     21  O        -11.2750   11.8970   -6.2710 O.2    35  ALA35      -0.2867
     22  CB       -10.9430    8.9440   -7.2250 C.3    35  ALA35       0.0290
     23  N         -7.6580   13.7930   -6.5230 N.3    59  GLY59      -0.1210
     24  CA        -7.7620   12.4740   -5.9000 C.3    59  GLY59       0.1956
     25  C         -6.4930   12.0630   -5.1990 C.2    59  GLY59       0.2612
     26  O         -5.3930   12.5630   -5.5060 O.2    59  GLY59      -0.2717
     27  N         -6.6620   11.1530   -4.2440 N.am   60  ILE60      -0.1965
     28  CA        -5.5850   10.6710   -3.3720 C.3    60  ILE60       0.1727
     29  C         -5.3720    9.1750   -3.6450 C.2    60  ILE60       0.2617
     30  O         -6.3290    8.3940   -3.5640 O.2    60  ILE60      -0.2715
     31  CB        -5.9790   10.8630   -1.8850 C.3    60  ILE60       0.0290
     32  CG1       -6.3130   12.3380   -1.5880 C.3    60  ILE60       0.0022
     33  CG2       -4.8390   10.3770   -0.9590 C.3    60  ILE60       0.0023
     34  CD1       -7.0590   12.5430   -0.2880 C.3    60  ILE60       0.0001
     35  N         -4.1330    8.7810   -3.9880 N.am   61  SER61      -0.1936
     36  CA        -3.8140    7.3690   -4.2470 C.3    61  SER61       0.2055
     37  C         -3.4040    6.6000   -2.9880 C.2    61  SER61       0.2643
     38  O         -3.4790    5.3800   -2.9660 O.2    61  SER61      -0.2714
     39  CB        -2.6520    7.2600   -5.2480 C.3    61  SER61       0.2130
     40  OG        -3.0340    7.6420   -6.5490 O.3    61  SER61      -0.2179
     41  N         -2.9180    7.2890   -1.9500 N.am   62  ASP62      -0.1971
     42  CA        -2.3440    6.5490   -0.8070 C.3    62  ASP62       0.1709
     43  C         -2.4080    7.3460    0.4720 C.2    62  ASP62       0.2293
     44  O         -2.4260    8.5760    0.4390 O.2    62  ASP62      -0.2864
     45  CB        -0.8850    6.1660   -1.1090 C.3    62  ASP62       0.1436
     46  CG        -0.4040    4.8870   -0.3710 C.2    62  ASP62       0.3671
     47  OD1       -1.1890    4.1610    0.2960 O.co2  62  ASP62      -0.2456
     48  OD2        0.8130    4.6200   -0.4630 O.co2  62  ASP62      -0.2456
     49  N         -2.8690   13.3410   -6.5470 N.3    77  ASP77      -0.1239
     50  CA        -2.7650   13.8390   -7.9210 C.3    77  ASP77       0.1674
     51  C         -2.4940   15.3530   -7.9750 C.2    77  ASP77       0.2266
     52  O         -2.0040   15.8550   -8.9950 O.2    77  ASP77      -0.2867
     53  CB        -4.0620   13.5310   -8.6990 C.3    77  ASP77       0.1410
     54  CG        -4.1420   12.0880   -9.1930 C.2    77  ASP77       0.3668
     55  OD1       -3.2890   11.2260   -8.8740 O.co2  77  ASP77      -0.2456
     56  OD2       -5.1020   11.8020   -9.9250 O.co2  77  ASP77      -0.2456
     57  N          1.7670   13.5630  -10.4760 N.3   101  TYR101     -0.1241
     58  CA         0.9520   12.8590   -9.4750 C.3   101  TYR101      0.1605
     59  C          1.8190   12.1390   -8.4520 C.2   101  TYR101      0.2264
     60  O          2.7830   11.4780   -8.8390 O.2   101  TYR101     -0.2867
     61  CB         0.0880   11.7930  -10.1390 C.3   101  TYR101      0.0534
     62  CG        -0.7300   12.2550  -11.3390 C.ar  101  TYR101     -0.0201
     63  CD1       -1.3920   13.4820  -11.3350 C.ar  101  TYR101     -0.0009
     64  CD2       -0.8370   11.4400  -12.4710 C.ar  101  TYR101     -0.0009
     65  CE1       -2.1590   13.8930  -12.4300 C.ar  101  TYR101      0.0417
     66  CE2       -1.6060   11.8350  -13.5730 C.ar  101  TYR101      0.0417
     67  CZ        -2.2590   13.0680  -13.5380 C.ar  101  TYR101      0.1957
     68  OH        -3.0230   13.4760  -14.6140 O.3   101  TYR101     -0.2866
     69  N          1.8930    9.0290   -5.9790 N.3   103  PHE103     -0.1227
     70  CA         1.1460    7.7600   -5.9490 C.3   103  PHE103      0.1736
     71  C          1.2440    6.9710   -4.6510 C.2   103  PHE103      0.2595
     72  O          0.3490    6.1780   -4.3370 O.2   103  PHE103     -0.2718
     73  CB         1.5960    6.8340   -7.0840 C.3   103  PHE103      0.0547
     74  CG         1.1920    7.3020   -8.4560 C.ar  103  PHE103     -0.0202
     75  CD1       -0.0790    7.8340   -8.6910 C.ar  103  PHE103     -0.0042
     76  CD2        2.0750    7.1700   -9.5280 C.ar  103  PHE103     -0.0042
     77  CE1       -0.4590    8.2600   -9.9710 C.ar  103  PHE103     -0.0003
     78  CE2        1.6980    7.5900  -10.8100 C.ar  103  PHE103     -0.0003
     79  CZ         0.4430    8.1440  -11.0250 C.ar  103  PHE103     -0.0000
     80  N          2.3640    7.1130   -3.9450 N.am  104  CYS104     -0.1970
     81  CA         2.6330    6.2570   -2.7950 C.3   104  CYS104      0.1712
     82  C          3.4150    6.9870   -1.7290 C.2   104  CYS104      0.2296
     83  O          4.2010    7.8950   -2.0360 O.2   104  CYS104     -0.2864
     84  CB         3.3640    4.9730   -3.2250 C.3   104  CYS104      0.0983
     85  SG         4.7480    5.2690   -4.3730 S.3   104  CYS104     -0.0798
     86  N          4.5270    9.7050  -10.3440 N.3   119  PHE119     -0.1241
     87  CA         4.5340    9.6440  -11.8030 C.3   119  PHE119      0.1605
     88  C          5.7930   10.3000  -12.3770 C.2   119  PHE119      0.2264
     89  O          6.2540    9.9050  -13.4510 O.2   119  PHE119     -0.2867
     90  CB         3.2960   10.3640  -12.3390 C.3   119  PHE119      0.0534
     91  CG         3.0610   10.1450  -13.8010 C.ar  119  PHE119     -0.0203
     92  CD1        2.2780    9.0660  -14.2400 C.ar  119  PHE119     -0.0042
     93  CD2        3.5970   11.0260  -14.7510 C.ar  119  PHE119     -0.0042
     94  CE1        2.0660    8.8560  -15.6030 C.ar  119  PHE119     -0.0003
     95  CE2        3.3680   10.8220  -16.1140 C.ar  119  PHE119     -0.0003
     96  CZ         2.6140    9.7360  -16.5310 C.ar  119  PHE119     -0.0000
     97  N          6.8390    5.7360  -14.0130 N.3   143  PRO143     -0.2116
     98  CA         6.1240    5.9880  -12.7600 C.3   143  PRO143      0.1372
     99  C          6.4850    5.0430  -11.6060 C.2   143  PRO143      0.2244
    100  O          6.6520    3.8340  -11.8130 O.2   143  PRO143     -0.2868
    101  CB         4.6430    5.8400  -13.1730 C.3   143  PRO143      0.0268
    102  CG         4.6440    6.4080  -14.5610 C.3   143  PRO143      0.0207
    103  CD         5.9440    5.9110  -15.1800 C.3   143  PRO143      0.0892
    104  N          5.4580    3.0880   -8.4360 N.3   145  SER145     -0.1217
    105  CA         4.2110    2.4920   -7.9820 C.3   145  SER145      0.1889
    106  C          4.1040    2.2850   -6.4580 C.2   145  SER145      0.2288
    107  O          2.9880    2.2730   -5.9250 O.2   145  SER145     -0.2866
    108  CB         3.9500    1.1650   -8.7110 C.3   145  SER145      0.2089
    109  OG         5.0880    0.3150   -8.6340 O.3   145  SER145     -0.2183
    110  N          7.0540    1.0670  -13.0360 N.3   161  TYR161     -0.1241
    111  CA         6.6760    0.6550  -14.3940 C.3   161  TYR161      0.1605
    112  C          7.8500    0.3920  -15.3160 C.2   161  TYR161      0.2264
    113  O          7.6800   -0.2800  -16.3490 O.2   161  TYR161     -0.2867
    114  CB         5.7340    1.6870  -15.0170 C.3   161  TYR161      0.0534
    115  CG         4.2740    1.4370  -14.6730 C.ar  161  TYR161     -0.0201
    116  CD1        3.8240    1.4880  -13.3420 C.ar  161  TYR161     -0.0009
    117  CD2        3.3410    1.1500  -15.6710 C.ar  161  TYR161     -0.0009
    118  CE1        2.4900    1.2540  -13.0250 C.ar  161  TYR161      0.0417
    119  CE2        1.9980    0.9250  -15.3590 C.ar  161  TYR161      0.0417
    120  CZ         1.5810    0.9870  -14.0360 C.ar  161  TYR161      0.1957
    121  OH         0.2610    0.7580  -13.7080 O.3   161  TYR161     -0.2866
    122  N         -3.9560   -2.5480  -12.7590 N.3   227  TYR227     -0.1227
    123  CA        -3.9130   -1.6350  -11.6070 C.3   227  TYR227      0.1736
    124  C         -2.8060   -1.9610  -10.6530 C.2   227  TYR227      0.2595
    125  O         -2.4180   -3.1160  -10.5250 O.2   227  TYR227     -0.2718
    126  CB        -5.2410   -1.6540  -10.8450 C.3   227  TYR227      0.0548
    127  CG        -6.3420   -1.0890  -11.6910 C.ar  227  TYR227     -0.0200
    128  CD1       -6.5030    0.2960  -11.8290 C.ar  227  TYR227     -0.0009
    129  CD2       -7.2060   -1.9400  -12.3980 C.ar  227  TYR227     -0.0009
    130  CE1       -7.5080    0.8220  -12.6430 C.ar  227  TYR227      0.0417
    131  CE2       -8.2090   -1.4130  -13.2100 C.ar  227  TYR227      0.0417
    132  CZ        -8.3500   -0.0380  -13.3200 C.ar  227  TYR227      0.1957
    133  OH        -9.3490    0.4680  -14.1220 O.3   227  TYR227     -0.2866
    134  N         -2.3440   -0.9370   -9.9420 N.am  228  CYS228     -0.1970
    135  CA        -1.3420   -1.1460   -8.8910 C.3   228  CYS228      0.1712
    136  C         -2.0500   -1.5910   -7.6160 C.2   228  CYS228      0.2296
    137  O         -2.6100   -0.7740   -6.8660 O.2   228  CYS228     -0.2864
    138  CB        -0.5310    0.1310   -8.6920 C.3   228  CYS228      0.0983
    139  SG         0.5540    0.3960  -10.1110 S.3   228  CYS228     -0.0798
    140  N         -2.2910   -3.4860   -3.9850 N.3   230  PHE230     -0.1241
    141  CA        -1.4940   -3.6240   -2.7630 C.3   230  PHE230      0.1605
    142  C         -1.5330   -5.0590   -2.2770 C.2   230  PHE230      0.2264
    143  O         -2.5800   -5.6910   -2.3430 O.2   230  PHE230     -0.2867
    144  CB        -2.0710   -2.7210   -1.6670 C.3   230  PHE230      0.0534
    145  CG        -1.0450   -2.2130   -0.6980 C.ar  230  PHE230     -0.0203
    146  CD1       -0.3160   -1.0600   -0.9880 C.ar  230  PHE230     -0.0042
    147  CD2       -0.8220   -2.8680    0.5150 C.ar  230  PHE230     -0.0042
    148  CE1        0.6240   -0.5720   -0.0820 C.ar  230  PHE230     -0.0003
    149  CE2        0.1270   -2.3800    1.4230 C.ar  230  PHE230     -0.0003
    150  CZ         0.8350   -1.2310    1.1200 C.ar  230  PHE230     -0.0000
    151  N         -8.4210   -2.9930   -5.1660 N.3   272  ILE272     -0.1231
    152  CA        -7.1280   -2.3660   -5.3830 C.3   272  ILE272      0.1692
    153  C         -6.2620   -2.3460   -4.1080 C.2   272  ILE272      0.2592
    154  O         -5.0390   -2.2660   -4.1820 O.2   272  ILE272     -0.2718
    155  CB        -7.2880   -0.9430   -6.0110 C.3   272  ILE272      0.0266
    156  CG1       -5.9370   -0.5050   -6.6030 C.3   272  ILE272      0.0019
    157  CG2       -7.8700    0.0470   -4.9960 C.3   272  ILE272      0.0020
    158  CD1       -5.9600    0.6900   -7.5360 C.3   272  ILE272      0.0001
    159  N         -6.9000   -2.4470   -2.9470 N.am  273  SER273     -0.1952
    160  CA        -6.1750   -2.3430   -1.6850 C.3   273  SER273      0.1924
    161  C         -6.6740   -3.3660   -0.6970 C.2   273  SER273      0.2314
    162  O         -7.8770   -3.6260   -0.6030 O.2   273  SER273     -0.2863
    163  CB        -6.3250   -0.9330   -1.0930 C.3   273  SER273      0.2116
    164  OG        -5.5730   -0.7900    0.1210 O.3   273  SER273     -0.2180
    165  N        -12.7770   -0.2750   -6.5270 N.3   288  LEU288     -0.1245
    166  CA       -12.8720    0.8450   -7.4720 C.3   288  LEU288      0.1561
    167  C        -14.3170    1.3400   -7.6970 C.2   288  LEU288      0.2260
    168  O        -15.2330    0.9780   -6.9290 O.2   288  LEU288     -0.2867
    169  CB       -12.1090    0.5280   -8.7680 C.3   288  LEU288      0.0270
    170  CG       -10.5980    0.2700   -8.5950 C.3   288  LEU288      0.0019
    171  CD1       -9.9480    0.1620   -9.9670 C.3   288  LEU288      0.0001
    172  CD2       -9.9060    1.3950   -7.8190 C.3   288  LEU288      0.0001
@<TRIPOS>BOND
     1    96    95   ar
     2    96    94   ar
     3   113   112    2
     4    95    93   ar
     5   117   119   ar
     6   117   115   ar
     7    94    92   ar
     8   119   120   ar
     9   112   111    1
    10   103   102    1
    11   103    97    1
    12   114   115    1
    13   114   111    1
    14    93    91   ar
    15   115   116   ar
    16    68    67    1
    17   102   101    1
    18   111   110    1
    19    92    91   ar
    20   133   132    1
    21   120   121    1
    22   120   118   ar
    23    97    98    1
    24    91    90    1
    25    66    67   ar
    26    66    64   ar
    27    67    65   ar
    28    89    88    2
    29   116   118   ar
    30   132   131   ar
    31   132   130   ar
    32   131   129   ar
    33   101    98    1
    34    98    99    1
    35   122   123    1
    36   130   128   ar
    37    64    62   ar
    38    65    63   ar
    39   129   127   ar
    40    88    87    1
    41    90    87    1
    42   128   127   ar
    43   100    99    2
    44    87    86    1
    45   127   126    1
    46   123   126    1
    47   123   124    1
    48    62    63   ar
    49    62    61    1
    50    79    78   ar
    51    79    77   ar
    52    78    76   ar
    53   124   125    2
    54   124   134   am
    55    57    58    1
    56    61    58    1
    57   139   138    1
    58    77    75   ar
    59   171   170    1
    60   134   135    1
    61    56    54   ar
    62    76    74   ar
    63    58    59    1
    64    54    55   ar
    65    54    53    1
    66    52    51    2
    67   135   138    1
    68   135   136    1
    69    60    59    2
    70   169   170    1
    71   169   166    1
    72   108   109    1
    73   108   105    1
    74    53    50    1
    75    75    74   ar
    76   170   172    1
    77    74    73    1
    78   104   105    1
    79   105   106    1
    80    51    50    1
    81    50    49    1
    82   167   166    1
    83   167   168    2
    84   136   137    2
    85   158   156    1
    86     5     2    1
    87   166   165    1
    88    22    19    1
    89    73    70    1
    90   156   155    1
    91     1     2    1
    92    40    39    1
    93    23    24    1
    94   106   107    2
    95     2     3    1
    96    21    20    2
    97   155   152    1
    98   155   157    1
    99    69    70    1
   100    19    20    1
   101    19    18    1
   102    70    71    1
   103    24    25    1
   104    26    25    2
   105   152   151    1
   106   152   153    1
   107    39    36    1
   108    25    27   am
   109     3     4    2
   110    71    72    2
   111    71    80   am
   112    85    84    1
   113    36    35    1
   114    36    37    1
   115    27    28    1
   116   154   153    2
   117   153   159   am
   118    35    29   am
   119   140   141    1
   120    80    81    1
   121    10     7    1
   122    10    11    1
   123    29    30    2
   124    29    28    1
   125     7     6    1
   126     7     8    1
   127    28    31    1
   128    84    81    1
   129    37    38    2
   130    37    41   am
   131   159   160    1
   132     9     8    2
   133    81    82    1
   134   141   142    1
   135   141   144    1
   136     8    12   am
   137   143   142    2
   138    83    82    2
   139    41    42    1
   140    31    32    1
   141    31    33    1
   142   160   163    1
   143   160   161    1
   144   144   145    1
   145    32    34    1
   146    12    13    1
   147    45    42    1
   148    45    46    1
   149   163   164    1
   150   146   145   ar
   151   146   148   ar
   152    42    43    1
   153   145   147   ar
   154   161   162    2
   155    48    46   ar
   156    46    47   ar
   157    13    16    1
   158    13    14    1
   159    16    17    1
   160   148   150   ar
   161    44    43    2
   162   147   149   ar
   163    14    15    2
   164   150   149   ar
