@<TRIPOS>MOLECULE
tmp/5eatA00.pdb
 204 192 0 0 0
SMALL
GASTEIGER

@<TRIPOS>ATOM
      1  N        112.3330   50.7660   50.2970 N.3   248  ARG248     -0.1245
      2  CA       113.5920   50.1960   50.7520 C.3   248  ARG248      0.1563
      3  C        114.6760   50.5120   49.7420 C.2   248  ARG248      0.2260
      4  O        114.4530   50.4440   48.5270 O.2   248  ARG248     -0.2867
      5  CB       113.4990   48.6700   50.8890 C.3   248  ARG248      0.0307
      6  CG       112.6240   48.1660   52.0300 C.3   248  ARG248      0.0489
      7  CD       112.4500   46.6390   51.9960 C.3   248  ARG248      0.2205
      8  NE       111.7720   46.2000   50.7740 N.pl3 248  ARG248     -0.0865
      9  CZ       110.9640   45.1440   50.6790 C.cat 248  ARG248      0.5346
     10  NH1      110.7140   44.3850   51.7380 N.pl3 248  ARG248      0.1354
     11  NH2      110.3850   44.8570   49.5180 N.pl3 248  ARG248      0.1354
     12  N        121.2480   39.5940   43.9820 N.3   257  TRP257     -0.1241
     13  CA       120.2030   38.6950   43.5060 C.3   257  TRP257      0.1605
     14  C        120.4010   38.3890   42.0240 C.2   257  TRP257      0.2264
     15  O        120.2910   37.2390   41.5960 O.2   257  TRP257     -0.2867
     16  CB       118.8310   39.3350   43.7240 C.3   257  TRP257      0.0550
     17  CG       117.8200   38.3950   44.2800 C.ar  257  TRP257      0.0003
     18  CD1      117.0360   37.5220   43.5800 C.ar  257  TRP257      0.0946
     19  CD2      117.4990   38.2050   45.6610 C.ar  257  TRP257      0.0152
     20  NE1      116.2500   36.7940   44.4420 N.ar  257  TRP257     -0.2442
     21  CE2      116.5130   37.1930   45.7260 C.ar  257  TRP257      0.0810
     22  CE3      117.9490   38.7890   46.8510 C.ar  257  TRP257      0.0012
     23  CZ2      115.9690   36.7500   46.9380 C.ar  257  TRP257      0.0191
     24  CZ3      117.4080   38.3510   48.0570 C.ar  257  TRP257      0.0001
     25  CH2      116.4280   37.3390   48.0880 C.ar  257  TRP257      0.0015
     26  N        114.2390   44.2950   39.6210 N.3   278  ILE278     -0.1245
     27  CA       114.0580   43.8840   41.0150 C.3   278  ILE278      0.1561
     28  C        113.9590   45.1130   41.9100 C.2   278  ILE278      0.2260
     29  O        113.0970   45.1930   42.7890 O.2   278  ILE278     -0.2867
     30  CB       115.2320   43.0070   41.5220 C.3   278  ILE278      0.0252
     31  CG1      115.4300   41.7990   40.6040 C.3   278  ILE278      0.0019
     32  CG2      114.9620   42.5460   42.9580 C.3   278  ILE278      0.0019
     33  CD1      116.5640   40.8760   41.0170 C.3   278  ILE278      0.0001
     34  N        110.5440   46.3690   43.8340 N.3   282  SER282     -0.1217
     35  CA       110.6820   46.4100   45.2840 C.3   282  SER282      0.1889
     36  C        109.9210   47.6160   45.8100 C.2   282  SER282      0.2288
     37  O        109.3310   47.5670   46.8880 O.2   282  SER282     -0.2866
     38  CB       112.1520   46.5110   45.6920 C.3   282  SER282      0.2089
     39  OG       112.2810   46.5330   47.1060 O.3   282  SER282     -0.2183
     40  N        106.1860   47.0720   45.6740 N.3   285  ASP285     -0.1239
     41  CA       105.8370   46.2260   46.8020 C.3   285  ASP285      0.1674
     42  C        105.7620   47.0780   48.0650 C.2   285  ASP285      0.2266
     43  O        104.8470   46.9300   48.8740 O.2   285  ASP285     -0.2867
     44  CB       106.8790   45.1210   46.9750 C.3   285  ASP285      0.1410
     45  CG       106.5230   44.1630   48.0870 C.2   285  ASP285      0.3668
     46  OD1      105.6720   43.2770   47.8690 O.co2 285  ASP285     -0.2456
     47  OD2      107.0750   44.3090   49.1930 O.co2 285  ASP285     -0.2456
     48  N        102.3790   47.7780   50.5150 N.3   289  ASP289     -0.1239
     49  CA       102.5440   47.3000   51.8810 C.3   289  ASP289      0.1674
     50  C        102.6050   48.3240   53.0010 C.2   289  ASP289      0.2266
     51  O        101.9360   48.1610   54.0220 O.2   289  ASP289     -0.2867
     52  CB       103.7740   46.3990   51.9680 C.3   289  ASP289      0.1410
     53  CG       103.4310   44.9330   51.8450 C.2   289  ASP289      0.3668
     54  OD1      102.6470   44.5720   50.9400 O.co2 289  ASP289     -0.2456
     55  OD2      103.9570   44.1400   52.6560 O.co2 289  ASP289     -0.2456
     56  N         98.9800   42.0260   44.0620 N.3   360  TYR360     -0.1241
     57  CA        99.3810   42.9200   45.1480 C.3   360  TYR360      0.1605
     58  C         98.1220   43.6050   45.6680 C.2   360  TYR360      0.2264
     59  O         97.9420   43.7730   46.8740 O.2   360  TYR360     -0.2867
     60  CB       100.3620   43.9860   44.6450 C.3   360  TYR360      0.0534
     61  CG       101.8230   43.5790   44.6280 C.ar  360  TYR360     -0.0201
     62  CD1      102.2680   42.4460   45.3120 C.ar  360  TYR360     -0.0009
     63  CD2      102.7650   44.3440   43.9400 C.ar  360  TYR360     -0.0009
     64  CE1      103.6140   42.0880   45.3130 C.ar  360  TYR360      0.0417
     65  CE2      104.1110   43.9970   43.9340 C.ar  360  TYR360      0.0417
     66  CZ       104.5310   42.8680   44.6230 C.ar  360  TYR360      0.1957
     67  OH       105.8650   42.5230   44.6210 O.3   360  TYR360     -0.2866
     68  N         95.9360   41.1760   47.4970 N.3   363  GLU363     -0.1245
     69  CA        96.5750   40.9380   48.7870 C.3   363  GLU363      0.1567
     70  C         96.1660   41.9840   49.8250 C.2   363  GLU363      0.2260
     71  O         95.9220   41.6500   50.9870 O.2   363  GLU363     -0.2867
     72  CB        98.1000   40.9240   48.6130 C.3   363  GLU363      0.0388
     73  CG        98.8880   40.4540   49.8360 C.3   363  GLU363      0.1160
     74  CD       100.3920   40.3990   49.5910 C.2   363  GLU363      0.3649
     75  OE1      100.8100   39.9860   48.4850 O.co2 363  GLU363     -0.2457
     76  OE2      101.1580   40.7620   50.5100 O.co2 363  GLU363     -0.2457
     77  N        102.9600   36.9660   43.7570 N.3   385  THR385     -0.1203
     78  CA       103.4450   38.0540   44.6050 C.3   385  THR385      0.1994
     79  C        104.8930   37.8420   45.0550 C.2   385  THR385      0.2619
     80  O        105.5120   38.7430   45.6240 O.2   385  THR385     -0.2717
     81  CB       102.5350   38.2940   45.8320 C.3   385  THR385      0.1784
     82  OG1      102.4070   37.0900   46.5920 O.3   385  THR385     -0.2211
     83  CG2      101.1670   38.7520   45.3930 C.3   385  THR385      0.0376
     84  N        105.4210   36.6440   44.8130 N.am  386  THR386     -0.1938
     85  CA       106.8070   36.3360   45.1510 C.3   386  THR386      0.2028
     86  C        107.6740   36.9880   44.0760 C.2   386  THR386      0.2643
     87  O        108.8810   37.1350   44.2450 O.2   386  THR386     -0.2714
     88  CB       107.0920   34.8120   45.1380 C.3   386  THR386      0.1808
     89  OG1      106.9440   34.3000   43.8060 O.3   386  THR386     -0.2208
     90  CG2      106.1520   34.0800   46.0700 C.3   386  THR386      0.0379
     91  N        107.0220   37.3660   42.9740 N.am  387  THR387     -0.1936
     92  CA       107.6290   38.0100   41.8040 C.3   387  THR387      0.2028
     93  C        108.5150   37.0840   40.9800 C.2   387  THR387      0.2642
     94  O        109.1360   37.5230   40.0130 O.2   387  THR387     -0.2714
     95  CB       108.4460   39.2880   42.1670 C.3   387  THR387      0.1808
     96  OG1      109.6620   38.9220   42.8270 O.3   387  THR387     -0.2208
     97  CG2      107.6470   40.2100   43.0710 C.3   387  THR387      0.0379
     98  N        108.5330   35.7990   41.3260 N.am  388  TYR388     -0.1973
     99  CA       109.3750   34.8420   40.6170 C.3   388  TYR388      0.1639
    100  C        109.0400   34.5450   39.1640 C.2   388  TYR388      0.2290
    101  O        109.9450   34.2650   38.3750 O.2   388  TYR388     -0.2864
    102  CB       109.5600   33.5600   41.4310 C.3   388  TYR388      0.0560
    103  CG       110.7990   33.6110   42.2950 C.ar  388  TYR388     -0.0198
    104  CD1      111.2710   34.8280   42.7850 C.ar  388  TYR388     -0.0009
    105  CD2      111.5270   32.4590   42.5860 C.ar  388  TYR388     -0.0009
    106  CE1      112.4300   34.9030   43.5360 C.ar  388  TYR388      0.0417
    107  CE2      112.6950   32.5230   43.3450 C.ar  388  TYR388      0.0417
    108  CZ       113.1390   33.7530   43.8130 C.ar  388  TYR388      0.1957
    109  OH       114.2910   33.8530   44.5530 O.3   388  TYR388     -0.2866
    110  N        110.4780   37.8220   37.6470 N.3   391  LEU391     -0.1245
    111  CA       111.9440   37.8540   37.6020 C.3   391  LEU391      0.1561
    112  C        112.5330   36.8430   36.6190 C.2   391  LEU391      0.2260
    113  O        113.5060   37.1420   35.9250 O.2   391  LEU391     -0.2867
    114  CB       112.5360   37.6170   38.9940 C.3   391  LEU391      0.0270
    115  CG       112.0660   38.5350   40.1250 C.3   391  LEU391      0.0019
    116  CD1      112.8940   38.2610   41.3660 C.3   391  LEU391      0.0001
    117  CD2      112.1790   40.0010   39.7140 C.3   391  LEU391      0.0001
    118  N        110.1350   29.7140   46.9180 N.3   424  CYS424     -0.1221
    119  CA       110.2330   31.0980   47.3610 C.3   424  CYS424      0.1808
    120  C        109.0730   31.4820   48.2830 C.2   424  CYS424      0.2601
    121  O        109.2640   32.1750   49.2870 O.2   424  CYS424     -0.2717
    122  CB       110.2670   32.0360   46.1530 C.3   424  CYS424      0.0970
    123  SG       110.4490   33.7740   46.5990 S.3   424  CYS424     -0.0800
    124  N        107.8750   31.0120   47.9400 N.am  425  ARG425     -0.1979
    125  CA       106.6690   31.2960   48.7140 C.3   425  ARG425      0.1597
    126  C        106.7160   30.6370   50.0890 C.2   425  ARG425      0.2287
    127  O        106.6290   31.3070   51.1200 O.2   425  ARG425     -0.2864
    128  CB       105.4330   30.8100   47.9490 C.3   425  ARG425      0.0334
    129  CG       104.0930   31.0830   48.6290 C.3   425  ARG425      0.0492
    130  CD       103.7180   32.5590   48.5900 C.3   425  ARG425      0.2205
    131  NE       104.4540   33.3530   49.5710 N.pl3 425  ARG425     -0.0865
    132  CZ       104.6230   34.6700   49.5000 C.cat 425  ARG425      0.5346
    133  NH1      104.1080   35.3530   48.4890 N.pl3 425  ARG425      0.1354
    134  NH2      105.3070   35.3070   50.4410 N.pl3 425  ARG425      0.1354
    135  N        109.5000   31.9720   52.3980 N.3   428  ASP428     -0.1239
    136  CA       109.1780   33.3140   52.8750 C.3   428  ASP428      0.1674
    137  C        108.1030   33.2470   53.9520 C.2   428  ASP428      0.2266
    138  O        108.2280   33.8830   54.9950 O.2   428  ASP428     -0.2867
    139  CB       108.6950   34.2030   51.7210 C.3   428  ASP428      0.1410
    140  CG       108.3650   35.6240   52.1690 C.2   428  ASP428      0.3668
    141  OD1      107.2880   35.8410   52.7680 O.co2 428  ASP428     -0.2456
    142  OD2      109.1790   36.5350   51.9100 O.co2 428  ASP428     -0.2456
    143  N        108.5990   34.6900   57.5810 N.3   432  THR432     -0.1218
    144  CA       107.8320   35.8840   57.8790 C.3   432  THR432      0.1862
    145  C        106.4460   35.6940   58.4970 C.2   432  THR432      0.2287
    146  O        105.7080   36.6570   58.6200 O.2   432  THR432     -0.2866
    147  CB       107.6890   36.7870   56.6180 C.3   432  THR432      0.1770
    148  OG1      106.9430   36.1120   55.6070 O.3   432  THR432     -0.2211
    149  CG2      109.0640   37.1700   56.0710 C.3   432  THR432      0.0375
    150  N        104.4500   39.1180   60.1030 N.3   436  GLU436     -0.1245
    151  CA       103.3040   39.5450   59.3150 C.3   436  GLU436      0.1567
    152  C        101.9840   39.3920   60.0810 C.2   436  GLU436      0.2260
    153  O        101.0340   40.1360   59.8380 O.2   436  GLU436     -0.2867
    154  CB       103.2750   38.7820   57.9910 C.3   436  GLU436      0.0388
    155  CG       104.4440   39.1300   57.0580 C.3   436  GLU436      0.1160
    156  CD       104.4690   38.3170   55.7870 C.2   436  GLU436      0.3649
    157  OE1      104.1830   37.1060   55.8430 O.co2 436  GLU436     -0.2457
    158  OE2      104.7870   38.8990   54.7280 O.co2 436  GLU436     -0.2457
    159  N        116.8680   32.1360   47.2580 N.3   500  VAL500     -0.1245
    160  CA       115.9150   32.2180   48.3690 C.3   500  VAL500      0.1561
    161  C        116.4240   31.3820   49.5350 C.2   500  VAL500      0.2260
    162  O        116.4290   31.8350   50.6810 O.2   500  VAL500     -0.2867
    163  CB       114.5040   31.6790   48.0080 C.3   500  VAL500      0.0252
    164  CG1      113.4440   32.4410   48.7870 C.3   500  VAL500      0.0019
    165  CG2      114.2440   31.7550   46.5260 C.3   500  VAL500      0.0019
    166  N        117.2610   33.1620   53.1050 N.3   504  TYR504     -0.1241
    167  CA       116.4610   32.8480   54.2900 C.3   504  TYR504      0.1605
    168  C        117.0470   31.6630   55.0580 C.2   504  TYR504      0.2264
    169  O        116.3210   30.9370   55.7400 O.2   504  TYR504     -0.2867
    170  CB       115.0170   32.5280   53.8920 C.3   504  TYR504      0.0534
    171  CG       114.2380   33.6960   53.3300 C.ar  504  TYR504     -0.0201
    172  CD1      114.4810   34.1710   52.0410 C.ar  504  TYR504     -0.0009
    173  CD2      113.2470   34.3210   54.0870 C.ar  504  TYR504     -0.0009
    174  CE1      113.7580   35.2420   51.5200 C.ar  504  TYR504      0.0417
    175  CE2      112.5160   35.3920   53.5770 C.ar  504  TYR504      0.0417
    176  CZ       112.7770   35.8480   52.2940 C.ar  504  TYR504      0.1957
    177  OH       112.0700   36.9160   51.7870 O.3   504  TYR504     -0.2866
    178  N        114.1560   37.2740   56.8820 N.3   509  ASP509     -0.1239
    179  CA       114.1000   38.0060   55.6200 C.3   509  ASP509      0.1674
    180  C        115.4480   38.6680   55.3320 C.2   509  ASP509      0.2266
    181  O        115.7530   39.7400   55.8540 O.2   509  ASP509     -0.2867
    182  CB       112.9870   39.0550   55.6700 C.3   509  ASP509      0.1410
    183  CG       112.6410   39.6080   54.3020 C.2   509  ASP509      0.3668
    184  OD1      113.3310   39.2760   53.3150 O.co2 509  ASP509     -0.2456
    185  OD2      111.6600   40.3740   54.2100 O.co2 509  ASP509     -0.2456
    186  N        116.6070   40.0850   52.5340 N.3   511  TYR511     -0.1227
    187  CA       116.6170   41.2850   51.7020 C.3   511  TYR511      0.1736
    188  C        116.2660   42.5240   52.5170 C.2   511  TYR511      0.2596
    189  O        116.8620   43.5930   52.3420 O.2   511  TYR511     -0.2718
    190  CB       115.6480   41.1190   50.5450 C.3   511  TYR511      0.0548
    191  CG       115.5620   42.2950   49.5980 C.ar  511  TYR511     -0.0200
    192  CD1      114.6560   43.3320   49.8240 C.ar  511  TYR511     -0.0009
    193  CD2      116.3300   42.3360   48.4330 C.ar  511  TYR511     -0.0009
    194  CE1      114.5110   44.3730   48.9170 C.ar  511  TYR511      0.0417
    195  CE2      116.1930   43.3750   47.5180 C.ar  511  TYR511      0.0417
    196  CZ       115.2820   44.3880   47.7670 C.ar  511  TYR511      0.1957
    197  OH       115.1590   45.4200   46.8680 O.3   511  TYR511     -0.2866
    198  N        115.2710   42.3830   53.3860 N.am  512  THR512     -0.1953
    199  CA       114.8550   43.4860   54.2380 C.3   512  THR512      0.1897
    200  C        115.8870   43.6530   55.3560 C.2   512  THR512      0.2313
    201  O        116.1680   44.7730   55.7870 O.2   512  THR512     -0.2863
    202  CB       113.4470   43.2530   54.8360 C.3   512  THR512      0.1794
    203  OG1      112.5040   43.0530   53.7760 O.3   512  THR512     -0.2208
    204  CG2      113.0100   44.4580   55.6550 C.3   512  THR512      0.0378
@<TRIPOS>BOND
     1   113   112    2
     2   112   111    1
     3   111   110    1
     4   111   114    1
     5   101   100    2
     6   114   115    1
     7   100    99    1
     8    26    27    1
     9   117   115    1
    10    94    93    2
    11   115   116    1
    12    31    33    1
    13    31    30    1
    14    99    98    1
    15    99   102    1
    16    93    98   am
    17    93    92    1
    18    27    30    1
    19    27    28    1
    20   102   103    1
    21    30    32    1
    22    15    14    2
    23    92    95    1
    24    92    91    1
    25    28    29    2
    26    14    13    1
    27    95    96    1
    28    95    97    1
    29   103   105   ar
    30   103   104   ar
    31   105   107   ar
    32   104   106   ar
    33    91    86   am
    34   107   108   ar
    35    13    16    1
    36    13    12    1
    37   106   108   ar
    38    18    17   ar
    39    18    20   ar
    40    16    17    1
    41    77    78    1
    42    89    88    1
    43   108   109    1
    44    34    35    1
    45    65    63   ar
    46    65    66   ar
    47    63    61   ar
    48    56    57    1
    49    86    87    2
    50    86    85    1
    51    17    19   ar
    52    20    21   ar
    53    78    79    1
    54    78    81    1
    55    67    66    1
    56    66    64   ar
    57    61    60    1
    58    61    62   ar
    59    60    57    1
    60    84    79   am
    61    84    85    1
    62    79    80    2
    63    88    85    1
    64    88    90    1
    65    57    58    1
    66    35    38    1
    67    35    36    1
    68    62    64   ar
    69    83    81    1
    70    19    21   ar
    71    19    22   ar
    72    58    59    2
    73    40    41    1
    74    38    39    1
    75    21    23   ar
    76    36    37    2
    77    81    82    1
    78   122   123    1
    79   122   119    1
    80   165   163    1
    81    41    44    1
    82    41    42    1
    83    22    24   ar
    84   197   196    1
    85   118   119    1
    86    23    25   ar
    87    44    45    1
    88   159   160    1
    89   119   120    1
    90    68    69    1
    91   195   196   ar
    92   195   193   ar
    93   196   194   ar
    94    46    45   ar
    95   124   120   am
    96   124   125    1
    97   128   129    1
    98   128   125    1
    99   163   160    1
   100   163   164    1
   101    24    25   ar
   102    42    43    2
   103    45    47   ar
   104   120   121    2
   105   160   161    1
   106   193   191   ar
   107    75    74   ar
   108   133   132    1
   109     4     3    2
   110   130   129    1
   111   130   131    1
   112    72    69    1
   113    72    73    1
   114   125   126    1
   115    69    70    1
   116   194   192   ar
   117   132   131    2
   118   132   134    1
   119    11     9    1
   120   161   162    2
   121    74    73    1
   122    74    76   ar
   123   191   192   ar
   124   191   190    1
   125     3     2    1
   126    70    71    2
   127   126   127    2
   128     1     2    1
   129    48    49    1
   130   190   187    1
   131     9     8    2
   132     9    10    1
   133     2     5    1
   134     8     7    1
   135     5     6    1
   136    54    53   ar
   137   174   172   ar
   138   174   176   ar
   139   187   188    1
   140   187   186    1
   141   139   140    1
   142   139   136    1
   143   177   176    1
   144    53    52    1
   145    53    55   ar
   146    49    52    1
   147    49    50    1
   148   142   140   ar
   149     7     6    1
   150   172   171   ar
   151   140   141   ar
   152   176   175   ar
   153   189   188    2
   154   135   136    1
   155   188   198   am
   156   136   137    1
   157    50    51    2
   158   166   167    1
   159   184   183   ar
   160   171   170    1
   161   171   173   ar
   162   198   199    1
   163   175   173   ar
   164   203   202    1
   165   170   167    1
   166   137   138    2
   167   185   183   ar
   168   199   202    1
   169   199   200    1
   170   167   168    1
   171   183   182    1
   172   158   156   ar
   173   202   204    1
   174   168   169    2
   175   180   179    1
   176   180   181    2
   177   200   201    2
   178   148   147    1
   179   179   182    1
   180   179   178    1
   181   156   157   ar
   182   156   155    1
   183   149   147    1
   184   147   144    1
   185   155   154    1
   186   143   144    1
   187   144   145    1
   188   154   151    1
   189   145   146    2
   190   151   152    1
   191   151   150    1
   192   153   152    2
