@<TRIPOS>MOLECULE
tmp/5eauA00.pdb
 222 209 0 0 0
SMALL
GASTEIGER

@<TRIPOS>ATOM
      1  N         11.6000   76.7630   11.1240 N.3   244  ARG244     -0.1245
      2  CA        12.1130   75.4720   10.6640 C.3   244  ARG244      0.1563
      3  C         11.7720   74.3180   11.5970 C.2   244  ARG244      0.2260
      4  O         11.6940   74.4930   12.8150 O.2   244  ARG244     -0.2867
      5  CB        13.6330   75.5210   10.5800 C.3   244  ARG244      0.0307
      6  CG        14.2190   76.5480    9.6550 C.3   244  ARG244      0.0489
      7  CD        15.6850   76.7150   10.0020 C.3   244  ARG244      0.2205
      8  NE        16.4320   77.4110    8.9640 N.pl3 244  ARG244     -0.0865
      9  CZ        17.7570   77.4370    8.9010 C.cat 244  ARG244      0.5346
     10  NH1       18.4760   76.8070    9.8220 N.pl3 244  ARG244      0.1354
     11  NH2       18.3630   78.0680    7.9050 N.pl3 244  ARG244      0.1354
     12  N         18.9330   69.3180   15.7620 N.3   250  CYS250     -0.1235
     13  CA        19.2940   70.0060   16.9950 C.3   250  CYS250      0.1677
     14  C         19.7550   69.0020   18.0250 C.2   250  CYS250      0.2270
     15  O         20.5450   69.3310   18.9070 O.2   250  CYS250     -0.2867
     16  CB        18.1190   70.8200   17.5340 C.3   250  CYS250      0.0956
     17  SG        17.7020   72.2370   16.5040 S.3   250  CYS250     -0.0801
     18  N         23.4280   67.8640   17.3620 N.3   253  TRP253     -0.1241
     19  CA        24.3830   68.8190   17.9080 C.3   253  TRP253      0.1605
     20  C         24.6170   68.6240   19.3990 C.2   253  TRP253      0.2264
     21  O         25.7560   68.6820   19.8650 O.2   253  TRP253     -0.2867
     22  CB        23.9380   70.2440   17.6070 C.3   253  TRP253      0.0550
     23  CG        24.0740   70.5640   16.1700 C.ar  253  TRP253      0.0003
     24  CD1       25.0970   70.2010   15.3520 C.ar  253  TRP253      0.0946
     25  CD2       23.1520   71.2970   15.3610 C.ar  253  TRP253      0.0152
     26  NE1       24.8780   70.6600   14.0790 N.ar  253  TRP253     -0.2442
     27  CE2       23.6870   71.3360   14.0540 C.ar  253  TRP253      0.0810
     28  CE3       21.9210   71.9210   15.6100 C.ar  253  TRP253      0.0012
     29  CZ2       23.0330   71.9810   12.9920 C.ar  253  TRP253      0.0191
     30  CZ3       21.2660   72.5630   14.5530 C.ar  253  TRP253      0.0001
     31  CH2       21.8260   72.5850   13.2600 C.ar  253  TRP253      0.0015
     32  N         18.6620   74.6510   21.9930 N.3   274  ILE274     -0.1245
     33  CA        19.0450   74.8000   20.5870 C.3   274  ILE274      0.1561
     34  C         17.8220   74.9570   19.6890 C.2   274  ILE274      0.2260
     35  O         17.8100   75.7830   18.7740 O.2   274  ILE274     -0.2867
     36  CB        19.8880   73.6090   20.0950 C.3   274  ILE274      0.0252
     37  CG1       21.1900   73.5270   20.8870 C.3   274  ILE274      0.0019
     38  CG2       20.2070   73.7690   18.6260 C.3   274  ILE274      0.0019
     39  CD1       22.1100   72.4020   20.4550 C.3   274  ILE274      0.0001
     40  N         16.0630   78.5820   20.4950 N.3   277  ILE277     -0.1231
     41  CA        16.7630   79.7130   19.8940 C.3   277  ILE277      0.1692
     42  C         16.7500   79.6130   18.3670 C.2   277  ILE277      0.2592
     43  O         17.0260   80.5910   17.6660 O.2   277  ILE277     -0.2718
     44  CB        18.2180   79.8440   20.4250 C.3   277  ILE277      0.0266
     45  CG1       18.7970   81.2090   20.0380 C.3   277  ILE277      0.0019
     46  CG2       19.0990   78.7220   19.8860 C.3   277  ILE277      0.0020
     47  CD1       18.0730   82.3790   20.6670 C.3   277  ILE277      0.0001
     48  N         16.4200   78.4270   17.8610 N.am  278  SER278     -0.1952
     49  CA        16.3360   78.2020   16.4230 C.3   278  SER278      0.1924
     50  C         15.0970   78.9420   15.9100 C.2   278  SER278      0.2314
     51  O         15.0810   79.4320   14.7780 O.2   278  SER278     -0.2863
     52  CB        16.2350   76.7020   16.1180 C.3   278  SER278      0.2116
     53  OG        16.2780   76.4530   14.7230 O.3   278  SER278     -0.2180
     54  N         15.7520   82.7620   15.9950 N.3   281  ASP281     -0.1225
     55  CA        16.5680   83.1200   14.8390 C.3   281  ASP281      0.1805
     56  C         15.6820   83.3930   13.6350 C.2   281  ASP281      0.2597
     57  O         15.7130   84.4830   13.0710 O.2   281  ASP281     -0.2718
     58  CB        17.5560   81.9990   14.4940 C.3   281  ASP281      0.1424
     59  CG        18.3290   82.2730   13.2030 C.2   281  ASP281      0.3668
     60  OD1       19.2120   83.1520   13.2210 O.co2 281  ASP281     -0.2456
     61  OD2       18.0480   81.6230   12.1680 O.co2 281  ASP281     -0.2456
     62  N         14.8920   82.3920   13.2550 N.am  282  ASP282     -0.1974
     63  CA        13.9890   82.4950   12.1150 C.3   282  ASP282      0.1709
     64  C         13.0320   83.6700   12.2650 C.2   282  ASP282      0.2293
     65  O         12.5730   84.2330   11.2700 O.2   282  ASP282     -0.2864
     66  CB        13.2020   81.1910   11.9350 C.3   282  ASP282      0.1436
     67  CG        14.1010   79.9910   11.6900 C.2   282  ASP282      0.3671
     68  OD1       15.1170   80.1410   10.9750 O.co2 282  ASP282     -0.2456
     69  OD2       13.7930   78.9000   12.2150 O.co2 282  ASP282     -0.2456
     70  N         15.2050   86.4680   11.0490 N.3   285  ASP285     -0.1239
     71  CA        15.6720   86.2280    9.6800 C.3   285  ASP285      0.1674
     72  C         14.6540   86.2020    8.5500 C.2   285  ASP285      0.2266
     73  O         14.8770   86.8030    7.4990 O.2   285  ASP285     -0.2867
     74  CB        16.4690   84.9220    9.6200 C.3   285  ASP285      0.1410
     75  CG        17.6990   84.9390   10.5140 C.2   285  ASP285      0.3668
     76  OD1       17.9160   85.9370   11.2240 O.co2 285  ASP285     -0.2456
     77  OD2       18.4500   83.9500   10.5050 O.co2 285  ASP285     -0.2456
     78  N         20.8020   89.9550   17.6360 N.3   356  TYR356     -0.1241
     79  CA        19.9810   89.5390   16.4960 C.3   356  TYR356      0.1605
     80  C         19.2950   90.7880   15.9530 C.2   356  TYR356      0.2264
     81  O         19.1800   90.9820   14.7380 O.2   356  TYR356     -0.2867
     82  CB        18.8900   88.5680   16.9400 C.3   356  TYR356      0.0534
     83  CG        19.2480   87.1050   16.9140 C.ar  356  TYR356     -0.0201
     84  CD1       20.3580   86.6410   16.2170 C.ar  356  TYR356     -0.0009
     85  CD2       18.4410   86.1730   17.5700 C.ar  356  TYR356     -0.0009
     86  CE1       20.6530   85.2780   16.1710 C.ar  356  TYR356      0.0417
     87  CE2       18.7220   84.8180   17.5310 C.ar  356  TYR356      0.0417
     88  CZ        19.8260   84.3750   16.8310 C.ar  356  TYR356      0.1957
     89  OH        20.0930   83.0290   16.7900 O.3   356  TYR356     -0.2866
     90  N         21.6380   92.9290   14.0620 N.3   359  GLU359     -0.1245
     91  CA        21.8680   92.3520   12.7400 C.3   359  GLU359      0.1567
     92  C         20.8380   92.8090   11.7110 C.2   359  GLU359      0.2260
     93  O         21.1960   93.1290   10.5710 O.2   359  GLU359     -0.2867
     94  CB        21.8700   90.8240   12.8170 C.3   359  GLU359      0.0388
     95  CG        22.1980   90.1450   11.4880 C.3   359  GLU359      0.1160
     96  CD        21.9450   88.6490   11.5010 C.2   359  GLU359      0.3649
     97  OE1       22.1710   88.0010   12.5460 O.co2 359  GLU359     -0.2457
     98  OE2       21.5230   88.1160   10.4540 O.co2 359  GLU359     -0.2457
     99  N         26.0720   86.1530   17.7060 N.3   381  THR381     -0.1203
    100  CA        24.9890   85.6260   16.8740 C.3   381  THR381      0.1994
    101  C         25.2170   84.1890   16.3980 C.2   381  THR381      0.2619
    102  O         24.3590   83.5980   15.7400 O.2   381  THR381     -0.2717
    103  CB        24.6490   86.5600   15.6880 C.3   381  THR381      0.1784
    104  OG1       25.7830   86.7050   14.8270 O.3   381  THR381     -0.2211
    105  CG2       24.2400   87.9220   16.2010 C.3   381  THR381      0.0376
    106  N         26.3770   83.6320   16.7370 N.am  382  THR382     -0.1938
    107  CA        26.6960   82.2520   16.3940 C.3   382  THR382      0.2028
    108  C         26.0020   81.3810   17.4420 C.2   382  THR382      0.2643
    109  O         25.7790   80.1990   17.2240 O.2   382  THR382     -0.2714
    110  CB        28.2100   81.9720   16.4910 C.3   382  THR382      0.1808
    111  OG1       28.6570   82.2100   17.8320 O.3   382  THR382     -0.2208
    112  CG2       28.9890   82.8450   15.5280 C.3   382  THR382      0.0379
    113  N         25.6520   82.0090   18.5670 N.am  383  THR383     -0.1936
    114  CA        24.9920   81.4000   19.7360 C.3   383  THR383      0.2028
    115  C         25.9270   80.5420   20.5660 C.2   383  THR383      0.2642
    116  O         25.5260   80.0120   21.6010 O.2   383  THR383     -0.2714
    117  CB        23.7510   80.5350   19.3990 C.3   383  THR383      0.1808
    118  OG1       24.1700   79.2760   18.8550 O.3   383  THR383     -0.2208
    119  CG2       22.8350   81.2520   18.4260 C.3   383  THR383      0.0379
    120  N         27.1820   80.4440   20.1400 N.am  384  TYR384     -0.1973
    121  CA        28.1470   79.6230   20.8470 C.3   384  TYR384      0.1639
    122  C         28.4360   79.9940   22.2950 C.2   384  TYR384      0.2290
    123  O         28.7180   79.1100   23.1020 O.2   384  TYR384     -0.2864
    124  CB        29.4260   79.4660   20.0250 C.3   384  TYR384      0.0560
    125  CG        29.3600   78.2810   19.0860 C.ar  384  TYR384     -0.0198
    126  CD1       28.1330   77.7940   18.6340 C.ar  384  TYR384     -0.0009
    127  CD2       30.5140   77.6020   18.7030 C.ar  384  TYR384     -0.0009
    128  CE1       28.0560   76.6570   17.8340 C.ar  384  TYR384      0.0417
    129  CE2       30.4470   76.4620   17.9000 C.ar  384  TYR384      0.0417
    130  CZ        29.2130   75.9940   17.4750 C.ar  384  TYR384      0.1957
    131  OH        29.1320   74.8500   16.7150 O.3   384  TYR384     -0.2866
    132  N         25.2710   78.5710   23.8570 N.3   387  LEU387     -0.1245
    133  CA        25.2490   77.1000   23.8570 C.3   387  LEU387      0.1561
    134  C         26.2550   76.5130   24.8400 C.2   387  LEU387      0.2260
    135  O         25.9490   75.5500   25.5440 O.2   387  LEU387     -0.2867
    136  CB        25.5250   76.5340   22.4600 C.3   387  LEU387      0.0270
    137  CG        24.5430   76.8940   21.3480 C.3   387  LEU387      0.0019
    138  CD1       24.8740   76.0890   20.1050 C.3   387  LEU387      0.0001
    139  CD2       23.1180   76.6230   21.8040 C.3   387  LEU387      0.0001
    140  N         33.2510   79.0400   14.4400 N.3   420  CYS420     -0.1221
    141  CA        31.8710   78.9230   14.0020 C.3   420  CYS420      0.1808
    142  C         31.5020   80.0590   13.0620 C.2   420  CYS420      0.2601
    143  O         31.0310   79.8250   11.9470 O.2   420  CYS420     -0.2717
    144  CB        30.9380   78.9250   15.2080 C.3   420  CYS420      0.0970
    145  SG        29.2100   78.6690   14.7830 S.3   420  CYS420     -0.0800
    146  N         31.7600   81.2860   13.5120 N.am  421  ARG421     -0.1979
    147  CA        31.4640   82.4900   12.7420 C.3   421  ARG421      0.1597
    148  C         32.1510   82.4670   11.3820 C.2   421  ARG421      0.2287
    149  O         31.5030   82.5320   10.3430 O.2   421  ARG421     -0.2864
    150  CB        31.9140   83.7270   13.5220 C.3   421  ARG421      0.0334
    151  CG        31.6150   85.0650   12.8490 C.3   421  ARG421      0.0492
    152  CD        30.1340   85.4170   12.9070 C.3   421  ARG421      0.2205
    153  NE        29.3360   84.6620   11.9480 N.pl3 421  ARG421     -0.0865
    154  CZ        28.0420   84.3900   12.0890 C.cat 421  ARG421      0.5346
    155  NH1       27.3760   84.8100   13.1570 N.pl3 421  ARG421      0.1354
    156  NH2       27.4130   83.6800   11.1640 N.pl3 421  ARG421      0.1354
    157  N         31.0210   79.6040    9.0100 N.3   424  ASP424     -0.1239
    158  CA        29.6590   79.8830    8.5950 C.3   424  ASP424      0.1674
    159  C         29.6760   80.9430    7.4980 C.2   424  ASP424      0.2266
    160  O         29.0380   80.7820    6.4610 O.2   424  ASP424     -0.2867
    161  CB        28.8570   80.3830    9.7980 C.3   424  ASP424      0.1410
    162  CG        27.3700   80.5170    9.5120 C.2   424  ASP424      0.3668
    163  OD1       26.9770   80.7100    8.3430 O.co2 424  ASP424     -0.2456
    164  OD2       26.5840   80.4380   10.4790 O.co2 424  ASP424     -0.2456
    165  N         28.0320   80.1900    3.8960 N.3   428  THR428     -0.1218
    166  CA        26.8170   80.9310    3.5800 C.3   428  THR428      0.1862
    167  C         27.0010   82.2730    2.8800 C.2   428  THR428      0.2287
    168  O         26.0260   82.9980    2.6900 O.2   428  THR428     -0.2866
    169  CB        25.9800   81.1780    4.8440 C.3   428  THR428      0.1770
    170  OG1       26.7570   81.9190    5.7930 O.3   428  THR428     -0.2211
    171  CG2       25.5460   79.8670    5.4600 C.3   428  THR428      0.0375
    172  N         23.7080   84.3630    1.1900 N.3   432  GLU432     -0.1245
    173  CA        23.2390   85.5770    1.8570 C.3   432  GLU432      0.1567
    174  C         23.4340   86.8390    1.0140 C.2   432  GLU432      0.2260
    175  O         22.6910   87.8110    1.1590 O.2   432  GLU432     -0.2867
    176  CB        23.9490   85.7380    3.1960 C.3   432  GLU432      0.0388
    177  CG        23.7040   84.6040    4.1720 C.3   432  GLU432      0.1160
    178  CD        24.6350   84.6610    5.3660 C.2   432  GLU432      0.3649
    179  OE1       25.8570   84.8170    5.1600 O.co2 432  GLU432     -0.2457
    180  OE2       24.1500   84.5470    6.5100 O.co2 432  GLU432     -0.2457
    181  N         31.9970   71.8620   20.3760 N.3   492  LEU492     -0.1245
    182  CA        31.2140   72.8450   19.6330 C.3   492  LEU492      0.1561
    183  C         31.9440   73.2340   18.3530 C.2   492  LEU492      0.2260
    184  O         31.3200   73.4190   17.3130 O.2   492  LEU492     -0.2867
    185  CB        30.9610   74.0890   20.4800 C.3   492  LEU492      0.0270
    186  CG        29.7940   74.0040   21.4600 C.3   492  LEU492      0.0019
    187  CD1       29.7300   75.2610   22.2880 C.3   492  LEU492      0.0001
    188  CD2       28.5070   73.8110   20.6950 C.3   492  LEU492      0.0001
    189  N         31.7960   70.2910   15.7780 N.3   495  ILE495     -0.1231
    190  CA        30.4880   70.2430   15.1310 C.3   495  ILE495      0.1692
    191  C         30.4410   71.2000   13.9350 C.2   495  ILE495      0.2591
    192  O         29.8590   70.8820   12.8980 O.2   495  ILE495     -0.2718
    193  CB        29.3830   70.6340   16.1270 C.3   495  ILE495      0.0266
    194  CG1       29.1610   69.5150   17.1370 C.3   495  ILE495      0.0019
    195  CG2       28.1080   70.9510   15.4000 C.3   495  ILE495      0.0020
    196  CD1       28.2210   69.8940   18.2440 C.3   495  ILE495      0.0001
    197  N         31.0490   72.3740   14.0940 N.am  496  VAL496     -0.1980
    198  CA        31.0900   73.3790   13.0330 C.3   496  VAL496      0.1595
    199  C         31.8270   72.7840   11.8470 C.2   496  VAL496      0.2287
    200  O         31.3480   72.8250   10.7180 O.2   496  VAL496     -0.2864
    201  CB        31.8710   74.6480   13.4630 C.3   496  VAL496      0.0276
    202  CG1       31.8420   75.6750   12.3520 C.3   496  VAL496      0.0022
    203  CG2       31.3020   75.2320   14.7350 C.3   496  VAL496      0.0022
    204  N         29.6720   70.0560   10.2240 N.3   499  THR499     -0.1203
    205  CA        28.4690   70.5400    9.5430 C.3   499  THR499      0.1994
    206  C         28.7480   71.2720    8.2290 C.2   499  THR499      0.2617
    207  O         28.0440   71.0750    7.2400 O.2   499  THR499     -0.2717
    208  CB        27.6690   71.4650   10.4480 C.3   499  THR499      0.1784
    209  OG1       27.4130   70.7970   11.6880 O.3   499  THR499     -0.2211
    210  CG2       26.3490   71.8320    9.7990 C.3   499  THR499      0.0376
    211  N         29.7600   72.1340    8.2300 N.am  500  TYR500     -0.1975
    212  CA        30.1180   72.8890    7.0330 C.3   500  TYR500      0.1639
    213  C         31.3200   72.3250    6.3070 C.2   500  TYR500      0.2290
    214  O         32.1800   73.0740    5.8480 O.2   500  TYR500     -0.2864
    215  CB        30.3740   74.3550    7.3750 C.3   500  TYR500      0.0560
    216  CG        29.1160   75.1210    7.6640 C.ar  500  TYR500     -0.0198
    217  CD1       28.2240   75.4350    6.6410 C.ar  500  TYR500     -0.0009
    218  CD2       28.7930   75.5000    8.9620 C.ar  500  TYR500     -0.0009
    219  CE1       27.0360   76.1070    6.9040 C.ar  500  TYR500      0.0417
    220  CE2       27.6120   76.1700    9.2340 C.ar  500  TYR500      0.0417
    221  CZ        26.7360   76.4690    8.2040 C.ar  500  TYR500      0.1957
    222  OH        25.5530   77.1160    8.4740 O.3   500  TYR500     -0.2866
@<TRIPOS>BOND
     1   174   175    2
     2   174   173    1
     3   172   173    1
     4   173   176    1
     5   168   167    2
     6   167   166    1
     7   176   177    1
     8   166   165    1
     9   166   169    1
    10   177   178    1
    11   169   171    1
    12   169   170    1
    13   179   178   ar
    14   178   180   ar
    15   214   213    2
    16   213   212    1
    17   160   159    2
    18   217   219   ar
    19   217   216   ar
    20   219   221   ar
    21   212   215    1
    22   212   211    1
    23   207   206    2
    24   215   216    1
    25   159   158    1
    26    73    72    2
    27   216   218   ar
    28    11     9    1
    29   221   222    1
    30   221   220   ar
    31   206   211   am
    32   206   205    1
    33   163   162   ar
    34    72    71    1
    35   158   157    1
    36   158   161    1
    37     9     8    2
    38     9    10    1
    39   218   220   ar
    40     8     7    1
    41   162   161    1
    42   162   164   ar
    43   205   204    1
    44   205   208    1
    45    74    71    1
    46    74    75    1
    47     6     7    1
    48     6     5    1
    49    71    70    1
    50   210   208    1
    51   149   148    2
    52   208   209    1
    53    98    96   ar
    54    77    75   ar
    55    75    76   ar
    56    93    92    2
    57     5     2    1
    58     2     1    1
    59     2     3    1
    60   200   199    2
    61    68    67   ar
    62   156   154    1
    63    65    64    2
    64   148   147    1
    65    95    96    1
    66    95    94    1
    67    96    97   ar
    68     3     4    2
    69    67    66    1
    70    67    69   ar
    71    92    91    1
    72   199   198    1
    73    66    63    1
    74   143   142    2
    75   153   154    2
    76   153   152    1
    77   154   155    1
    78    63    64    1
    79    63    62    1
    80    61    59   ar
    81   202   201    1
    82    91    94    1
    83    91    90    1
    84   147   146    1
    85   147   150    1
    86   151   152    1
    87   151   150    1
    88   192   191    2
    89    29    31   ar
    90    29    27   ar
    91   198   201    1
    92   198   197    1
    93   142   146   am
    94   142   141    1
    95    57    56    2
    96    59    60   ar
    97    59    58    1
    98    62    56   am
    99    31    30   ar
   100   201   203    1
   101    56    55    1
   102   191   197   am
   103   191   190    1
   104   141   140    1
   105   141   144    1
   106    27    26   ar
   107    27    25   ar
   108    26    24   ar
   109    58    55    1
   110    30    28   ar
   111    53    52    1
   112    81    80    2
   113    51    50    2
   114   145   144    1
   115   104   103    1
   116    55    54    1
   117   190   189    1
   118   190   193    1
   119    24    23   ar
   120    25    28   ar
   121    25    23   ar
   122   195   193    1
   123   112   110    1
   124   103   105    1
   125   103   100    1
   126   102   101    2
   127    12    13    1
   128    50    49    1
   129    80    79    1
   130    52    49    1
   131   193   194    1
   132    23    22    1
   133    86    84   ar
   134    86    88   ar
   135    84    83   ar
   136   107   110    1
   137   107   106    1
   138   107   108    1
   139   101   106   am
   140   101   100    1
   141    49    48    1
   142   110   111    1
   143    79    82    1
   144    79    78    1
   145    17    16    1
   146   131   130    1
   147    89    88    1
   148    88    87   ar
   149   100    99    1
   150    83    82    1
   151    83    85   ar
   152    13    16    1
   153    13    14    1
   154   194   196    1
   155   109   108    2
   156   184   183    2
   157    18    19    1
   158   108   113   am
   159   130   128   ar
   160   130   129   ar
   161    87    85   ar
   162    22    19    1
   163    43    42    2
   164   128   126   ar
   165    48    42   am
   166   129   127   ar
   167    19    20    1
   168    14    15    2
   169   183   182    1
   170    42    41    1
   171   119   117    1
   172   113   114    1
   173    38    36    1
   174   126   125   ar
   175   127   125   ar
   176    35    34    2
   177   118   117    1
   178   125   124    1
   179   117   114    1
   180    20    21    2
   181   182   181    1
   182   182   185    1
   183    34    33    1
   184   114   115    1
   185    46    44    1
   186    41    44    1
   187    41    40    1
   188   124   121    1
   189    45    44    1
   190    45    47    1
   191    36    33    1
   192    36    37    1
   193   138   137    1
   194   120   115   am
   195   120   121    1
   196    39    37    1
   197   185   186    1
   198   115   116    2
   199    33    32    1
   200   188   186    1
   201   121   122    1
   202   137   139    1
   203   137   136    1
   204   186   187    1
   205   122   123    2
   206   136   133    1
   207   133   132    1
   208   133   134    1
   209   134   135    2
