@<TRIPOS>MOLECULE
tmp/5eb2A00.pdb
 78 76 0 0 0
SMALL
GASTEIGER

@<TRIPOS>ATOM
      1  N        -28.8940  -54.8040  -13.4570 N.3   129  LEU129     -0.1245
      2  CA       -29.7380  -55.8810  -12.9240 C.3   129  LEU129      0.1561
      3  C        -28.9590  -56.9540  -12.1600 C.2   129  LEU129      0.2260
      4  O        -29.3960  -57.4140  -11.0960 O.2   129  LEU129     -0.2867
      5  CB       -30.5180  -56.5390  -14.0600 C.3   129  LEU129      0.0270
      6  CG       -31.7440  -55.7820  -14.5570 C.3   129  LEU129      0.0019
      7  CD1      -32.2640  -56.4090  -15.8220 C.3   129  LEU129      0.0001
      8  CD2      -32.8200  -55.7700  -13.4920 C.3   129  LEU129      0.0001
      9  N        -27.7870  -55.5980   -8.8060 N.3   132  ILE132     -0.1231
     10  CA       -28.9640  -55.4510   -7.9550 C.3   132  ILE132      0.1692
     11  C        -29.4170  -56.8080   -7.4060 C.2   132  ILE132      0.2591
     12  O        -29.6900  -56.9500   -6.2180 O.2   132  ILE132     -0.2718
     13  CB       -30.1270  -54.7530   -8.7280 C.3   132  ILE132      0.0266
     14  CG1      -29.7800  -53.2730   -8.9530 C.3   132  ILE132      0.0019
     15  CG2      -31.4550  -54.8870   -7.9890 C.3   132  ILE132      0.0020
     16  CD1      -30.8220  -52.4730   -9.7170 C.3   132  ILE132      0.0001
     17  N        -29.4700  -57.8170   -8.2660 N.am  133  ALA133     -0.1980
     18  CA       -29.9280  -59.1350   -7.8490 C.3   133  ALA133      0.1597
     19  C        -29.0260  -59.7650   -6.7660 C.2   133  ALA133      0.2287
     20  O        -29.5250  -60.4190   -5.8460 O.2   133  ALA133     -0.2864
     21  CB       -30.0310  -60.0440   -9.0540 C.3   133  ALA133      0.0319
     22  N        -30.2850  -56.5390   -0.8970 N.3   137  VAL137     -0.1231
     23  CA       -31.4170  -55.6700   -0.5890 C.3   137  VAL137      0.1692
     24  C        -32.4980  -55.8980   -1.6420 C.2   137  VAL137      0.2592
     25  O        -32.2470  -56.5090   -2.6770 O.2   137  VAL137     -0.2718
     26  CB       -31.0260  -54.1590   -0.5440 C.3   137  VAL137      0.0266
     27  CG1      -29.9340  -53.9050    0.4850 C.3   137  VAL137      0.0020
     28  CG2      -30.5920  -53.6620   -1.9120 C.3   137  VAL137      0.0020
     29  N        -33.6910  -55.3710   -1.3850 N.am  138  ARG138     -0.1966
     30  CA       -34.7910  -55.4590   -2.3410 C.3   138  ARG138      0.1729
     31  C        -35.0840  -54.0970   -2.9680 C.2   138  ARG138      0.2616
     32  O        -35.3590  -53.1270   -2.2620 O.2   138  ARG138     -0.2715
     33  CB       -36.0470  -56.0090   -1.6630 C.3   138  ARG138      0.0348
     34  CG       -36.3070  -57.4810   -1.9370 C.3   138  ARG138      0.0492
     35  CD       -37.2940  -58.0630   -0.9390 C.3   138  ARG138      0.2205
     36  NE       -38.6770  -57.7620   -1.2990 N.pl3 138  ARG138     -0.0865
     37  CZ       -39.2690  -58.1880   -2.4100 C.cat 138  ARG138      0.5346
     38  NH1      -40.5320  -57.8660   -2.6560 N.pl3 138  ARG138      0.1354
     39  NH2      -38.5990  -58.9370   -3.2760 N.pl3 138  ARG138      0.1354
     40  N        -35.0250  -54.0320   -4.2950 N.am  139  VAL139     -0.1963
     41  CA       -35.2760  -52.7920   -5.0140 C.3   139  VAL139      0.1727
     42  C        -36.5700  -52.8390   -5.8030 C.2   139  VAL139      0.2616
     43  O        -36.7300  -53.6880   -6.6700 O.2   139  VAL139     -0.2715
     44  CB       -34.1410  -52.4800   -6.0080 C.3   139  VAL139      0.0290
     45  CG1      -34.4180  -51.1720   -6.7260 C.3   139  VAL139      0.0023
     46  CG2      -32.7950  -52.4460   -5.3050 C.3   139  VAL139      0.0023
     47  N        -37.4870  -51.9150   -5.5410 N.am  140  HIS140     -0.1960
     48  CA       -38.6950  -51.8440   -6.3570 C.3   140  HIS140      0.1772
     49  C        -38.3980  -51.3210   -7.7690 C.2   140  HIS140      0.2462
     50  O        -37.6990  -50.3370   -7.9200 O.2   140  HIS140     -0.2730
     51  CB       -39.7510  -50.9600   -5.6900 C.3   140  HIS140      0.0785
     52  CG       -41.1390  -51.2230   -6.1900 C.ar  140  HIS140      0.0821
     53  ND1      -41.7030  -50.5120   -7.2260 N.ar  140  HIS140     -0.2267
     54  CD2      -42.0590  -52.1490   -5.8260 C.ar  140  HIS140      0.1154
     55  CE1      -42.9180  -50.9720   -7.4680 C.ar  140  HIS140      0.1986
     56  NE2      -43.1560  -51.9690   -6.6340 N.ar  140  HIS140     -0.2212
     57  N        -38.9480  -51.9680   -8.8100 N.am  141  PRO141     -0.2727
     58  CA       -38.6580  -51.5440  -10.1890 C.3   141  PRO141      0.1402
     59  C        -39.1130  -50.1200  -10.5140 C.2   141  PRO141      0.2269
     60  O        -38.6610  -49.5510  -11.5080 O.2   141  PRO141     -0.2865
     61  CB       -39.4440  -52.5510  -11.0440 C.3   141  PRO141      0.0296
     62  CG       -39.7240  -53.6890  -10.1450 C.3   141  PRO141      0.0237
     63  CD       -39.8610  -53.1210   -8.7740 C.3   141  PRO141      0.0939
     64  N        -38.2230  -47.5730   -9.2720 N.3   143  VAL143     -0.1231
     65  CA       -37.0890  -46.6820   -9.0600 C.3   143  VAL143      0.1692
     66  C        -36.6470  -46.0790  -10.3920 C.2   143  VAL143      0.2591
     67  O        -36.0340  -45.0190  -10.4310 O.2   143  VAL143     -0.2718
     68  CB       -35.8980  -47.4170   -8.3690 C.3   143  VAL143      0.0266
     69  CG1      -35.2950  -48.5050   -9.2670 C.3   143  VAL143      0.0020
     70  CG2      -34.8350  -46.4340   -7.9670 C.3   143  VAL143      0.0020
     71  N        -36.9900  -46.7390  -11.4920 N.am  144  LEU144     -0.1980
     72  CA       -36.6320  -46.2160  -12.8030 C.3   144  LEU144      0.1596
     73  C        -37.5650  -45.0940  -13.2590 C.2   144  LEU144      0.2287
     74  O        -37.2220  -44.3630  -14.1810 O.2   144  LEU144     -0.2864
     75  CB       -36.6110  -47.3420  -13.8290 C.3   144  LEU144      0.0297
     76  CG       -35.5640  -48.4030  -13.5070 C.3   144  LEU144      0.0022
     77  CD1      -35.4460  -49.3660  -14.6640 C.3   144  LEU144      0.0001
     78  CD2      -34.2220  -47.7530  -13.2020 C.3   144  LEU144      0.0001
@<TRIPOS>BOND
     1     7     6    1
     2    77    76    1
     3     6     5    1
     4     6     8    1
     5    74    73    2
     6     5     2    1
     7    75    76    1
     8    75    72    1
     9    76    78    1
    10     1     2    1
    11    73    72    1
    12     2     3    1
    13    72    71    1
    14     3     4    2
    15    60    59    2
    16    71    66   am
    17    61    58    1
    18    61    62    1
    19    59    58    1
    20    67    66    2
    21    66    65    1
    22    58    57    1
    23    62    63    1
    24    16    14    1
    25    64    65    1
    26    69    68    1
    27    65    68    1
    28    21    18    1
    29    14    13    1
    30    57    63    1
    31    57    49   am
    32     9    10    1
    33    13    15    1
    34    13    10    1
    35    68    70    1
    36    17    18    1
    37    17    11   am
    38    10    11    1
    39    50    49    2
    40    18    19    1
    41    49    48    1
    42    55    53   ar
    43    55    56   ar
    44    11    12    2
    45    53    52   ar
    46    19    20    2
    47    45    44    1
    48    43    42    2
    49    56    54   ar
    50    48    51    1
    51    48    47    1
    52    52    54   ar
    53    52    51    1
    54    44    46    1
    55    44    41    1
    56    42    47   am
    57    42    41    1
    58    41    40    1
    59    40    31   am
    60    39    37    1
    61    31    30    1
    62    31    32    2
    63    25    24    2
    64    38    37    1
    65    37    36    2
    66    30    33    1
    67    30    29    1
    68    34    33    1
    69    34    35    1
    70    28    26    1
    71    24    29   am
    72    24    23    1
    73    36    35    1
    74    22    23    1
    75    23    26    1
    76    26    27    1
