@<TRIPOS>MOLECULE
tmp/5eb4A03.pdb
 84 80 0 0 0
SMALL
GASTEIGER

@<TRIPOS>ATOM
      1  N         23.9170   20.1680  -10.1160 N.3   117  ASN117     -0.1240
      2  CA        25.0810   20.4550  -10.9670 C.3   117  ASN117      0.1653
      3  C         25.1050   19.4330  -12.1110 C.2   117  ASN117      0.2266
      4  O         25.0820   18.2180  -11.8540 O.2   117  ASN117     -0.2867
      5  CB        26.3190   20.3480  -10.0490 C.3   117  ASN117      0.1155
      6  CG        27.6820   20.3370  -10.7840 C.2   117  ASN117      0.2627
      7  OD1       27.7910   20.2110  -12.0300 O.2   117  ASN117     -0.2716
      8  ND2       28.7430   20.4710   -9.9780 N.am  117  ASN117     -0.0877
      9  N         27.3360   18.2560  -14.0230 N.3   119  SER119     -0.1202
     10  CA        28.4610   17.3090  -13.9970 C.3   119  SER119      0.2020
     11  C         28.2150   16.0950  -13.1010 C.2   119  SER119      0.2618
     12  O         28.9710   15.1080  -13.1590 O.2   119  SER119     -0.2717
     13  CB        29.7240   17.9870  -13.5180 C.3   119  SER119      0.2103
     14  OG        30.0430   19.0690  -14.3490 O.3   119  SER119     -0.2182
     15  N         27.1650   16.1740  -12.2820 N.am  120  PHE120     -0.1975
     16  CA        26.8610   15.1570  -11.3010 C.3   120  PHE120      0.1639
     17  C         26.4400   13.8930  -11.9920 C.2   120  PHE120      0.2290
     18  O         26.8360   12.8140  -11.5610 O.2   120  PHE120     -0.2864
     19  CB        25.7760   15.6520  -10.3510 C.3   120  PHE120      0.0560
     20  CG        25.2360   14.6050   -9.4270 C.ar  120  PHE120     -0.0200
     21  CD1       24.1270   13.8640   -9.7800 C.ar  120  PHE120     -0.0042
     22  CD2       25.8340   14.3800   -8.1920 C.ar  120  PHE120     -0.0042
     23  CE1       23.6200   12.9170   -8.9170 C.ar  120  PHE120     -0.0003
     24  CE2       25.3300   13.4300   -7.3230 C.ar  120  PHE120     -0.0003
     25  CZ        24.2100   12.7090   -7.6810 C.ar  120  PHE120     -0.0000
     26  N         29.4050   12.0460  -13.4750 N.3   123  GLN123     -0.1245
     27  CA        30.2960   11.6220  -12.3980 C.3   123  GLN123      0.1566
     28  C         29.8460   10.3010  -11.7370 C.2   123  GLN123      0.2260
     29  O         30.6810    9.4470  -11.4430 O.2   123  GLN123     -0.2867
     30  CB        30.5240   12.7660  -11.4130 C.3   123  GLN123      0.0367
     31  CG        30.5870   12.3500   -9.9630 C.3   123  GLN123      0.0905
     32  CD        31.5880   13.1280   -9.1230 C.2   123  GLN123      0.2608
     33  OE1       31.2070   13.9540   -8.2730 O.2   123  GLN123     -0.2717
     34  NE2       32.8810   12.8370   -9.3260 N.am  123  GLN123     -0.0878
     35  N         22.6820   24.8820  -10.5510 N.3   176  HIS176     -0.1226
     36  CA        23.8870   24.9950   -9.7520 C.3   176  HIS176      0.1752
     37  C         25.0510   25.3370  -10.6530 C.2   176  HIS176      0.2596
     38  O         25.5390   24.4910  -11.3830 O.2   176  HIS176     -0.2718
     39  CB        24.1810   23.7060   -9.0340 C.3   176  HIS176      0.0759
     40  CG        25.4040   23.7590   -8.1730 C.ar  176  HIS176      0.0818
     41  ND1       25.3580   24.1090   -6.8420 N.ar  176  HIS176     -0.2268
     42  CD2       26.7040   23.4730   -8.4470 C.ar  176  HIS176      0.1154
     43  CE1       26.5770   24.0220   -6.3290 C.ar  176  HIS176      0.1986
     44  NE2       27.4150   23.6520   -7.2860 N.ar  176  HIS176     -0.2212
     45  N         25.4850   26.5900  -10.6050 N.am  177  GLU177     -0.1965
     46  CA        26.5900   27.0490  -11.4340 C.3   177  GLU177      0.1733
     47  C         27.4560   27.9740  -10.6460 C.2   177  GLU177      0.2616
     48  O         26.9830   28.6810   -9.7580 O.2   177  GLU177     -0.2715
     49  CB        26.0880   27.8240  -12.6410 C.3   177  GLU177      0.0429
     50  CG        25.4870   26.9690  -13.7270 C.3   177  GLU177      0.1163
     51  CD        25.0030   27.8200  -14.8780 C.2   177  GLU177      0.3649
     52  OE1       25.4280   27.5220  -16.0180 O.co2 177  GLU177     -0.2457
     53  OE2       24.2220   28.7840  -14.6440 O.co2 177  GLU177     -0.2457
     54  N         28.7270   27.9750  -11.0000 N.am  178  ALA178     -0.1977
     55  CA        29.6830   28.9090  -10.4490 C.3   178  ALA178      0.1597
     56  C         29.1740   30.3830  -10.6060 C.2   178  ALA178      0.2287
     57  O         28.6390   30.7610  -11.6660 O.2   178  ALA178     -0.2864
     58  CB        31.0470   28.6930  -11.1270 C.3   178  ALA178      0.0319
     59  N         28.2850   30.7040   -5.4690 N.3   318  ILE318     -0.1245
     60  CA        28.8220   29.3720   -5.7240 C.3   318  ILE318      0.1561
     61  C         30.2400   29.4560   -6.2940 C.2   318  ILE318      0.2260
     62  O         30.4760   30.1560   -7.2830 O.2   318  ILE318     -0.2867
     63  CB        27.9130   28.5530   -6.6810 C.3   318  ILE318      0.0252
     64  CG1       26.4410   28.4980   -6.1840 C.3   318  ILE318      0.0019
     65  CG2       28.4770   27.1470   -6.9120 C.3   318  ILE318      0.0019
     66  CD1       26.2340   27.8730   -4.8100 C.3   318  ILE318      0.0001
     67  N         33.5420   26.2890   -6.8080 N.3   320  SER320     -0.1217
     68  CA        33.7620   24.8510   -6.7360 C.3   320  SER320      0.1889
     69  C         34.1650   24.3240   -5.3610 C.2   320  SER320      0.2288
     70  O         33.8690   23.1890   -5.0480 O.2   320  SER320     -0.2866
     71  CB        34.7720   24.4390   -7.7740 C.3   320  SER320      0.2089
     72  OG        34.1400   24.5910   -9.0310 O.3   320  SER320     -0.2183
     73  N         30.2550   26.9070   -1.0970 N.3   323  TYR323     -0.1241
     74  CA        28.9210   27.4110   -1.4720 C.3   323  TYR323      0.1605
     75  C         28.4600   28.3030   -0.3150 C.2   323  TYR323      0.2264
     76  O         28.4480   27.8790    0.8560 O.2   323  TYR323     -0.2867
     77  CB        27.9270   26.2730   -1.7030 C.3   323  TYR323      0.0534
     78  CG        28.3990   25.0780   -2.5420 C.ar  323  TYR323     -0.0201
     79  CD1       29.1160   25.2450   -3.7390 C.ar  323  TYR323     -0.0009
     80  CD2       28.1110   23.7510   -2.1300 C.ar  323  TYR323     -0.0009
     81  CE1       29.5280   24.1310   -4.4940 C.ar  323  TYR323      0.0417
     82  CE2       28.4990   22.6400   -2.8930 C.ar  323  TYR323      0.0417
     83  CZ        29.2110   22.8330   -4.0730 C.ar  323  TYR323      0.1957
     84  OH        29.6040   21.7370   -4.8300 O.3   323  TYR323     -0.2866
@<TRIPOS>BOND
     1    52    51   ar
     2    51    53   ar
     3    51    50    1
     4    14    13    1
     5     9    10    1
     6    10    13    1
     7    10    11    1
     8    50    49    1
     9    26    27    1
    10    12    11    2
    11    11    15   am
    12    49    46    1
    13    27    28    1
    14    27    30    1
    15    15    16    1
    16     3     4    2
    17     3     2    1
    18     7     6    2
    19    17    18    2
    20    17    16    1
    21    28    29    2
    22    57    56    2
    23    46    47    1
    24    46    45    1
    25    30    31    1
    26    38    37    2
    27    16    19    1
    28    58    55    1
    29    54    47   am
    30    54    55    1
    31     2     1    1
    32     2     5    1
    33     6     5    1
    34     6     8   am
    35    37    45   am
    36    37    36    1
    37    47    48    2
    38    56    55    1
    39    35    36    1
    40    19    20    1
    41    31    32    1
    42    21    20   ar
    43    21    23   ar
    44    36    39    1
    45    20    22   ar
    46    34    32   am
    47    32    33    2
    48    39    40    1
    49    72    71    1
    50    23    25   ar
    51    42    40   ar
    52    42    44   ar
    53    22    24   ar
    54    40    41   ar
    55    71    68    1
    56    25    24   ar
    57    44    43   ar
    58    62    61    2
    59    65    63    1
    60    41    43   ar
    61    67    68    1
    62    68    69    1
    63    63    64    1
    64    63    60    1
    65    61    60    1
    66    64    66    1
    67    60    59    1
    68    69    70    2
    69    84    83    1
    70    81    83   ar
    71    81    79   ar
    72    83    82   ar
    73    79    78   ar
    74    82    80   ar
    75    78    80   ar
    76    78    77    1
    77    77    74    1
    78    74    73    1
    79    74    75    1
    80    75    76    2
