@<TRIPOS>MOLECULE
tmp/5eb5B05.pdb
 131 127 0 0 0
SMALL
GASTEIGER

@<TRIPOS>ATOM
      1  N         19.8310   36.4830   30.8110 N.3    71  PHE71      -0.1241
      2  CA        18.6010   36.6620   31.5990 C.3    71  PHE71       0.1605
      3  C         17.7750   35.3770   31.7170 C.2    71  PHE71       0.2264
      4  O         17.2600   35.0630   32.7950 O.2    71  PHE71      -0.2867
      5  CB        17.7480   37.8150   31.0390 C.3    71  PHE71       0.0534
      6  CG        16.3890   37.9400   31.6810 C.ar   71  PHE71      -0.0203
      7  CD1       16.2520   38.4680   32.9710 C.ar   71  PHE71      -0.0042
      8  CD2       15.2410   37.5250   31.0000 C.ar   71  PHE71      -0.0042
      9  CE1       14.9980   38.5740   33.5670 C.ar   71  PHE71      -0.0003
     10  CE2       13.9850   37.6300   31.5910 C.ar   71  PHE71      -0.0003
     11  CZ        13.8640   38.1570   32.8750 C.ar   71  PHE71      -0.0000
     12  N         14.7970   42.0020   34.8380 N.3   110  ALA110     -0.1245
     13  CA        14.6660   42.3810   33.4270 C.3   110  ALA110      0.1562
     14  C         15.1970   43.7940   33.1320 C.2   110  ALA110      0.2260
     15  O         15.2140   44.2300   31.9770 O.2   110  ALA110     -0.2867
     16  CB        13.2220   42.2190   32.9610 C.3   110  ALA110      0.0290
     17  N         14.3480   47.0340   33.7500 N.3   112  VAL112     -0.1245
     18  CA        13.5470   48.1920   33.3410 C.3   112  VAL112      0.1561
     19  C         13.5890   49.2500   34.4460 C.2   112  VAL112      0.2260
     20  O         13.1190   49.0060   35.5640 O.2   112  VAL112     -0.2867
     21  CB        12.0790   47.8090   33.0190 C.3   112  VAL112      0.0252
     22  CG1       11.3310   48.9860   32.4010 C.3   112  VAL112      0.0019
     23  CG2       12.0070   46.5930   32.0990 C.3   112  VAL112      0.0019
     24  N          0.6080   38.9950   36.3560 N.3   296  ARG296     -0.1245
     25  CA         1.1120   39.0630   34.9880 C.3   296  ARG296      0.1563
     26  C          0.2610   38.1610   34.1000 C.2   296  ARG296      0.2260
     27  O          0.1610   36.9520   34.3360 O.2   296  ARG296     -0.2867
     28  CB         2.5870   38.6470   34.9320 C.3   296  ARG296      0.0307
     29  CG         3.2320   38.7050   33.5480 C.3   296  ARG296      0.0489
     30  CD         4.7560   38.7670   33.6140 C.3   296  ARG296      0.2205
     31  NE         5.3530   37.6430   34.3410 N.pl3 296  ARG296     -0.0865
     32  CZ         5.6840   36.4690   33.8050 C.cat 296  ARG296      0.5346
     33  NH1        5.4890   36.2280   32.5150 N.pl3 296  ARG296      0.1354
     34  NH2        6.2170   35.5270   34.5710 N.pl3 296  ARG296      0.1354
     35  N         13.2400   44.7190   27.5140 N.3   312  ALA312     -0.1245
     36  CA        12.0610   45.5740   27.6570 C.3   312  ALA312      0.1562
     37  C         12.4630   47.0110   27.9770 C.2   312  ALA312      0.2260
     38  O         13.1640   47.2600   28.9610 O.2   312  ALA312     -0.2867
     39  CB        11.1340   45.0180   28.7270 C.3   312  ALA312      0.0290
     40  N          3.8610   45.9950   28.4190 N.3   324  VAL324     -0.1231
     41  CA         5.2110   45.9180   27.8260 C.3   324  VAL324      0.1692
     42  C          5.3700   44.5770   27.0730 C.2   324  VAL324      0.2593
     43  O          4.5390   43.6820   27.2310 O.2   324  VAL324     -0.2718
     44  CB         6.3260   46.1460   28.8990 C.3   324  VAL324      0.0266
     45  CG1        6.4710   44.9500   29.8320 C.3   324  VAL324      0.0020
     46  CG2        7.6660   46.4940   28.2620 C.3   324  VAL324      0.0020
     47  N          6.4150   44.4530   26.2500 N.am  325  SER325     -0.1938
     48  CA         6.7330   43.1950   25.5630 C.3   325  SER325      0.2055
     49  C          8.2280   42.8780   25.5400 C.2   325  SER325      0.2642
     50  O          9.0640   43.7840   25.5640 O.2   325  SER325     -0.2714
     51  CB         6.1740   43.1950   24.1370 C.3   325  SER325      0.2130
     52  OG         6.4800   41.9850   23.4590 O.3   325  SER325     -0.2179
     53  N          8.5410   41.5830   25.4860 N.am  326  LEU326     -0.1977
     54  CA         9.9170   41.0950   25.3780 C.3   326  LEU326      0.1596
     55  C         10.0480   40.1010   24.2240 C.2   326  LEU326      0.2287
     56  O          9.2740   39.1460   24.1330 O.2   326  LEU326     -0.2864
     57  CB        10.3550   40.4320   26.6900 C.3   326  LEU326      0.0297
     58  CG        11.8170   39.9940   26.8360 C.3   326  LEU326      0.0022
     59  CD1       12.6220   41.0350   27.6040 C.3   326  LEU326      0.0001
     60  CD2       11.8950   38.6420   27.5270 C.3   326  LEU326      0.0001
     61  N          8.9800   32.4570   34.4640 N.3   338  LEU338     -0.1245
     62  CA         8.5640   33.2190   33.2730 C.3   338  LEU338      0.1561
     63  C          7.1610   32.8120   32.8200 C.2   338  LEU338      0.2260
     64  O          6.3620   33.6530   32.4040 O.2   338  LEU338     -0.2867
     65  CB         9.5760   33.0630   32.1260 C.3   338  LEU338      0.0270
     66  CG         9.3640   33.8490   30.8200 C.3   338  LEU338      0.0019
     67  CD1        9.7090   35.3250   30.9680 C.3   338  LEU338      0.0001
     68  CD2       10.1700   33.2270   29.6900 C.3   338  LEU338      0.0001
     69  N          6.9680   37.8480   23.7460 N.3   353  HIS353     -0.1241
     70  CA         6.2420   37.7320   25.0020 C.3   353  HIS353      0.1621
     71  C          5.5870   39.0780   25.3280 C.2   353  HIS353      0.2264
     72  O          6.2320   39.9880   25.8590 O.2   353  HIS353     -0.2867
     73  CB         7.2030   37.2750   26.1060 C.3   353  HIS353      0.0745
     74  CG         6.5420   37.0010   27.4200 C.ar  353  HIS353      0.0817
     75  ND1        5.6980   35.9300   27.6210 N.ar  353  HIS353     -0.2268
     76  CD2        6.6230   37.6440   28.6080 C.ar  353  HIS353      0.1154
     77  CE1        5.2780   35.9330   28.8730 C.ar  353  HIS353      0.1986
     78  NE2        5.8250   36.9620   29.4930 N.ar  353  HIS353     -0.2212
     79  N          2.9650   41.4030   27.2980 N.3   355  VAL355     -0.1245
     80  CA         2.6490   41.3570   28.7320 C.3   355  VAL355      0.1561
     81  C          1.7790   42.5280   29.2320 C.2   355  VAL355      0.2260
     82  O          1.8540   43.6360   28.6910 O.2   355  VAL355     -0.2867
     83  CB         3.9770   41.1890   29.5300 C.3   355  VAL355      0.0252
     84  CG1        4.1420   42.1840   30.6710 C.3   355  VAL355      0.0019
     85  CG2        4.1180   39.7650   30.0230 C.3   355  VAL355      0.0019
     86  N          4.2890   38.7680   38.1300 N.3   448  TYR448     -0.1227
     87  CA         5.0400   39.8590   37.4970 C.3   448  TYR448      0.1736
     88  C          6.4390   40.0240   38.0990 C.2   448  TYR448      0.2595
     89  O          7.2890   40.7000   37.5130 O.2   448  TYR448     -0.2718
     90  CB         4.2710   41.1870   37.5300 C.3   448  TYR448      0.0548
     91  CG         4.5660   42.0620   36.3300 C.ar  448  TYR448     -0.0200
     92  CD1        3.7910   41.9700   35.1710 C.ar  448  TYR448     -0.0009
     93  CD2        5.6300   42.9720   36.3400 C.ar  448  TYR448     -0.0009
     94  CE1        4.0650   42.7550   34.0600 C.ar  448  TYR448      0.0417
     95  CE2        5.9140   43.7620   35.2310 C.ar  448  TYR448      0.0417
     96  CZ         5.1280   43.6530   34.0960 C.ar  448  TYR448      0.1957
     97  OH         5.4010   44.4360   33.0000 O.3   448  TYR448     -0.2866
     98  N          6.6600   39.3830   39.2530 N.am  449  TRP449     -0.1962
     99  CA         7.9160   39.4180   40.0300 C.3   449  TRP449      0.1771
    100  C          8.0640   40.6750   40.8900 C.2   449  TRP449      0.2619
    101  O          9.0370   40.8160   41.6360 O.2   449  TRP449     -0.2715
    102  CB         9.1560   39.2630   39.1390 C.3   449  TRP449      0.0590
    103  CG         9.2110   38.0540   38.2590 C.ar  449  TRP449      0.0006
    104  CD1        9.1240   36.7510   38.6470 C.ar  449  TRP449      0.0946
    105  CD2        9.4170   38.0380   36.8390 C.ar  449  TRP449      0.0152
    106  NE1        9.2410   35.9240   37.5580 N.ar  449  TRP449     -0.2442
    107  CE2        9.4230   36.6830   36.4350 C.ar  449  TRP449      0.0810
    108  CE3        9.5870   39.0380   35.8660 C.ar  449  TRP449      0.0012
    109  CZ2        9.5930   36.2940   35.0970 C.ar  449  TRP449      0.0191
    110  CZ3        9.7610   38.6540   34.5350 C.ar  449  TRP449      0.0001
    111  CH2        9.7600   37.2910   34.1640 C.ar  449  TRP449      0.0015
    112  N          7.0850   41.5720   40.7920 N.am  450  HIS450     -0.1973
    113  CA         7.1420   42.8900   41.4200 C.3   450  HIS450      0.1656
    114  C          6.4360   42.9090   42.7870 C.2   450  HIS450      0.2291
    115  O          5.9250   43.9500   43.2220 O.2   450  HIS450     -0.2864
    116  CB         6.5460   43.9350   40.4640 C.3   450  HIS450      0.0771
    117  CG         7.3490   44.1560   39.2150 C.ar  450  HIS450      0.0820
    118  ND1        7.2230   45.2930   38.4480 N.ar  450  HIS450     -0.2267
    119  CD2        8.2860   43.3930   38.6020 C.ar  450  HIS450      0.1154
    120  CE1        8.0490   45.2220   37.4190 C.ar  450  HIS450      0.1986
    121  NE2        8.7020   44.0770   37.4870 N.ar  450  HIS450     -0.2212
    122  N          7.4500   49.5050   37.0920 N.3   488  HIS488     -0.1241
    123  CA         8.7190   48.8220   37.3720 C.3   488  HIS488      0.1621
    124  C          9.4560   49.4780   38.5600 C.2   488  HIS488      0.2264
    125  O         10.0250   50.5670   38.4140 O.2   488  HIS488     -0.2867
    126  CB         9.5890   48.7650   36.1080 C.3   488  HIS488      0.0745
    127  CG         9.0100   47.9160   35.0170 C.ar  488  HIS488      0.0817
    128  ND1        8.0900   48.3950   34.1100 N.ar  488  HIS488     -0.2268
    129  CD2        9.2120   46.6160   34.6960 C.ar  488  HIS488      0.1154
    130  CE1        7.7520   47.4280   33.2760 C.ar  488  HIS488      0.1986
    131  NE2        8.4190   46.3380   33.6080 N.ar  488  HIS488     -0.2212
@<TRIPOS>BOND
     1    52    51    1
     2    69    70    1
     3    56    55    2
     4    51    48    1
     5    55    54    1
     6    70    71    1
     7    70    73    1
     8    71    72    2
     9    54    53    1
    10    54    57    1
    11    53    49   am
    12    49    48    1
    13    49    50    2
    14    48    47    1
    15    73    74    1
    16    47    42   am
    17    57    58    1
    18    58    60    1
    19    58    59    1
    20    42    43    2
    21    42    41    1
    22    79    80    1
    23    74    75   ar
    24    74    76   ar
    25    35    36    1
    26    75    77   ar
    27    36    37    1
    28    36    39    1
    29    41    40    1
    30    41    44    1
    31    37    38    2
    32    46    44    1
    33    76    78   ar
    34    82    81    2
    35    80    81    1
    36    80    83    1
    37    77    78   ar
    38    44    45    1
    39    83    85    1
    40    83    84    1
    41    68    66    1
    42     1     2    1
    43    66    67    1
    44    66    65    1
    45     8    10   ar
    46     8     6   ar
    47     5     2    1
    48     5     6    1
    49    10    11   ar
    50     2     3    1
    51     6     7   ar
    52     3     4    2
    53    15    14    2
    54    23    21    1
    55    65    62    1
    56    22    21    1
    57    64    63    2
    58    33    32    1
    59    63    62    1
    60    11     9   ar
    61    16    13    1
    62     7     9   ar
    63    97    96    1
    64    21    18    1
    65    14    13    1
    66    62    61    1
    67   130   131   ar
    68   130   128   ar
    69    18    17    1
    70    18    19    1
    71    13    12    1
    72    29    30    1
    73    29    28    1
    74   131   129   ar
    75    30    31    1
    76    32    31    2
    77    32    34    1
    78    94    96   ar
    79    94    92   ar
    80    96    95   ar
    81    26    27    2
    82    26    25    1
    83   128   127   ar
    84   111   110   ar
    85   111   109   ar
    86    19    20    2
    87   110   108   ar
    88   129   127   ar
    89    28    25    1
    90    25    24    1
    91   127   126    1
    92   109   107   ar
    93    92    91   ar
    94    95    93   ar
    95   108   105   ar
    96   126   123    1
    97    91    93   ar
    98    91    90    1
    99   107   105   ar
   100   107   106   ar
   101   105   103   ar
   102   122   123    1
   103   123   124    1
   104   120   121   ar
   105   120   118   ar
   106   121   119   ar
   107    87    90    1
   108    87    88    1
   109    87    86    1
   110    89    88    2
   111   106   104   ar
   112    88    98   am
   113   103   104   ar
   114   103   102    1
   115   125   124    2
   116   118   117   ar
   117   119   117   ar
   118   102    99    1
   119   117   116    1
   120    98    99    1
   121    99   100    1
   122   116   113    1
   123   112   100   am
   124   112   113    1
   125   100   101    2
   126   113   114    1
   127   114   115    2
