@<TRIPOS>MOLECULE
tmp/5ebbA03.pdb
 95 92 0 0 0
SMALL
GASTEIGER

@<TRIPOS>ATOM
      1  N         -9.5970   19.2740   13.3830 N.3    12  ASP12      -0.1239
      2  CA        -9.7350   17.9000   13.0670 C.3    12  ASP12       0.1674
      3  C        -11.0440   17.5930   12.3390 C.2    12  ASP12       0.2266
      4  O        -11.8050   16.7270   12.7450 O.2    12  ASP12      -0.2867
      5  CB        -9.5540   17.0420   14.3350 C.3    12  ASP12       0.1410
      6  CG        -8.1580   17.1300   14.9010 C.2    12  ASP12       0.3668
      7  OD1       -7.9150   17.9980   15.7080 O.co2  12  ASP12      -0.2456
      8  OD2       -7.2780   16.3710   14.4860 O.co2  12  ASP12      -0.2456
      9  N        -11.3000   16.2900    9.2610 N.3    14  HIS14      -0.1241
     10  CA       -11.1490   14.9810    8.6260 C.3    14  HIS14       0.1621
     11  C        -12.2890   14.6380    7.6770 C.2    14  HIS14       0.2264
     12  O        -13.0600   13.6860    7.9010 O.2    14  HIS14      -0.2867
     13  CB       -11.0460   13.9050    9.6740 C.3    14  HIS14       0.0745
     14  CG        -9.8040   13.9380   10.4770 C.ar   14  HIS14       0.0817
     15  ND1       -8.5790   13.6300    9.9470 N.ar   14  HIS14      -0.2268
     16  CD2       -9.5990   14.1630   11.8020 C.ar   14  HIS14       0.1154
     17  CE1       -7.6700   13.6500   10.9080 C.ar   14  HIS14       0.1986
     18  NE2       -8.2550   13.9930   12.0440 N.ar   14  HIS14      -0.2212
     19  N         -5.6250   18.7960   10.3670 N.3    77  ASP77      -0.1239
     20  CA        -6.1560   17.4410   10.0730 C.3    77  ASP77       0.1674
     21  C         -7.4220   17.4460    9.1820 C.2    77  ASP77       0.2266
     22  O         -8.5310   17.2000    9.6470 O.2    77  ASP77      -0.2867
     23  CB        -6.4150   16.6870   11.3810 C.3    77  ASP77       0.1410
     24  CG        -5.2840   15.7750   11.7880 C.2    77  ASP77       0.3668
     25  OD1       -4.1560   15.9120   11.2510 O.co2  77  ASP77      -0.2456
     26  OD2       -5.5310   14.9450   12.7060 O.co2  77  ASP77      -0.2456
     27  N         -8.9530    9.3380    7.6680 N.3    81  HIS81      -0.1241
     28  CA        -8.1080    8.2490    8.0920 C.3    81  HIS81       0.1621
     29  C         -8.3040    7.0860    7.1380 C.2    81  HIS81       0.2264
     30  O         -9.1160    6.1620    7.4020 O.2    81  HIS81      -0.2867
     31  CB        -8.5040    7.8020    9.4850 C.3    81  HIS81       0.0745
     32  CG        -8.3760    8.8630   10.5040 C.ar   81  HIS81       0.0817
     33  ND1       -9.2180    9.9530   10.5430 N.ar   81  HIS81      -0.2268
     34  CD2       -7.5300    8.9990   11.5440 C.ar   81  HIS81       0.1154
     35  CE1       -8.8640   10.7430   11.5380 C.ar   81  HIS81       0.1986
     36  NE2       -7.8600   10.1730   12.1770 N.ar   81  HIS81      -0.2212
     37  N         -1.1310   16.3420   11.4300 N.3   118  ASN118     -0.1225
     38  CA        -0.2450   15.2580   11.0130 C.3   118  ASN118      0.1785
     39  C         -0.7540   14.5340    9.7720 C.2   118  ASN118      0.2597
     40  O          0.0710   13.9430    9.0680 O.2   118  ASN118     -0.2718
     41  CB        -0.0190   14.2860   12.1670 C.3   118  ASN118      0.1169
     42  CG        -1.3040   13.6810   12.6390 C.2   118  ASN118      0.2627
     43  OD1       -2.3040   14.3820   12.9590 O.2   118  ASN118     -0.2716
     44  ND2       -1.3190   12.3800   12.6500 N.am  118  ASN118     -0.0877
     45  N         -2.0820   14.5790    9.5280 N.am  119  HIS119     -0.1975
     46  CA        -2.7180   14.1210    8.2850 C.3   119  HIS119      0.1656
     47  C         -2.7390   15.1540    7.1760 C.2   119  HIS119      0.2291
     48  O         -3.2100   14.8690    6.1020 O.2   119  HIS119     -0.2864
     49  CB        -4.1430   13.7000    8.5120 C.3   119  HIS119      0.0771
     50  CG        -4.2650   12.4350    9.2910 C.ar  119  HIS119      0.0820
     51  ND1       -4.5090   11.2100    8.6960 N.ar  119  HIS119     -0.2267
     52  CD2       -4.1520   12.1930   10.6250 C.ar  119  HIS119      0.1154
     53  CE1       -4.5460   10.2770    9.6290 C.ar  119  HIS119      0.1986
     54  NE2       -4.3270   10.8410   10.8070 N.ar  119  HIS119     -0.2212
     55  N          1.0140   10.6550    5.7120 N.3   124  GLN124     -0.1245
     56  CA         0.7020   11.1840    7.0000 C.3   124  GLN124      0.1566
     57  C          1.8890   11.0970    7.9200 C.2   124  GLN124      0.2260
     58  O          2.6790   10.1680    7.8540 O.2   124  GLN124     -0.2867
     59  CB        -0.4860   10.4850    7.6150 C.3   124  GLN124      0.0367
     60  CG        -0.2320    9.0610    8.0250 C.3   124  GLN124      0.0905
     61  CD        -1.3710    8.4960    8.8460 C.2   124  GLN124      0.2608
     62  OE1       -2.2800    7.9520    8.2920 O.2   124  GLN124     -0.2717
     63  NE2       -1.3480    8.6930   10.1500 N.am  124  GLN124     -0.0878
     64  N          6.2630   14.9710   16.5320 N.3   181  TYR181     -0.1241
     65  CA         5.4190   13.8110   16.7660 C.3   181  TYR181      0.1605
     66  C          6.1430   12.4650   16.5550 C.2   181  TYR181      0.2264
     67  O          6.8200   12.2490   15.5280 O.2   181  TYR181     -0.2867
     68  CB         4.2600   13.9510   15.7970 C.3   181  TYR181      0.0534
     69  CG         3.1220   12.9800   15.8910 C.ar  181  TYR181     -0.0201
     70  CD1        2.6150   12.5620   17.0770 C.ar  181  TYR181     -0.0009
     71  CD2        2.5300   12.5290   14.7450 C.ar  181  TYR181     -0.0009
     72  CE1        1.5530   11.6800   17.1260 C.ar  181  TYR181      0.0417
     73  CE2        1.4830   11.6390   14.7600 C.ar  181  TYR181      0.0417
     74  CZ         0.9970   11.2220   15.9500 C.ar  181  TYR181      0.1957
     75  OH        -0.0830   10.3920   15.8910 O.3   181  TYR181     -0.2866
     76  N         -5.8000   17.3540   17.7100 N.3   260  HIS260     -0.1241
     77  CA        -5.1590   16.0570   17.4410 C.3   260  HIS260      0.1621
     78  C         -5.7230   14.9200   18.2040 C.2   260  HIS260      0.2264
     79  O         -6.1860   13.9460   17.5850 O.2   260  HIS260     -0.2867
     80  CB        -3.6900   16.1640   17.5260 C.3   260  HIS260      0.0745
     81  CG        -2.9810   14.8570   17.3950 C.ar  260  HIS260      0.0817
     82  ND1       -2.8000   14.2280   16.1820 N.ar  260  HIS260     -0.2268
     83  CD2       -2.3290   14.0950   18.3250 C.ar  260  HIS260      0.1154
     84  CE1       -2.1530   13.0830   16.3780 C.ar  260  HIS260      0.1986
     85  NE2       -1.8240   12.9960   17.6640 N.ar  260  HIS260     -0.2212
     86  N         -8.6610   14.7410   19.5690 N.3   262  HIS262     -0.1241
     87  CA       -10.0960   14.6200   19.3350 C.3   262  HIS262      0.1621
     88  C        -10.9060   14.6530   20.6410 C.2   262  HIS262      0.2264
     89  O        -12.1030   14.3530   20.6380 O.2   262  HIS262     -0.2867
     90  CB       -10.4370   13.3760   18.5180 C.3   262  HIS262      0.0745
     91  CG        -9.8920   13.3800   17.1340 C.ar  262  HIS262      0.0817
     92  ND1      -10.3450   12.5120   16.1740 N.ar  262  HIS262     -0.2268
     93  CD2       -8.9210   14.1110   16.5380 C.ar  262  HIS262      0.1154
     94  CE1       -9.6690   12.6950   15.0480 C.ar  262  HIS262      0.1986
     95  NE2       -8.8010   13.6590   15.2430 N.ar  262  HIS262     -0.2212
@<TRIPOS>BOND
     1    55    56    1
     2    48    47    2
     3    56    59    1
     4    56    57    1
     5    29    30    2
     6    29    28    1
     7    47    46    1
     8    59    60    1
     9    27    28    1
    10    11    12    2
    11    11    10    1
    12    58    57    2
    13    60    61    1
    14    28    31    1
    15    46    49    1
    16    46    45    1
    17    62    61    2
    18    49    50    1
    19    10     9    1
    20    10    13    1
    21    51    50   ar
    22    51    53   ar
    23    61    63   am
    24    40    39    2
    25    21    22    2
    26    21    20    1
    27    50    52   ar
    28    31    32    1
    29    45    39   am
    30    53    54   ar
    31    13    14    1
    32    39    38    1
    33    15    14   ar
    34    15    17   ar
    35    20    19    1
    36    20    23    1
    37    14    16   ar
    38    32    33   ar
    39    32    34   ar
    40    33    35   ar
    41    52    54   ar
    42    17    18   ar
    43    38    37    1
    44    38    41    1
    45    25    24   ar
    46    23    24    1
    47    35    36   ar
    48    34    36   ar
    49    24    26   ar
    50    16    18   ar
    51    41    42    1
    52     3     4    2
    53     3     2    1
    54    42    44   am
    55    42    43    2
    56     2     1    1
    57     2     5    1
    58     5     6    1
    59     8     6   ar
    60    71    73   ar
    61    71    69   ar
    62    73    74   ar
    63     6     7   ar
    64    94    95   ar
    65    94    92   ar
    66    95    93   ar
    67    67    66    2
    68    68    69    1
    69    68    65    1
    70    75    74    1
    71    69    70   ar
    72    74    72   ar
    73    92    91   ar
    74    82    84   ar
    75    82    81   ar
    76    84    85   ar
    77    64    65    1
    78    93    91   ar
    79    66    65    1
    80    70    72   ar
    81    91    90    1
    82    81    80    1
    83    81    83   ar
    84    77    80    1
    85    77    76    1
    86    77    78    1
    87    79    78    2
    88    85    83   ar
    89    90    87    1
    90    87    86    1
    91    87    88    1
    92    89    88    2
