@<TRIPOS>MOLECULE
tmp/5ebeB03.pdb
 103 101 0 0 0
SMALL
GASTEIGER

@<TRIPOS>ATOM
      1  N         68.2970  -23.8530   -9.7870 N.3    78  ASP78      -0.1239
      2  CA        67.7000  -25.1970  -10.0860 C.3    78  ASP78       0.1674
      3  C         66.4400  -25.1570  -10.9420 C.2    78  ASP78       0.2266
      4  O         65.3390  -25.2840  -10.4190 O.2    78  ASP78      -0.2867
      5  CB        67.4020  -25.9860   -8.7930 C.3    78  ASP78       0.1410
      6  CG        68.5810  -26.8310   -8.3120 C.2    78  ASP78       0.3668
      7  OD1       69.7020  -26.6310   -8.7980 O.co2  78  ASP78      -0.2456
      8  OD2       68.3930  -27.6690   -7.4150 O.co2  78  ASP78      -0.2456
      9  N         64.8710  -33.3080  -12.5550 N.3    82  HIS82      -0.1241
     10  CA        65.6780  -34.4250  -12.0910 C.3    82  HIS82       0.1621
     11  C         65.4420  -35.5790  -13.0230 C.2    82  HIS82       0.2264
     12  O         64.5610  -36.4110  -12.8160 O.2    82  HIS82      -0.2867
     13  CB        65.3120  -34.8210  -10.6570 C.3    82  HIS82       0.0745
     14  CG        65.4920  -33.7150   -9.6750 C.ar   82  HIS82       0.0817
     15  ND1       64.5840  -32.6860   -9.5450 N.ar   82  HIS82      -0.2268
     16  CD2       66.4930  -33.4480   -8.8040 C.ar   82  HIS82       0.1154
     17  CE1       65.0180  -31.8320   -8.6320 C.ar   82  HIS82       0.1986
     18  NE2       66.1750  -32.2710   -8.1670 N.ar   82  HIS82      -0.2212
     19  N         72.6940  -26.1210   -9.1350 N.3   119  ASN119     -0.1225
     20  CA        73.4800  -27.1870   -9.7320 C.3   119  ASN119      0.1785
     21  C         72.7920  -28.0450  -10.7930 C.2   119  ASN119      0.2597
     22  O         73.3970  -28.9480  -11.3310 O.2   119  ASN119     -0.2718
     23  CB        74.0600  -28.0970   -8.6240 C.3   119  ASN119      0.1169
     24  CG        72.9960  -28.7050   -7.7220 C.2   119  ASN119      0.2627
     25  OD1       72.2400  -27.9820   -7.0690 O.2   119  ASN119     -0.2716
     26  ND2       72.9550  -30.0400   -7.6540 N.am  119  ASN119     -0.0877
     27  N         71.5300  -27.8290  -11.0740 N.am  120  HIS120     -0.1975
     28  CA        70.9470  -28.5430  -12.1730 C.3   120  HIS120      0.1656
     29  C         70.9230  -27.6250  -13.3870 C.2   120  HIS120      0.2291
     30  O         70.7900  -28.0870  -14.5100 O.2   120  HIS120     -0.2864
     31  CB        69.5780  -29.0810  -11.7820 C.3   120  HIS120      0.0771
     32  CG        69.6360  -30.3640  -10.9970 C.ar  120  HIS120      0.0820
     33  ND1       69.2960  -31.5920  -11.5370 N.ar  120  HIS120     -0.2267
     34  CD2       69.9710  -30.6080   -9.7050 C.ar  120  HIS120      0.1154
     35  CE1       69.4240  -32.5330  -10.6130 C.ar  120  HIS120      0.1986
     36  NE2       69.8290  -31.9610   -9.4930 N.ar  120  HIS120     -0.2212
     37  N         79.9700  -27.6130   -3.9530 N.3   182  TYR182     -0.1241
     38  CA        79.0930  -28.7820   -3.7700 C.3   182  TYR182      0.1605
     39  C         79.8180  -30.0940   -3.9790 C.2   182  TYR182      0.2264
     40  O         80.5730  -30.2510   -4.9500 O.2   182  TYR182     -0.2867
     41  CB        77.9600  -28.7140   -4.7710 C.3   182  TYR182      0.0534
     42  CG        76.9220  -29.7840   -4.6300 C.ar  182  TYR182     -0.0201
     43  CD1       76.5810  -30.3150   -3.3800 C.ar  182  TYR182     -0.0009
     44  CD2       76.2370  -30.2350   -5.7480 C.ar  182  TYR182     -0.0009
     45  CE1       75.6070  -31.2850   -3.2610 C.ar  182  TYR182      0.0417
     46  CE2       75.2610  -31.1980   -5.6440 C.ar  182  TYR182      0.0417
     47  CZ        74.9490  -31.7100   -4.4020 C.ar  182  TYR182      0.1957
     48  OH        73.9700  -32.6470   -4.3390 O.3   182  TYR182     -0.2866
     49  N         73.1750  -30.2640    6.9080 N.3   226  LEU226     -0.1245
     50  CA        71.8690  -30.6210    6.4000 C.3   226  LEU226      0.1561
     51  C         71.0790  -31.0390    7.6020 C.2   226  LEU226      0.2260
     52  O         71.5980  -31.7900    8.4400 O.2   226  LEU226     -0.2867
     53  CB        71.9430  -31.7890    5.4260 C.3   226  LEU226      0.0270
     54  CG        72.6120  -31.4800    4.0960 C.3   226  LEU226      0.0019
     55  CD1       72.8860  -32.7990    3.3840 C.3   226  LEU226      0.0001
     56  CD2       71.7130  -30.5220    3.3040 C.3   226  LEU226      0.0001
     57  N         68.0370  -25.3600   -2.3410 N.3   261  HIS261     -0.1226
     58  CA        68.7700  -26.6700   -2.5120 C.3   261  HIS261      0.1752
     59  C         68.1520  -27.7530   -1.6810 C.2   261  HIS261      0.2597
     60  O         67.8630  -28.7980   -2.2050 O.2   261  HIS261     -0.2718
     61  CB        70.3170  -26.6010   -2.3100 C.3   261  HIS261      0.0759
     62  CG        71.0280  -27.9460   -2.3130 C.ar  261  HIS261      0.0818
     63  ND1       70.9740  -28.8380   -3.3660 N.ar  261  HIS261     -0.2268
     64  CD2       71.8600  -28.5220   -1.3960 C.ar  261  HIS261      0.1154
     65  CE1       71.6980  -29.9150   -3.0820 C.ar  261  HIS261      0.1986
     66  NE2       72.2500  -29.7470   -1.8930 N.ar  261  HIS261     -0.2212
     67  N         67.9350  -27.5160   -0.3960 N.am  262  THR262     -0.1939
     68  CA        67.3090  -28.5250    0.4750 C.3   262  THR262      0.2028
     69  C         65.8670  -28.8750    0.1670 C.2   262  THR262      0.2642
     70  O         65.4260  -29.9490    0.6020 O.2   262  THR262     -0.2714
     71  CB        67.2870  -28.0890    1.9510 C.3   262  THR262      0.1808
     72  OG1       66.3540  -27.0020    2.1360 O.3   262  THR262     -0.2208
     73  CG2       68.7150  -27.7080    2.4180 C.3   262  THR262      0.0379
     74  N         65.1510  -27.9660   -0.5360 N.am  263  HIS263     -0.1959
     75  CA        63.7060  -28.0850   -0.8720 C.3   263  HIS263      0.1787
     76  C         62.7910  -27.9530    0.3500 C.2   263  HIS263      0.2620
     77  O         61.5920  -28.3120    0.2860 O.2   263  HIS263     -0.2715
     78  CB        63.3830  -29.3970   -1.5900 C.3   263  HIS263      0.0785
     79  CG        63.7390  -29.3750   -3.0220 C.ar  263  HIS263      0.0821
     80  ND1       62.9640  -29.9770   -3.9880 N.ar  263  HIS263     -0.2267
     81  CD2       64.7570  -28.7700   -3.6770 C.ar  263  HIS263      0.1154
     82  CE1       63.5090  -29.7780   -5.1750 C.ar  263  HIS263      0.1986
     83  NE2       64.5940  -29.0400   -5.0160 N.ar  263  HIS263     -0.2212
     84  N         63.3500  -27.3940    1.4320 N.am  264  ARG264     -0.1977
     85  CA        62.7540  -27.4810    2.7640 C.3   264  ARG264      0.1597
     86  C         62.7820  -26.1220    3.4720 C.2   264  ARG264      0.2287
     87  O         63.6320  -25.2810    3.1750 O.2   264  ARG264     -0.2864
     88  CB        63.5240  -28.5470    3.5800 C.3   264  ARG264      0.0334
     89  CG        63.5160  -29.9690    2.9910 C.3   264  ARG264      0.0492
     90  CD        62.2790  -30.7180    3.4520 C.3   264  ARG264      0.2205
     91  NE        62.1550  -32.0440    2.8600 N.pl3 264  ARG264     -0.0865
     92  CZ        61.6120  -32.3060    1.6810 C.cat 264  ARG264      0.5346
     93  NH1       61.1380  -31.3280    0.9440 N.pl3 264  ARG264      0.1354
     94  NH2       61.5580  -33.5540    1.2400 N.pl3 264  ARG264      0.1354
     95  N         60.6860  -42.4430   -0.0280 N.3   295  GLU295     -0.1245
     96  CA        60.5450  -41.3510    0.9070 C.3   295  GLU295      0.1567
     97  C         59.1520  -41.0820    1.2630 C.2   295  GLU295      0.2260
     98  O         58.3510  -40.9280    0.4170 O.2   295  GLU295     -0.2867
     99  CB        61.0820  -40.1140    0.2490 C.3   295  GLU295      0.0388
    100  CG        62.5730  -40.1400    0.1060 C.3   295  GLU295      0.1160
    101  CD        63.1140  -38.9370   -0.5860 C.2   295  GLU295      0.3649
    102  OE1       64.2980  -38.8980   -0.8770 O.co2 295  GLU295     -0.2457
    103  OE2       62.3720  -38.0230   -0.8630 O.co2 295  GLU295     -0.2457
@<TRIPOS>BOND
     1    30    29    2
     2    29    28    1
     3    11    12    2
     4    11    10    1
     5     9    10    1
     6    28    31    1
     7    28    27    1
     8    10    13    1
     9    31    32    1
    10    33    32   ar
    11    33    35   ar
    12    22    21    2
    13    27    21   am
    14    32    34   ar
    15     3     4    2
    16     3     2    1
    17    21    20    1
    18    13    14    1
    19    35    36   ar
    20     2     1    1
    21     2     5    1
    22    20    19    1
    23    20    23    1
    24    34    36   ar
    25    14    15   ar
    26    14    16   ar
    27    15    17   ar
    28    16    18   ar
    29     7     6   ar
    30     5     6    1
    31    17    18   ar
    32    23    24    1
    33     6     8   ar
    34    24    26   am
    35    24    25    2
    36    44    46   ar
    37    44    42   ar
    38    46    47   ar
    39    82    83   ar
    40    82    80   ar
    41    83    81   ar
    42    40    39    2
    43    41    42    1
    44    41    38    1
    45    42    43   ar
    46    47    48    1
    47    47    45   ar
    48    80    79   ar
    49    39    38    1
    50    37    38    1
    51    81    79   ar
    52    43    45   ar
    53    63    65   ar
    54    63    62   ar
    55    65    66   ar
    56    79    78    1
    57    58    57    1
    58    58    61    1
    59    58    59    1
    60    62    61    1
    61    62    64   ar
    62    60    59    2
    63    66    64   ar
    64    59    67   am
    65    78    75    1
    66   102   101   ar
    67    75    74    1
    68    75    76    1
    69   103   101   ar
    70   101   100    1
    71    74    69   am
    72    67    68    1
    73    95    96    1
    74   100    99    1
    75    69    68    1
    76    69    70    2
    77    99    96    1
    78    77    76    2
    79    76    84   am
    80    98    97    2
    81    68    71    1
    82    96    97    1
    83    93    92    1
    84    94    92    1
    85    84    85    1
    86    92    91    2
    87    71    72    1
    88    71    73    1
    89    85    86    1
    90    85    88    1
    91    91    90    1
    92    89    90    1
    93    89    88    1
    94    87    86    2
    95    56    54    1
    96    55    54    1
    97    54    53    1
    98    53    50    1
    99    50    49    1
   100    50    51    1
   101    51    52    2
