@<TRIPOS>MOLECULE
tmp/5ebeA04.pdb
 150 146 0 0 0
SMALL
GASTEIGER

@<TRIPOS>ATOM
      1  N         19.7800    1.5600  -13.8530 N.3    15  HIS15      -0.1241
      2  CA        18.5630    2.1900  -14.3650 C.3    15  HIS15       0.1621
      3  C         18.9060    3.3980  -15.2660 C.2    15  HIS15       0.2264
      4  O         18.6930    4.5870  -14.8970 O.2    15  HIS15      -0.2867
      5  CB        17.6200    2.6030  -13.2200 C.3    15  HIS15       0.0745
      6  CG        16.9620    1.4500  -12.5050 C.ar   15  HIS15       0.0817
      7  ND1       16.1960    0.5110  -13.1570 N.ar   15  HIS15      -0.2268
      8  CD2       16.9340    1.1010  -11.1950 C.ar   15  HIS15       0.1154
      9  CE1       15.7400   -0.3730  -12.2900 C.ar   15  HIS15       0.1986
     10  NE2       16.1730   -0.0360  -11.0930 N.ar   15  HIS15      -0.2212
     11  N         19.0610   -4.5260  -12.6990 N.3    78  ASP78      -0.1239
     12  CA        18.1240   -3.3980  -12.9620 C.3    78  ASP78       0.1674
     13  C         18.7380   -2.2770  -13.7950 C.2    78  ASP78       0.2266
     14  O         19.0780   -1.2090  -13.2650 O.2    78  ASP78      -0.2867
     15  CB        17.5460   -2.8270  -11.6490 C.3    78  ASP78       0.1410
     16  CG        16.2340   -3.5040  -11.2150 C.2    78  ASP78       0.3668
     17  OD1       15.8790   -4.5720  -11.7630 O.co2  78  ASP78      -0.2456
     18  OD2       15.5870   -2.9680  -10.2880 O.co2  78  ASP78      -0.2456
     19  N         12.6120    3.0740  -15.5920 N.3    82  HIS82      -0.1241
     20  CA        11.2420    2.9800  -15.1220 C.3    82  HIS82       0.1621
     21  C         10.3580    3.7940  -16.0570 C.2    82  HIS82       0.2264
     22  O         10.1780    5.0180  -15.9100 O.2    82  HIS82      -0.2867
     23  CB        11.1130    3.5310  -13.6940 C.3    82  HIS82       0.0745
     24  CG        11.9010    2.7800  -12.6770 C.ar   82  HIS82       0.0817
     25  ND1       13.2420    3.0060  -12.4650 N.ar   82  HIS82      -0.2268
     26  CD2       11.5410    1.7940  -11.8180 C.ar   82  HIS82       0.1154
     27  CE1       13.6790    2.1820  -11.5250 C.ar   82  HIS82       0.1986
     28  NE2       12.6610    1.4440  -11.1080 N.ar   82  HIS82      -0.2212
     29  N         14.7500   -7.2450  -11.9270 N.3   119  ASN119     -0.1225
     30  CA        13.4140   -7.4530  -12.4220 C.3   119  ASN119      0.1785
     31  C         13.0600   -6.5790  -13.6020 C.2   119  ASN119      0.2597
     32  O         12.1810   -6.9200  -14.3710 O.2   119  ASN119     -0.2718
     33  CB        12.3850   -7.3060  -11.3020 C.3   119  ASN119      0.1169
     34  CG        12.5650   -6.0350  -10.4940 C.2   119  ASN119      0.2627
     35  OD1       13.5730   -5.8450   -9.7930 O.2   119  ASN119     -0.2716
     36  ND2       11.5660   -5.1740  -10.5440 N.am  119  ASN119     -0.0877
     37  N         13.7360   -5.4630  -13.7750 N.am  120  HIS120     -0.1975
     38  CA        13.5840   -4.7360  -15.0200 C.3   120  HIS120      0.1656
     39  C         14.5260   -5.2070  -16.1160 C.2   120  HIS120      0.2291
     40  O         14.5380   -4.6260  -17.1810 O.2   120  HIS120     -0.2864
     41  CB        13.8480   -3.2750  -14.8000 C.3   120  HIS120      0.0771
     42  CG        12.8290   -2.6210  -13.9560 C.ar  120  HIS120      0.0820
     43  ND1       12.0080   -1.6320  -14.4330 N.ar  120  HIS120     -0.2267
     44  CD2       12.5090   -2.7910  -12.6540 C.ar  120  HIS120      0.1154
     45  CE1       11.2240   -1.2130  -13.4530 C.ar  120  HIS120      0.1986
     46  NE2       11.5120   -1.8970  -12.3620 N.ar  120  HIS120     -0.2212
     47  N          9.8260  -12.7230   -6.9460 N.3   182  TYR182     -0.1241
     48  CA         9.2130  -11.4190   -6.7730 C.3   182  TYR182      0.1605
     49  C          7.7270  -11.4750   -7.0070 C.2   182  TYR182      0.2264
     50  O          7.2710  -12.1440   -7.9200 O.2   182  TYR182     -0.2867
     51  CB         9.8380  -10.4630   -7.7590 C.3   182  TYR182      0.0534
     52  CG         9.5260   -8.9930   -7.5920 C.ar  182  TYR182     -0.0201
     53  CD1        9.3820   -8.4180   -6.3490 C.ar  182  TYR182     -0.0009
     54  CD2        9.4600   -8.1610   -8.7270 C.ar  182  TYR182     -0.0009
     55  CE1        9.1300   -7.0760   -6.2320 C.ar  182  TYR182      0.0417
     56  CE2        9.2000   -6.8160   -8.6220 C.ar  182  TYR182      0.0417
     57  CZ         9.0390   -6.2830   -7.3680 C.ar  182  TYR182      0.1957
     58  OH         8.7980   -4.9390   -7.2510 O.3   182  TYR182     -0.2866
     59  N         10.8900   -5.6500    3.8820 N.3   226  LEU226     -0.1245
     60  CA        11.1840   -4.3010    3.4500 C.3   226  LEU226      0.1561
     61  C         11.1330   -3.3930    4.6490 C.2   226  LEU226      0.2260
     62  O         10.1180   -3.3450    5.3420 O.2   226  LEU226     -0.2867
     63  CB        10.1660   -3.8380    2.4410 C.3   226  LEU226      0.0270
     64  CG        10.1680   -4.6140    1.1340 C.3   226  LEU226      0.0019
     65  CD1        8.9210   -4.1820    0.3910 C.3   226  LEU226      0.0001
     66  CD2       11.4270   -4.3610    0.3180 C.3   226  LEU226      0.0001
     67  N         17.9100   -3.7360   -5.4210 N.3   261  HIS261     -0.1226
     68  CA        16.4620   -3.7050   -5.6060 C.3   261  HIS261      0.1752
     69  C         15.8090   -2.6010   -4.7970 C.2   261  HIS261      0.2597
     70  O         15.1450   -1.7970   -5.3740 O.2   261  HIS261     -0.2718
     71  CB        15.8190   -5.0670   -5.3460 C.3   261  HIS261      0.0759
     72  CG        14.3320   -5.0550   -5.4630 C.ar  261  HIS261      0.0818
     73  ND1       13.6730   -4.7290   -6.6290 N.ar  261  HIS261     -0.2268
     74  CD2       13.3660   -5.3430   -4.5570 C.ar  261  HIS261      0.1154
     75  CE1       12.3670   -4.7970   -6.4340 C.ar  261  HIS261      0.1986
     76  NE2       12.1520   -5.1680   -5.1830 N.ar  261  HIS261     -0.2212
     77  N         16.0370   -2.5060   -3.4920 N.am  262  THR262     -0.1939
     78  CA        15.4060   -1.4380   -2.6770 C.3   262  THR262      0.2028
     79  C         15.9060   -0.0300   -2.9340 C.2   262  THR262      0.2642
     80  O         15.2720    0.9200   -2.4960 O.2   262  THR262     -0.2714
     81  CB        15.6380   -1.6360   -1.1710 C.3   262  THR262      0.1808
     82  OG1       17.0100   -1.3290   -0.8500 O.3   262  THR262     -0.2208
     83  CG2       15.2580   -3.0630   -0.7340 C.3   262  THR262      0.0379
     84  N         17.0630    0.0990   -3.5810 N.am  263  HIS263     -0.1959
     85  CA        17.7040    1.3970   -3.8080 C.3   263  HIS263      0.1787
     86  C         18.1480    2.0830   -2.4940 C.2   263  HIS263      0.2620
     87  O         18.3900    3.2940   -2.4440 O.2   263  HIS263     -0.2715
     88  CB        16.7570    2.3350   -4.5620 C.3   263  HIS263      0.0785
     89  CG        16.5310    1.9660   -5.9880 C.ar  263  HIS263      0.0821
     90  ND1       16.1960    2.9070   -6.9450 N.ar  263  HIS263     -0.2267
     91  CD2       16.6060    0.7770   -6.6280 C.ar  263  HIS263      0.1154
     92  CE1       16.0590    2.2990   -8.1130 C.ar  263  HIS263      0.1986
     93  NE2       16.3110    1.0110   -7.9490 N.ar  263  HIS263     -0.2212
     94  N         18.2760    1.3180   -1.4260 N.am  264  ARG264     -0.1977
     95  CA        18.5730    1.9160   -0.1400 C.3   264  ARG264      0.1597
     96  C         19.7120    1.1810    0.5250 C.2   264  ARG264      0.2287
     97  O         19.9410   -0.0010    0.2540 O.2   264  ARG264     -0.2864
     98  CB        17.3350    1.8480    0.7500 C.3   264  ARG264      0.0334
     99  CG        16.0990    2.4990    0.1540 C.3   264  ARG264      0.0492
    100  CD        16.0610    3.9660    0.4650 C.3   264  ARG264      0.2205
    101  NE        15.0480    4.6420   -0.3370 N.pl3 264  ARG264     -0.0865
    102  CZ        15.2370    5.0890   -1.5780 C.cat 264  ARG264      0.5346
    103  NH1       16.3960    4.9370   -2.1880 N.pl3 264  ARG264      0.1354
    104  NH2       14.2580    5.6930   -2.2260 N.pl3 264  ARG264      0.1354
    105  N         16.2710    7.9710   -8.8100 N.3   290  VAL290     -0.1231
    106  CA        14.8980    8.1980   -9.2430 C.3   290  VAL290      0.1692
    107  C         13.9050    7.9970   -8.0820 C.2   290  VAL290      0.2592
    108  O         14.1780    7.2180   -7.1610 O.2   290  VAL290     -0.2718
    109  CB        14.5490    7.3080  -10.4830 C.3   290  VAL290      0.0266
    110  CG1       14.3750    5.8440  -10.0900 C.3   290  VAL290      0.0020
    111  CG2       13.3050    7.8190  -11.2150 C.3   290  VAL290      0.0020
    112  N         12.7910    8.7290   -8.1160 N.am  291  LYS291     -0.1966
    113  CA        11.6990    8.5570   -7.1700 C.3   291  LYS291      0.1728
    114  C         10.3690    9.0860   -7.6830 C.2   291  LYS291      0.2616
    115  O         10.3050    9.7860   -8.7250 O.2   291  LYS291     -0.2715
    116  CB        11.9990    9.2560   -5.8780 C.3   291  LYS291      0.0311
    117  CG        12.1140   10.7460   -6.0400 C.3   291  LYS291      0.0038
    118  CD        11.4710   11.4600   -4.8790 C.3   291  LYS291      0.0206
    119  CE        11.5310   12.9520   -5.0790 C.3   291  LYS291      0.1093
    120  NZ        10.2890   13.5580   -4.5490 N.3   291  LYS291     -0.1314
    121  N          9.3120    8.7080   -6.9570 N.am  292  SER292     -0.1950
    122  CA         7.9700    9.1820   -7.2550 C.3   292  SER292      0.1924
    123  C          7.8600   10.6600   -6.8980 C.2   292  SER292      0.2314
    124  O          8.6710   11.2050   -6.1200 O.2   292  SER292     -0.2863
    125  CB         6.9150    8.4170   -6.4550 C.3   292  SER292      0.2116
    126  OG         6.8790    7.0460   -6.7890 O.3   292  SER292     -0.2180
    127  N          6.8520   11.0360   -3.1230 N.3   295  GLU295     -0.1245
    128  CA         7.8400   10.6340   -2.1340 C.3   295  GLU295      0.1567
    129  C          8.7240   11.8130   -1.7010 C.2   295  GLU295      0.2260
    130  O          9.3080   12.4990   -2.5170 O.2   295  GLU295     -0.2867
    131  CB         8.6770    9.4900   -2.7030 C.3   295  GLU295      0.0388
    132  CG         7.9140    8.1840   -2.8320 C.3   295  GLU295      0.1160
    133  CD         8.6400    7.1280   -3.6650 C.2   295  GLU295      0.3649
    134  OE1        8.0250    6.0830   -3.9990 O.co2 295  GLU295     -0.2457
    135  OE2        9.8270    7.3260   -4.0030 O.co2 295  GLU295     -0.2457
    136  N         14.5330   10.3060   -1.4150 N.3   298  THR298     -0.1203
    137  CA        15.1240    9.3010   -2.2950 C.3   298  THR298      0.1994
    138  C         16.5860    9.0810   -1.8650 C.2   298  THR298      0.2617
    139  O         17.0490    9.6500   -0.8670 O.2   298  THR298     -0.2717
    140  CB        14.9830    9.6890   -3.7990 C.3   298  THR298      0.1784
    141  OG1       15.3300    8.5770   -4.6470 O.3   298  THR298     -0.2211
    142  CG2       15.8410   10.8730   -4.1380 C.3   298  THR298      0.0376
    143  N         17.3000    8.2400   -2.6090 N.am  299  ASN299     -0.1974
    144  CA        18.7440    8.0880   -2.4190 C.3   299  ASN299      0.1688
    145  C         19.5350    9.1060   -3.2430 C.2   299  ASN299      0.2292
    146  O         19.0090    9.7180   -4.1590 O.2   299  ASN299     -0.2864
    147  CB        19.1790    6.6920   -2.7780 C.3   299  ASN299      0.1181
    148  CG        18.8520    6.3330   -4.2040 C.2   299  ASN299      0.2629
    149  OD1       17.6860    6.1200   -4.5860 O.2   299  ASN299     -0.2716
    150  ND2       19.8860    6.2380   -5.0090 N.am  299  ASN299     -0.0877
@<TRIPOS>BOND
     1    40    39    2
     2    39    38    1
     3    21    22    2
     4    21    20    1
     5    19    20    1
     6     3     4    2
     7     3     2    1
     8    20    23    1
     9    38    41    1
    10    38    37    1
    11    41    42    1
    12    43    42   ar
    13    43    45   ar
    14    32    31    2
    15     2     1    1
    16     2     5    1
    17    42    44   ar
    18    13    14    2
    19    13    12    1
    20    37    31   am
    21    23    24    1
    22    31    30    1
    23    45    46   ar
    24     5     6    1
    25     7     6   ar
    26     7     9   ar
    27    12    11    1
    28    12    15    1
    29    24    25   ar
    30    24    26   ar
    31    44    46   ar
    32     6     8   ar
    33    25    27   ar
    34    30    29    1
    35    30    33    1
    36     9    10   ar
    37    26    28   ar
    38    17    16   ar
    39    15    16    1
    40    27    28   ar
    41    33    34    1
    42   111   109    1
    43    16    18   ar
    44     8    10   ar
    45    36    34   am
    46    34    35    2
    47   109   110    1
    48   109   106    1
    49   106   105    1
    50   106   107    1
    51    54    56   ar
    52    54    52   ar
    53   115   114    2
    54    56    57   ar
    55   112   107   am
    56   112   113    1
    57    92    93   ar
    58    92    90   ar
    59   107   108    2
    60    93    91   ar
    61    50    49    2
    62    51    52    1
    63    51    48    1
    64   114   113    1
    65   114   121   am
    66    52    53   ar
    67    57    58    1
    68    57    55   ar
    69   122   121    1
    70   122   123    1
    71   122   125    1
    72   113   116    1
    73    49    48    1
    74    47    48    1
    75    90    89   ar
    76   123   124    2
    77   126   125    1
    78    73    75   ar
    79    73    72   ar
    80    91    89   ar
    81    75    76   ar
    82    53    55   ar
    83   117   116    1
    84   117   118    1
    85    89    88    1
    86    68    67    1
    87    68    71    1
    88    68    69    1
    89    72    71    1
    90    72    74   ar
    91    70    69    2
    92    76    74   ar
    93   119   118    1
    94   119   120    1
    95   150   148   am
    96    69    77   am
    97   141   140    1
    98   149   148    2
    99    88    85    1
   100   148   147    1
   101   146   145    2
   102   142   140    1
   103   135   133   ar
   104   134   133   ar
   105    85    84    1
   106    85    86    1
   107   140   137    1
   108   133   132    1
   109    84    79   am
   110    77    78    1
   111   145   144    1
   112   127   128    1
   113    79    78    1
   114    79    80    2
   115   132   131    1
   116   147   144    1
   117   131   128    1
   118    78    81    1
   119   143   144    1
   120   143   138   am
   121   130   129    2
   122    86    87    2
   123    86    94   am
   124   137   138    1
   125   137   136    1
   126   104   102    1
   127   103   102    1
   128   128   129    1
   129   138   139    2
   130   102   101    2
   131    94    95    1
   132    81    82    1
   133    81    83    1
   134   101   100    1
   135    95    96    1
   136    95    98    1
   137    99   100    1
   138    99    98    1
   139    97    96    2
   140    66    64    1
   141    65    64    1
   142    64    63    1
   143    63    60    1
   144    60    59    1
   145    60    61    1
   146    61    62    2
