@<TRIPOS>MOLECULE
tmp/5ebkA02.pdb
 101 96 0 0 0
SMALL
GASTEIGER

@<TRIPOS>ATOM
      1  N         -5.5890   12.4470   -4.2970 N.3   165  THR165     -0.1203
      2  CA        -6.4100   11.8780   -5.3630 C.3   165  THR165      0.1994
      3  C         -5.6000   10.7650   -5.9910 C.2   165  THR165      0.2618
      4  O         -4.4270   10.9460   -6.3180 O.2   165  THR165     -0.2717
      5  CB        -6.7770   12.8990   -6.4630 C.3   165  THR165      0.1784
      6  OG1       -6.9870   14.1890   -5.8870 O.3   165  THR165     -0.2211
      7  CG2       -8.0400   12.4770   -7.1900 C.3   165  THR165      0.0376
      8  N         -6.2190    9.6040   -6.1140 N.am  166  ARG166     -0.1965
      9  CA        -5.6250    8.4870   -6.8240 C.3   166  ARG166      0.1729
     10  C         -6.0520    8.5630   -8.2940 C.2   166  ARG166      0.2616
     11  O         -7.0020    9.2750   -8.6220 O.2   166  ARG166     -0.2715
     12  CB        -6.0700    7.1810   -6.1660 C.3   166  ARG166      0.0348
     13  CG        -5.3170    6.8890   -4.8750 C.3   166  ARG166      0.0492
     14  CD        -4.0860    6.0510   -5.1780 C.3   166  ARG166      0.2205
     15  NE        -3.1010    6.0040   -4.1050 N.pl3 166  ARG166     -0.0865
     16  CZ        -2.0150    5.2260   -4.1050 C.cat 166  ARG166      0.5346
     17  NH1       -1.7480    4.4070   -5.1240 N.pl3 166  ARG166      0.1354
     18  NH2       -1.1780    5.2640   -3.0700 N.pl3 166  ARG166      0.1354
     19  N         -5.3250    7.8850   -9.1820 N.am  167  LEU167     -0.1963
     20  CA        -5.8370    7.6150  -10.5320 C.3   167  LEU167      0.1728
     21  C         -6.2590    6.1400  -10.5580 C.2   167  LEU167      0.2616
     22  O         -5.4730    5.2550  -10.2240 O.2   167  LEU167     -0.2715
     23  CB        -4.8290    7.9920  -11.6380 C.3   167  LEU167      0.0311
     24  CG        -3.7180    7.0650  -12.1530 C.3   167  LEU167      0.0022
     25  CD1       -3.1410    7.6240  -13.4340 C.3   167  LEU167      0.0001
     26  CD2       -2.6030    6.8770  -11.1400 C.3   167  LEU167      0.0001
     27  N         -7.5230    5.8960  -10.9060 N.am  168  GLY168     -0.1955
     28  CA        -8.1020    4.5430  -10.9440 C.3   168  GLY168      0.1869
     29  C         -7.6330    3.7700  -12.1620 C.2   168  GLY168      0.2309
     30  O         -8.2940    3.7630  -13.2050 O.2   168  GLY168     -0.2863
     31  N          2.1150   13.7060  -12.6030 N.3   195  GLY195     -0.1210
     32  CA         1.2670   14.8870  -12.4460 C.3   195  GLY195      0.1956
     33  C          2.0970   16.1410  -12.5750 C.2   195  GLY195      0.2612
     34  O          3.3200   16.0640  -12.7020 O.2   195  GLY195     -0.2717
     35  N          1.4250   17.2940  -12.5440 N.am  196  GLY196     -0.1942
     36  CA         2.0810   18.6010  -12.6870 C.3   196  GLY196      0.2014
     37  C          1.5090   19.6350  -11.7450 C.2   196  GLY196      0.2639
     38  O          1.3030   20.7830  -12.1500 O.2   196  GLY196     -0.2714
     39  N          1.2410   19.2110  -10.5040 N.am  197  GLY197     -0.1954
     40  CA         0.8530   20.1050   -9.4130 C.3   197  GLY197      0.1869
     41  C          2.0910   20.5530   -8.6600 C.2   197  GLY197      0.2309
     42  O          3.1760   20.0300   -8.9150 O.2   197  GLY197     -0.2863
     43  N          3.1780   14.4780  -17.0620 N.3   221  TYR221     -0.1227
     44  CA         1.9810   15.2790  -16.9590 C.3   221  TYR221      0.1736
     45  C          1.0970   14.9410  -18.1370 C.2   221  TYR221      0.2595
     46  O          1.6140   14.7200  -19.2330 O.2   221  TYR221     -0.2718
     47  CB         2.4470   16.7150  -17.0330 C.3   221  TYR221      0.0548
     48  CG         1.4010   17.7500  -16.8110 C.ar  221  TYR221     -0.0200
     49  CD1        0.6010   17.7200  -15.6840 C.ar  221  TYR221     -0.0009
     50  CD2        1.2420   18.8050  -17.7080 C.ar  221  TYR221     -0.0009
     51  CE1       -0.3430   18.7060  -15.4560 C.ar  221  TYR221      0.0417
     52  CE2        0.2890   19.7850  -17.5040 C.ar  221  TYR221      0.0417
     53  CZ        -0.5040   19.7350  -16.3780 C.ar  221  TYR221      0.1957
     54  OH        -1.4430   20.7220  -16.1770 O.3   221  TYR221     -0.2866
     55  N         -0.2190   14.8890  -17.9460 N.am  222  ARG222     -0.1966
     56  CA        -1.1150   14.6440  -19.0990 C.3   222  ARG222      0.1729
     57  C         -1.2980   15.8710  -20.0070 C.2   222  ARG222      0.2616
     58  O         -1.6100   15.7310  -21.1910 O.2   222  ARG222     -0.2715
     59  CB        -2.4840   14.0960  -18.6720 C.3   222  ARG222      0.0348
     60  CG        -3.3880   15.0660  -17.9240 C.3   222  ARG222      0.0492
     61  CD        -4.8710   14.7110  -18.0550 C.3   222  ARG222      0.2205
     62  NE        -5.6220   15.2200  -16.9030 N.pl3 222  ARG222     -0.0865
     63  CZ        -5.9620   16.4970  -16.6910 C.cat 222  ARG222      0.5346
     64  NH1       -5.6570   17.4540  -17.5700 N.pl3 222  ARG222      0.1354
     65  NH2       -6.6220   16.8280  -15.5810 N.pl3 222  ARG222      0.1354
     66  N         -1.1420   17.0650  -19.4330 N.am  223  GLY223     -0.1955
     67  CA        -1.2680   18.3250  -20.1720 C.3   223  GLY223      0.1869
     68  C          0.0010   18.7760  -20.8700 C.2   223  GLY223      0.2309
     69  O          1.0120   18.0720  -20.8850 O.2   223  GLY223     -0.2863
     70  N         -0.5570   24.4150  -14.2800 N.3   228  ARG228     -0.1245
     71  CA        -1.5620   25.3680  -14.7560 C.3   228  ARG228      0.1563
     72  C         -1.9880   26.2630  -13.6030 C.2   228  ARG228      0.2260
     73  O         -1.9710   25.8530  -12.4490 O.2   228  ARG228     -0.2867
     74  CB        -2.7910   24.7170  -15.4100 C.3   228  ARG228      0.0307
     75  CG        -3.5260   25.7150  -16.3200 C.3   228  ARG228      0.0489
     76  CD        -4.9350   25.3440  -16.7630 C.3   228  ARG228      0.2205
     77  NE        -5.0540   24.0210  -17.2970 N.pl3 228  ARG228     -0.0865
     78  CZ        -5.2030   22.7980  -16.8060 C.cat 228  ARG228      0.5346
     79  NH1       -4.9600   21.8940  -17.7380 N.pl3 228  ARG228      0.1354
     80  NH2       -5.7920   22.4280  -15.6620 N.pl3 228  ARG228      0.1354
     81  N          0.4560   10.1310  -19.6190 N.3   254  ASN254     -0.1240
     82  CA         0.1410    9.5330  -18.3300 C.3   254  ASN254      0.1653
     83  C          0.1660    8.0080  -18.4350 C.2   254  ASN254      0.2266
     84  O         -0.0680    7.4740  -19.5080 O.2   254  ASN254     -0.2867
     85  CB        -1.2400   10.0090  -17.8860 C.3   254  ASN254      0.1155
     86  CG        -1.2480   10.4890  -16.4480 C.2   254  ASN254      0.2627
     87  OD1       -0.4510   11.3660  -16.0600 O.2   254  ASN254     -0.2716
     88  ND2       -2.1720    9.9490  -15.6450 N.am  254  ASN254     -0.0877
     89  N          1.1960   12.8500   -7.6740 N.3   284  ALA284     -0.1231
     90  CA         0.7930   14.1990   -7.3280 C.3   284  ALA284      0.1694
     91  C         -0.2590   14.6340   -8.3360 C.2   284  ALA284      0.2591
     92  O         -0.0740   15.5690   -9.1180 O.2   284  ALA284     -0.2718
     93  CB         1.9910   15.1230   -7.3420 C.3   284  ALA284      0.0304
     94  N         -1.3670   13.9110   -8.3040 N.am  285  ILE285     -0.1980
     95  CA        -2.5550   14.2140   -9.0850 C.3   285  ILE285      0.1595
     96  C         -3.2680   15.4140   -8.4680 C.2   285  ILE285      0.2287
     97  O         -3.7650   16.2790   -9.1950 O.2   285  ILE285     -0.2864
     98  CB        -3.5200   12.9980   -9.0830 C.3   285  ILE285      0.0276
     99  CG1       -2.8730   11.7750   -9.7580 C.3   285  ILE285      0.0022
    100  CG2       -4.8700   13.3390   -9.6930 C.3   285  ILE285      0.0022
    101  CD1       -2.1820   12.0480  -11.0810 C.3   285  ILE285      0.0001
@<TRIPOS>BOND
     1    58    57    2
     2    69    68    2
     3    68    67    1
     4    67    66    1
     5    57    66   am
     6    57    56    1
     7    81    82    1
     8    84    83    2
     9    46    45    2
    10    56    59    1
    11    56    55    1
    12    59    60    1
    13    83    82    1
    14    82    85    1
    15    45    55   am
    16    45    44    1
    17    61    60    1
    18    61    62    1
    19    85    86    1
    20    79    78    1
    21    50    52   ar
    22    50    48   ar
    23    64    63    1
    24    52    53   ar
    25    77    78    2
    26    77    76    1
    27    43    44    1
    28    47    44    1
    29    47    48    1
    30    62    63    2
    31    48    49   ar
    32    78    80    1
    33    76    75    1
    34    63    65    1
    35    86    87    2
    36    86    88   am
    37    53    54    1
    38    53    51   ar
    39    75    74    1
    40    49    51   ar
    41    74    71    1
    42    71    70    1
    43    71    72    1
    44    72    73    2
    45    25    24    1
    46    30    29    2
    47    34    33    2
    48    36    35    1
    49    36    37    1
    50    31    32    1
    51    33    35   am
    52    33    32    1
    53    29    28    1
    54    24    23    1
    55    24    26    1
    56    38    37    2
    57    37    39   am
    58    23    20    1
    59   101    99    1
    60    28    27    1
    61    27    21   am
    62    21    20    1
    63    21    22    2
    64    20    19    1
    65    39    40    1
    66    99    98    1
    67   100    98    1
    68    40    41    1
    69    97    96    2
    70    19    10   am
    71    92    91    2
    72    95    98    1
    73    95    96    1
    74    95    94    1
    75    42    41    2
    76    11    10    2
    77    91    94   am
    78    91    90    1
    79    10     9    1
    80    89    90    1
    81    93    90    1
    82     7     5    1
    83     9    12    1
    84     9     8    1
    85     5     6    1
    86     5     2    1
    87     4     3    2
    88    12    13    1
    89     8     3   am
    90     3     2    1
    91     2     1    1
    92    14    13    1
    93    14    15    1
    94    17    16    1
    95    15    16    2
    96    16    18    1
