@<TRIPOS>MOLECULE
tmp/5ebkA01.pdb
 80 73 0 0 0
SMALL
GASTEIGER

@<TRIPOS>ATOM
      1  N         -3.8240   22.9640   10.8180 N.3    14  SER14      -0.1217
      2  CA        -3.3150   24.3400   10.7660 C.3    14  SER14       0.1889
      3  C         -4.4620   25.3180   11.0040 C.2    14  SER14       0.2288
      4  O         -4.3380   26.2260   11.8200 O.2    14  SER14      -0.2866
      5  CB        -2.6640   24.6430    9.4090 C.3    14  SER14       0.2089
      6  OG        -1.7160   23.6540    9.0510 O.3    14  SER14      -0.2183
      7  N         -5.4960   26.5480   15.3210 N.3    18  GLU18      -0.1245
      8  CA        -5.6290   28.0170   15.3870 C.3    18  GLU18       0.1567
      9  C         -6.9880   28.4460   15.9310 C.2    18  GLU18       0.2260
     10  O         -7.0710   29.3070   16.8200 O.2    18  GLU18      -0.2867
     11  CB        -5.4380   28.6390   13.9950 C.3    18  GLU18       0.0388
     12  CG        -5.7900   30.1300   13.8630 C.3    18  GLU18       0.1160
     13  CD        -4.7730   31.0760   14.4870 C.2    18  GLU18       0.3649
     14  OE1       -3.7960   30.6050   15.1000 O.co2  18  GLU18      -0.2457
     15  OE2       -4.9570   32.3060   14.3650 O.co2  18  GLU18      -0.2457
     16  N         -1.3710   18.9010   14.6400 N.3    49  GLY49      -0.1225
     17  CA        -0.7110   19.9400   13.8220 C.3    49  GLY49       0.1811
     18  C         -1.1840   20.0560   12.3780 C.2    49  GLY49       0.2280
     19  O         -0.9830   21.0980   11.7450 O.2    49  GLY49      -0.2866
     20  N         -0.0720   20.0520    7.1380 N.3    52  CYS52      -0.1221
     21  CA         1.1020   20.9260    6.8970 C.3    52  CYS52       0.1808
     22  C          2.2720   20.5390    7.8040 C.2    52  CYS52       0.2601
     23  O          3.4030   20.3880    7.3360 O.2    52  CYS52      -0.2717
     24  CB         0.7600   22.4150    7.0950 C.3    52  CYS52       0.0970
     25  SG         1.6370   23.6580    6.0650 S.3    52  CYS52      -0.0800
     26  N          1.9880   20.3490    9.0890 N.am   53  VAL53      -0.1979
     27  CA         3.0360   20.0800   10.0850 C.3    53  VAL53       0.1595
     28  C          3.6870   18.6990    9.9230 C.2    53  VAL53       0.2287
     29  O          4.9030   18.5820   10.0170 O.2    53  VAL53      -0.2864
     30  CB         2.4880   20.2490   11.5230 C.3    53  VAL53       0.0276
     31  CG1        3.5230   19.8560   12.5680 C.3    53  VAL53       0.0022
     32  CG2        2.0610   21.6970   11.7500 C.3    53  VAL53       0.0022
     33  N          4.1410   21.2200    4.5620 N.3    57  CYS57      -0.1221
     34  CA         5.0790   22.3580    4.5620 C.3    57  CYS57       0.1808
     35  C          6.3890   22.1660    5.3230 C.2    57  CYS57       0.2601
     36  O          7.4300   22.5920    4.8400 O.2    57  CYS57      -0.2717
     37  CB         4.4130   23.6580    5.0340 C.3    57  CYS57       0.0970
     38  SG         3.5870   23.6480    6.6440 S.3    57  CYS57      -0.0800
     39  N          6.3430   21.5230    6.4870 N.am   58  VAL58      -0.1979
     40  CA         7.5480   21.3600    7.3260 C.3    58  VAL58       0.1595
     41  C          8.5320   20.2790    6.8060 C.2    58  VAL58       0.2287
     42  O          9.6580   20.6170    6.4260 O.2    58  VAL58      -0.2864
     43  CB         7.1970   21.1720    8.8310 C.3    58  VAL58       0.0276
     44  CG1        8.4680   21.0750    9.6790 C.3    58  VAL58       0.0022
     45  CG2        6.3180   22.3280    9.3270 C.3    58  VAL58       0.0022
     46  N          7.7170   18.6800   17.2330 N.3   106  ILE106     -0.1245
     47  CA         6.5020   19.5050   17.1730 C.3   106  ILE106      0.1561
     48  C          5.3140   18.7790   17.8170 C.2   106  ILE106      0.2260
     49  O          4.5680   19.3600   18.6160 O.2   106  ILE106     -0.2867
     50  CB         6.1450   19.9470   15.7380 C.3   106  ILE106      0.0252
     51  CG1        7.2550   20.8390   15.1800 C.3   106  ILE106      0.0019
     52  CG2        4.8210   20.7170   15.7190 C.3   106  ILE106      0.0019
     53  CD1        7.2580   20.9510   13.6710 C.3   106  ILE106      0.0001
     54  N          3.1970   20.2670   20.7300 N.3   110  TYR110     -0.1241
     55  CA         1.7460   20.4130   20.7560 C.3   110  TYR110      0.1605
     56  C          1.0540   19.6530   21.8930 C.2   110  TYR110      0.2264
     57  O          0.1150   20.1840   22.4740 O.2   110  TYR110     -0.2867
     58  CB         1.1210   20.0110   19.4100 C.3   110  TYR110      0.0534
     59  CG         1.1680   21.0680   18.3230 C.ar  110  TYR110     -0.0201
     60  CD1        0.8500   22.3980   18.5980 C.ar  110  TYR110     -0.0009
     61  CD2        1.4760   20.7290   17.0050 C.ar  110  TYR110     -0.0009
     62  CE1        0.8730   23.3560   17.6090 C.ar  110  TYR110      0.0417
     63  CE2        1.4920   21.6870   16.0120 C.ar  110  TYR110      0.0417
     64  CZ         1.1860   22.9950   16.3280 C.ar  110  TYR110      0.1957
     65  OH         1.1910   23.9680   15.3730 O.3   110  TYR110     -0.2866
     66  N         -2.1690   26.6300    3.8970 N.3   335  THR335     -0.1218
     67  CA        -2.2080   26.8100    5.3560 C.3   335  THR335      0.1862
     68  C         -2.5550   28.2340    5.7990 C.2   335  THR335      0.2287
     69  O         -3.5300   28.4140    6.5320 O.2   335  THR335     -0.2866
     70  CB        -0.8840   26.3370    6.0260 C.3   335  THR335      0.1770
     71  OG1       -0.9190   24.9180    6.1820 O.3   335  THR335     -0.2211
     72  CG2       -0.6830   26.9450    7.4100 C.3   335  THR335      0.0375
     73  N         -5.5520   28.9460    8.3230 N.3   339  ILE339     -0.1245
     74  CA        -5.3120   29.6700    9.5800 C.3   339  ILE339      0.1561
     75  C         -6.2130   30.8940    9.6730 C.2   339  ILE339      0.2260
     76  O         -6.9390   31.0580   10.6460 O.2   339  ILE339     -0.2867
     77  CB        -3.8300   30.0910    9.7250 C.3   339  ILE339      0.0252
     78  CG1       -2.9840   28.8700   10.1030 C.3   339  ILE339      0.0019
     79  CG2       -3.6540   31.1960   10.7680 C.3   339  ILE339      0.0019
     80  CD1       -1.4810   29.0610    9.9720 C.3   339  ILE339      0.0001
@<TRIPOS>BOND
     1    66    67    1
     2    34    33    1
     3    34    37    1
     4    34    35    1
     5    36    35    2
     6    37    38    1
     7    35    39   am
     8    67    68    1
     9    67    70    1
    10    68    69    2
    11    70    71    1
    12    70    72    1
    13    25    38    1
    14    25    24    1
    15    42    41    2
    16    39    40    1
    17    41    40    1
    18    21    24    1
    19    21    20    1
    20    21    22    1
    21    40    43    1
    22    23    22    2
    23    22    26   am
    24    73    74    1
    25    43    45    1
    26    43    44    1
    27     6     5    1
    28    26    27    1
    29     5     2    1
    30    74    75    1
    31    74    77    1
    32    75    76    2
    33    77    78    1
    34    77    79    1
    35    28    29    2
    36    28    27    1
    37    80    78    1
    38    27    30    1
    39     2     1    1
    40     2     3    1
    41     3     4    2
    42    30    32    1
    43    30    31    1
    44    19    18    2
    45    18    17    1
    46    53    51    1
    47    17    16    1
    48    12    11    1
    49    12    13    1
    50    11     8    1
    51    15    13   ar
    52    13    14   ar
    53    51    50    1
    54     7     8    1
    55    65    64    1
    56     8     9    1
    57    52    50    1
    58    50    47    1
    59     9    10    2
    60    63    64   ar
    61    63    61   ar
    62    64    62   ar
    63    61    59   ar
    64    47    46    1
    65    47    48    1
    66    62    60   ar
    67    48    49    2
    68    59    60   ar
    69    59    58    1
    70    58    55    1
    71    54    55    1
    72    55    56    1
    73    56    57    2
