@<TRIPOS>MOLECULE
tmp/5ebtD00.pdb
 211 209 0 0 0
SMALL
GASTEIGER

@<TRIPOS>ATOM
      1  N        -20.1360  -25.6720    0.3340 N.3    79  HIS79      -0.1226
      2  CA       -21.1660  -26.6360   -0.0180 C.3    79  HIS79       0.1752
      3  C        -20.9480  -27.1250   -1.4630 C.2    79  HIS79       0.2597
      4  O        -20.9640  -26.3410   -2.4000 O.2    79  HIS79      -0.2718
      5  CB       -22.5740  -26.0490    0.1530 C.3    79  HIS79       0.0759
      6  CG       -23.6230  -27.0800   -0.0580 C.ar   79  HIS79       0.0818
      7  ND1      -24.0220  -27.9240    0.9740 N.ar   79  HIS79      -0.2268
      8  CD2      -24.2700  -27.4320   -1.1890 C.ar   79  HIS79       0.1154
      9  CE1      -24.9120  -28.7380    0.4430 C.ar   79  HIS79       0.1986
     10  NE2      -25.0840  -28.4890   -0.8640 N.ar   79  HIS79      -0.2212
     11  N        -20.7600  -28.4240   -1.6110 N.am   80  GLY80      -0.1942
     12  CA       -20.5910  -29.0920   -2.8940 C.3    80  GLY80       0.2014
     13  C        -21.8800  -29.8190   -3.2330 C.2    80  GLY80       0.2639
     14  O        -22.4820  -30.4610   -2.3530 O.2    80  GLY80      -0.2714
     15  N        -22.3420  -29.7020   -4.5060 N.am   81  SER81      -0.1949
     16  CA       -23.6080  -30.3140   -4.8930 C.3    81  SER81       0.1924
     17  C        -23.8070  -30.4000   -6.3990 C.2    81  SER81       0.2314
     18  O        -23.5920  -29.4030   -7.0770 O.2    81  SER81      -0.2863
     19  CB       -24.7810  -29.5310   -4.2790 C.3    81  SER81       0.2116
     20  OG       -26.0370  -30.0650   -4.6590 O.3    81  SER81      -0.2180
     21  N        -26.6180  -30.1540   -7.6000 N.3    83  PHE83      -0.1241
     22  CA       -27.8510  -29.3660   -7.7010 C.3    83  PHE83       0.1605
     23  C        -27.6520  -27.8590   -7.4560 C.2    83  PHE83       0.2264
     24  O        -28.5090  -27.2170   -6.8710 O.2    83  PHE83      -0.2867
     25  CB       -28.9470  -29.9800   -6.7840 C.3    83  PHE83       0.0534
     26  CG       -29.2620  -31.4210   -7.1020 C.ar   83  PHE83      -0.0203
     27  CD1      -28.7990  -32.4480   -6.2870 C.ar   83  PHE83      -0.0042
     28  CD2      -29.9870  -31.7580   -8.2460 C.ar   83  PHE83      -0.0042
     29  CE1      -29.0620  -33.7880   -6.6020 C.ar   83  PHE83      -0.0003
     30  CE2      -30.2560  -33.0960   -8.5550 C.ar   83  PHE83      -0.0003
     31  CZ       -29.8030  -34.1020   -7.7240 C.ar   83  PHE83      -0.0000
     32  N        -30.5890  -25.5270   -8.7490 N.3    86  ALA86      -0.1231
     33  CA       -31.7290  -25.5210   -7.8410 C.3    86  ALA86       0.1694
     34  C        -31.4340  -24.6510   -6.6180 C.2    86  ALA86       0.2591
     35  O        -32.2810  -23.8430   -6.2510 O.2    86  ALA86      -0.2718
     36  CB       -32.0490  -26.9450   -7.3930 C.3    86  ALA86       0.0304
     37  N        -30.2230  -24.7890   -6.0110 N.am   87  ILE87      -0.1980
     38  CA       -29.8690  -24.0340   -4.8000 C.3    87  ILE87       0.1595
     39  C        -29.7530  -22.5250   -5.0310 C.2    87  ILE87       0.2287
     40  O        -30.2190  -21.7460   -4.2010 O.2    87  ILE87      -0.2864
     41  CB       -28.6290  -24.6270   -4.0590 C.3    87  ILE87       0.0276
     42  CG1      -28.8530  -26.0980   -3.6410 C.3    87  ILE87       0.0022
     43  CG2      -28.2010  -23.7520   -2.8510 C.3    87  ILE87       0.0022
     44  CD1      -27.4990  -26.9030   -3.5240 C.3    87  ILE87       0.0001
     45  N        -32.6840  -21.6930   -3.1490 N.3    91  GLY91      -0.1210
     46  CA       -31.9910  -21.7020   -1.8720 C.3    91  GLY91       0.1956
     47  C        -31.8680  -23.1110   -1.3570 C.2    91  GLY91       0.2612
     48  O        -32.3240  -24.0480   -2.0200 O.2    91  GLY91      -0.2717
     49  N        -31.2530  -23.2740   -0.1800 N.am   92  PHE92      -0.1962
     50  CA       -31.1320  -24.5880    0.4510 C.3    92  PHE92       0.1771
     51  C        -32.4860  -25.0010    0.9770 C.2    92  PHE92       0.2620
     52  O        -33.2800  -24.1480    1.3690 O.2    92  PHE92      -0.2715
     53  CB       -30.0950  -24.5630    1.5660 C.3    92  PHE92       0.0574
     54  CG       -28.6960  -24.4060    1.0570 C.ar   92  PHE92      -0.0200
     55  CD1      -27.9920  -25.4920    0.5530 C.ar   92  PHE92      -0.0042
     56  CD2      -28.0680  -23.1800    1.1020 C.ar   92  PHE92      -0.0042
     57  CE1      -26.6770  -25.3370    0.0960 C.ar   92  PHE92      -0.0003
     58  CE2      -26.7670  -23.0230    0.6260 C.ar   92  PHE92      -0.0003
     59  CZ       -26.0820  -24.1030    0.1250 C.ar   92  PHE92      -0.0000
     60  N        -32.7880  -26.2880    0.9220 N.am   93  ASP93      -0.1957
     61  CA       -34.1220  -26.7350    1.3170 C.3    93  ASP93       0.1840
     62  C        -34.0200  -28.0110    2.1060 C.2    93  ASP93       0.2621
     63  O        -33.6320  -29.0560    1.5620 O.2    93  ASP93      -0.2715
     64  CB       -35.0180  -26.9040    0.0530 C.3    93  ASP93       0.1450
     65  CG       -36.5130  -26.9900    0.3110 C.2    93  ASP93       0.3671
     66  OD1      -36.9070  -27.2720    1.4750 O.co2  93  ASP93      -0.2456
     67  OD2      -37.2980  -26.8050   -0.6590 O.co2  93  ASP93      -0.2456
     68  N        -34.3680  -27.9300    3.4020 N.am   94  GLU94      -0.1977
     69  CA       -34.3350  -29.0630    4.3300 C.3    94  GLU94       0.1602
     70  C        -35.3800  -30.1340    3.9760 C.2    94  GLU94       0.2287
     71  O        -35.3050  -31.2400    4.4700 O.2    94  GLU94      -0.2864
     72  CB       -34.4860  -28.5710    5.7930 C.3    94  GLU94       0.0415
     73  CG       -35.8720  -28.0450    6.1600 C.3    94  GLU94       0.1163
     74  CD       -36.2200  -26.6300    5.7220 C.2    94  GLU94       0.3649
     75  OE1      -37.3200  -26.1650    6.0860 O.co2  94  GLU94      -0.2457
     76  OE2      -35.4040  -25.9790    5.0290 O.co2  94  GLU94      -0.2457
     77  N        -35.7160  -31.6100    1.1970 N.3    96  HIS96      -0.1226
     78  CA       -35.0500  -32.6130    0.3570 C.3    96  HIS96       0.1752
     79  C        -34.3140  -33.6320    1.1940 C.2    96  HIS96       0.2596
     80  O        -33.9230  -34.6450    0.6370 O.2    96  HIS96      -0.2718
     81  CB       -34.1290  -31.9720   -0.6800 C.3    96  HIS96       0.0759
     82  CG       -34.8920  -31.3320   -1.7880 C.ar   96  HIS96       0.0818
     83  ND1      -34.9510  -29.9680   -1.9160 N.ar   96  HIS96      -0.2268
     84  CD2      -35.6370  -31.8980   -2.7680 C.ar   96  HIS96       0.1154
     85  CE1      -35.7430  -29.7390   -2.9480 C.ar   96  HIS96       0.1986
     86  NE2      -36.1720  -30.8740   -3.4950 N.ar   96  HIS96      -0.2212
     87  N        -34.1680  -33.4140    2.5180 N.am   97  ALA97      -0.1966
     88  CA       -33.5000  -34.3810    3.4090 C.3    97  ALA97       0.1728
     89  C        -34.4700  -35.5640    3.6190 C.2    97  ALA97       0.2616
     90  O        -35.2310  -35.6020    4.5850 O.2    97  ALA97      -0.2715
     91  CB       -33.1190  -33.7220    4.7410 C.3    97  ALA97       0.0334
     92  N        -34.4550  -36.4950    2.6630 N.am   98  TYR98      -0.1974
     93  CA       -35.3560  -37.6260    2.5440 C.3    98  TYR98       0.1639
     94  C        -35.3400  -38.5980    3.6950 C.2    98  TYR98       0.2290
     95  O        -34.3340  -38.7190    4.4060 O.2    98  TYR98      -0.2864
     96  CB       -35.2130  -38.3200    1.1700 C.3    98  TYR98       0.0560
     97  CG       -33.7790  -38.6550    0.8090 C.ar   98  TYR98      -0.0198
     98  CD1      -33.2570  -39.9250    1.0470 C.ar   98  TYR98      -0.0009
     99  CD2      -32.9430  -37.7030    0.2310 C.ar   98  TYR98      -0.0009
    100  CE1      -31.9330  -40.2320    0.7360 C.ar   98  TYR98       0.0417
    101  CE2      -31.6180  -37.9990   -0.0840 C.ar   98  TYR98       0.0417
    102  CZ       -31.1160  -39.2630    0.1740 C.ar   98  TYR98       0.1957
    103  OH       -29.8120  -39.5490   -0.1490 O.3    98  TYR98      -0.2866
    104  N        -27.8060  -39.5380    5.9270 N.3   103  PHE103     -0.1227
    105  CA       -27.5060  -38.3270    6.6670 C.3   103  PHE103      0.1736
    106  C        -28.6090  -37.8290    7.5530 C.2   103  PHE103      0.2596
    107  O        -28.3930  -36.8500    8.2520 O.2   103  PHE103     -0.2718
    108  CB       -27.0870  -37.2110    5.7010 C.3   103  PHE103      0.0547
    109  CG       -25.7110  -37.3960    5.1520 C.ar  103  PHE103     -0.0202
    110  CD1      -24.6010  -36.9500    5.8540 C.ar  103  PHE103     -0.0042
    111  CD2      -25.5150  -37.9960    3.9160 C.ar  103  PHE103     -0.0042
    112  CE1      -23.3080  -37.1210    5.3350 C.ar  103  PHE103     -0.0003
    113  CE2      -24.2260  -38.1420    3.3900 C.ar  103  PHE103     -0.0003
    114  CZ       -23.1340  -37.7090    4.1060 C.ar  103  PHE103     -0.0000
    115  N        -29.7840  -38.4450    7.4960 N.am  104  GLY104     -0.1957
    116  CA       -30.9160  -37.9590    8.2820 C.3   104  GLY104      0.1869
    117  C        -31.3780  -36.5900    7.8150 C.2   104  GLY104      0.2309
    118  O        -31.2740  -36.2610    6.6250 O.2   104  GLY104     -0.2863
    119  N        -31.5280  -32.2230    7.7690 N.3   106  GLY106     -0.1210
    120  CA       -30.5900  -31.1130    7.7480 C.3   106  GLY106      0.1956
    121  C        -29.8940  -30.7670    6.4390 C.2   106  GLY106      0.2612
    122  O        -29.9310  -31.5130    5.4520 O.2   106  GLY106     -0.2717
    123  N        -29.3090  -29.5640    6.4530 N.am  107  ILE107     -0.1965
    124  CA       -28.5110  -28.9150    5.4090 C.3   107  ILE107      0.1727
    125  C        -27.0830  -28.9290    5.8850 C.2   107  ILE107      0.2616
    126  O        -26.8020  -28.4150    6.9670 O.2   107  ILE107     -0.2715
    127  CB       -29.0170  -27.4940    5.0850 C.3   107  ILE107      0.0290
    128  CG1      -30.5310  -27.5440    4.8170 C.3   107  ILE107      0.0022
    129  CG2      -28.2510  -26.9330    3.8820 C.3   107  ILE107      0.0023
    130  CD1      -31.2890  -26.3570    5.2080 C.3   107  ILE107      0.0001
    131  N        -26.2010  -29.5550    5.0940 N.am  108  TYR108     -0.1960
    132  CA       -24.8100  -29.8130    5.4630 C.3   108  TYR108      0.1771
    133  C        -23.7920  -28.9130    4.8010 C.2   108  TYR108      0.2620
    134  O        -23.8520  -28.6960    3.5860 O.2   108  TYR108     -0.2715
    135  CB       -24.4610  -31.2930    5.1820 C.3   108  TYR108      0.0574
    136  CG       -25.0070  -32.2790    6.1960 C.ar  108  TYR108     -0.0198
    137  CD1      -24.1640  -32.9270    7.0870 C.ar  108  TYR108     -0.0009
    138  CD2      -26.3710  -32.5470    6.2760 C.ar  108  TYR108     -0.0009
    139  CE1      -24.6560  -33.8500    8.0050 C.ar  108  TYR108      0.0417
    140  CE2      -26.8830  -33.4360    7.2230 C.ar  108  TYR108      0.0417
    141  CZ       -26.0210  -34.0810    8.0900 C.ar  108  TYR108      0.1957
    142  OH       -26.5060  -34.9640    9.0210 O.3   108  TYR108     -0.2866
    143  N        -22.8010  -28.4740    5.5900 N.am  109  PHE109     -0.1960
    144  CA       -21.6910  -27.6160    5.1440 C.3   109  PHE109      0.1771
    145  C        -20.3700  -28.0920    5.6840 C.2   109  PHE109      0.2619
    146  O        -20.3240  -28.7470    6.7140 O.2   109  PHE109     -0.2715
    147  CB       -21.8940  -26.1540    5.5880 C.3   109  PHE109      0.0574
    148  CG       -23.1140  -25.5190    4.9950 C.ar  109  PHE109     -0.0200
    149  CD1      -23.0700  -24.9450    3.7260 C.ar  109  PHE109     -0.0042
    150  CD2      -24.3230  -25.5240    5.6870 C.ar  109  PHE109     -0.0042
    151  CE1      -24.2120  -24.3830    3.1640 C.ar  109  PHE109     -0.0003
    152  CE2      -25.4660  -24.9710    5.1190 C.ar  109  PHE109     -0.0003
    153  CZ       -25.4050  -24.4140    3.8590 C.ar  109  PHE109     -0.0000
    154  N        -19.2840  -27.7160    5.0020 N.am  110  ALA110     -0.1977
    155  CA       -17.9460  -28.0780    5.4230 C.3   110  ALA110      0.1597
    156  C        -17.1270  -26.8160    5.5970 C.2   110  ALA110      0.2287
    157  O        -17.3270  -25.8500    4.8640 O.2   110  ALA110     -0.2864
    158  CB       -17.3000  -28.9580    4.3770 C.3   110  ALA110      0.0319
    159  N        -13.5970  -31.2400    1.4140 N.3   115  LYS115     -0.1231
    160  CA       -14.6710  -32.1010    1.8840 C.3   115  LYS115      0.1693
    161  C        -15.8800  -31.8660    0.9640 C.2   115  LYS115      0.2592
    162  O        -16.5000  -32.8290    0.5090 O.2   115  LYS115     -0.2718
    163  CB       -15.0520  -31.8260    3.3650 C.3   115  LYS115      0.0285
    164  CG       -16.3320  -32.5540    3.8160 C.3   115  LYS115      0.0035
    165  CD       -16.0260  -34.0130    4.2420 C.3   115  LYS115      0.0206
    166  CE       -17.2730  -34.8670    4.3720 C.3   115  LYS115      0.1093
    167  NZ       -16.9900  -36.3240    4.2050 N.3   115  LYS115     -0.1314
    168  N        -16.1950  -30.5930    0.6760 N.am  116  SER116     -0.1952
    169  CA       -17.3250  -30.2670   -0.1990 C.3   116  SER116      0.1924
    170  C        -17.0750  -30.7510   -1.6140 C.2   116  SER116      0.2314
    171  O        -18.0180  -31.1610   -2.2750 O.2   116  SER116     -0.2863
    172  CB       -17.5820  -28.7710   -0.1960 C.3   116  SER116      0.2116
    173  OG       -17.9900  -28.3610    1.0900 O.3   116  SER116     -0.2180
    174  N        -18.5540  -33.9960   -2.8570 N.3   119  TYR119     -0.1241
    175  CA       -20.0000  -34.0780   -3.1470 C.3   119  TYR119      0.1605
    176  C        -20.4290  -33.3570   -4.4030 C.2   119  TYR119      0.2264
    177  O        -21.6300  -33.3200   -4.7080 O.2   119  TYR119     -0.2867
    178  CB       -20.8220  -33.5690   -1.9530 C.3   119  TYR119      0.0534
    179  CG       -20.5700  -34.3490   -0.6910 C.ar  119  TYR119     -0.0201
    180  CD1      -21.2490  -35.5340   -0.4370 C.ar  119  TYR119     -0.0009
    181  CD2      -19.6110  -33.9330    0.2280 C.ar  119  TYR119     -0.0009
    182  CE1      -20.9740  -36.2930    0.7040 C.ar  119  TYR119      0.0417
    183  CE2      -19.3340  -34.6750    1.3730 C.ar  119  TYR119      0.0417
    184  CZ       -19.9990  -35.8680    1.5970 C.ar  119  TYR119      0.1957
    185  OH       -19.7030  -36.6050    2.7260 O.3   119  TYR119     -0.2866
    186  N        -22.0490  -35.8440   -6.5020 N.3   122  GLY122     -0.1210
    187  CA       -22.9600  -36.6600   -5.7010 C.3   122  GLY122      0.1956
    188  C        -22.2710  -37.3000   -4.5090 C.2   122  GLY122      0.2611
    189  O        -21.0670  -37.1030   -4.3130 O.2   122  GLY122     -0.2717
    190  N        -23.0310  -38.0800   -3.7060 N.am  123  ILE123     -0.1979
    191  CA       -22.5280  -38.8090   -2.5270 C.3   123  ILE123      0.1595
    192  C        -21.4310  -39.7600   -3.0090 C.2   123  ILE123      0.2287
    193  O        -21.6200  -40.4770   -3.9970 O.2   123  ILE123     -0.2864
    194  CB       -23.6450  -39.5890   -1.7560 C.3   123  ILE123      0.0276
    195  CG1      -24.9560  -38.7740   -1.5610 C.3   123  ILE123      0.0022
    196  CG2      -23.1210  -40.2110   -0.4590 C.3   123  ILE123      0.0022
    197  CD1      -25.0370  -37.7880   -0.3830 C.3   123  ILE123      0.0001
    198  N        -15.1970  -31.8660   10.5900 N.3   182  ALA182     -0.1231
    199  CA       -16.4020  -31.2640   11.1440 C.3   182  ALA182      0.1694
    200  C        -17.4310  -31.0320   10.0480 C.2   182  ALA182      0.2595
    201  O        -17.1050  -30.6970    8.9020 O.2   182  ALA182     -0.2718
    202  CB       -16.0650  -29.9300   11.8180 C.3   182  ALA182      0.0304
    203  N        -18.6790  -31.2680   10.3970 N.am  183  GLU183     -0.1934
    204  CA       -19.7760  -30.9570    9.4860 C.3   183  GLU183      0.1818
    205  C        -20.6760  -30.0250   10.2260 C.2   183  GLU183      0.2332
    206  O        -20.8370  -30.1750   11.4330 O.2   183  GLU183     -0.2860
    207  CB       -20.5050  -32.1840    8.8850 C.2   183  GLU183      0.0097
    208  CG       -20.8480  -33.3160    9.8430 C.2   183  GLU183      0.0837
    209  CD       -21.2700  -34.6160    9.1820 C.2   183  GLU183      0.3877
    210  OE1      -20.7010  -34.9740    8.1250 O.co2 183  GLU183     -0.2406
    211  OE2      -22.1400  -35.3080    9.7570 O.co2 183  GLU183     -0.2406
@<TRIPOS>BOND
     1    32    33    1
     2    30    28   ar
     3    30    31   ar
     4    28    26   ar
     5    33    36    1
     6    33    34    1
     7    31    29   ar
     8    22    21    1
     9    22    23    1
    10    22    25    1
    11    23    24    2
    12    26    25    1
    13    26    27   ar
    14    18    17    2
    15    34    35    2
    16    34    37   am
    17    29    27   ar
    18   186   187    1
    19    17    16    1
    20    37    38    1
    21   187   188    1
    22    39    38    1
    23    39    40    2
    24    16    15    1
    25    16    19    1
    26    38    41    1
    27   177   176    2
    28    20    19    1
    29   188   189    2
    30   188   190   am
    31    15    13   am
    32   176   175    1
    33    41    42    1
    34    41    43    1
    35   193   192    2
    36   190   191    1
    37    42    44    1
    38    86    85   ar
    39    86    84   ar
    40    13    12    1
    41    13    14    2
    42    45    46    1
    43   175   174    1
    44   175   178    1
    45   192   191    1
    46    85    83   ar
    47    12    11    1
    48    84    82   ar
    49   191   194    1
    50     4     3    2
    51   171   170    2
    52    48    47    2
    53   178   179    1
    54    83    82   ar
    55    46    47    1
    56    82    81    1
    57   194   195    1
    58   194   196    1
    59   170   169    1
    60    11     3   am
    61   195   197    1
    62     3     2    1
    63    47    49   am
    64     8    10   ar
    65     8     6   ar
    66    10     9   ar
    67   179   180   ar
    68   179   181   ar
    69    81    78    1
    70    67    65   ar
    71   180   182   ar
    72   169   172    1
    73   169   168    1
    74   172   173    1
    75    49    50    1
    76   103   102    1
    77   101   102   ar
    78   101    99   ar
    79     6     5    1
    80     6     7   ar
    81     2     5    1
    82     2     1    1
    83    64    65    1
    84    64    61    1
    85    57    59   ar
    86    57    55   ar
    87    59    58   ar
    88   102   100   ar
    89   181   183   ar
    90    99    97   ar
    91    65    66   ar
    92    78    79    1
    93    78    77    1
    94     9     7   ar
    95    50    51    1
    96    50    53    1
    97   162   161    2
    98    55    54   ar
    99    58    56   ar
   100    80    79    2
   101   168   161   am
   102   182   184   ar
   103   100    98   ar
   104    97    98   ar
   105    97    96    1
   106    60    51   am
   107    60    61    1
   108   161   160    1
   109    51    52    2
   110    54    56   ar
   111    54    53    1
   112    96    93    1
   113    79    87   am
   114    61    62    1
   115   183   184   ar
   116   159   160    1
   117    63    62    2
   118   184   185    1
   119   160   163    1
   120    62    68   am
   121    87    88    1
   122    93    92    1
   123    93    94    1
   124    92    89   am
   125   151   149   ar
   126   151   153   ar
   127   163   164    1
   128   113   111   ar
   129   113   114   ar
   130    68    69    1
   131    88    89    1
   132    88    91    1
   133   134   133    2
   134    89    90    2
   135    94    95    2
   136   149   148   ar
   137   164   165    1
   138   153   152   ar
   139   129   127    1
   140   111   109   ar
   141    70    69    1
   142    70    71    2
   143   114   112   ar
   144   167   166    1
   145   165   166    1
   146    69    72    1
   147   158   155    1
   148   133   132    1
   149   133   143   am
   150   128   127    1
   151   128   130    1
   152   157   156    2
   153   148   147    1
   154   148   150   ar
   155   154   155    1
   156   154   145   am
   157    76    74   ar
   158   127   124    1
   159   131   132    1
   160   131   125   am
   161   152   150   ar
   162   144   147    1
   163   144   143    1
   164   144   145    1
   165   109   108    1
   166   109   110   ar
   167   135   132    1
   168   135   136    1
   169   112   110   ar
   170   124   125    1
   171   124   123    1
   172   155   156    1
   173   122   121    2
   174   145   146    2
   175   108   105    1
   176    74    75   ar
   177    74    73    1
   178    72    73    1
   179   125   126    2
   180   104   105    1
   181   136   138   ar
   182   136   137   ar
   183   138   140   ar
   184   121   123   am
   185   121   120    1
   186   118   117    2
   187   105   106    1
   188   137   139   ar
   189   140   141   ar
   190   115   106   am
   191   115   116    1
   192   106   107    2
   193   120   119    1
   194   117   116    1
   195   139   141   ar
   196   141   142    1
   197   210   209   ar
   198   207   204    1
   199   207   208    2
   200   201   200    2
   201   209   211   ar
   202   209   208    1
   203   204   205    1
   204   204   203    1
   205   200   203   am
   206   200   199    1
   207   205   206    2
   208   198   199    1
   209   199   202    1
