@<TRIPOS>MOLECULE
tmp/5ebvA01.pdb
 198 196 0 0 0
SMALL
GASTEIGER

@<TRIPOS>ATOM
      1  N         17.0070  -22.3500   26.9960 N.3    11  TRP11      -0.1241
      2  CA        16.8140  -21.0140   27.5890 C.3    11  TRP11       0.1605
      3  C         15.3670  -20.6110   27.9000 C.2    11  TRP11       0.2264
      4  O         15.1320  -19.9770   28.9300 O.2    11  TRP11      -0.2867
      5  CB        17.5740  -19.9270   26.7930 C.3    11  TRP11       0.0550
      6  CG        19.0420  -19.9850   27.1140 C.ar   11  TRP11       0.0003
      7  CD1       19.9780  -20.7770   26.5170 C.ar   11  TRP11       0.0946
      8  CD2       19.7230  -19.2940   28.1710 C.ar   11  TRP11       0.0152
      9  NE1       21.2030  -20.6000   27.1130 N.ar   11  TRP11      -0.2442
     10  CE2       21.0750  -19.6970   28.1320 C.ar   11  TRP11       0.0810
     11  CE3       19.3250  -18.3620   29.1370 C.ar   11  TRP11       0.0012
     12  CZ2       22.0320  -19.2020   29.0220 C.ar   11  TRP11       0.0191
     13  CZ3       20.2770  -17.8690   30.0200 C.ar   11  TRP11       0.0001
     14  CH2       21.6170  -18.2880   29.9540 C.ar   11  TRP11       0.0015
     15  N         12.6580  -15.9400   41.0440 N.3    22  PHE22      -0.1241
     16  CA        13.0730  -14.5920   41.4210 C.3    22  PHE22       0.1605
     17  C         11.9280  -13.6060   41.2290 C.2    22  PHE22       0.2264
     18  O         11.5430  -13.3110   40.0940 O.2    22  PHE22      -0.2867
     19  CB        14.2820  -14.1390   40.5940 C.3    22  PHE22       0.0534
     20  CG        15.3250  -15.2020   40.3980 C.ar   22  PHE22      -0.0203
     21  CD1       15.7740  -15.5230   39.1240 C.ar   22  PHE22      -0.0042
     22  CD2       15.8590  -15.8800   41.4850 C.ar   22  PHE22      -0.0042
     23  CE1       16.7360  -16.4970   38.9380 C.ar   22  PHE22      -0.0003
     24  CE2       16.8190  -16.8570   41.3040 C.ar   22  PHE22      -0.0003
     25  CZ        17.2600  -17.1660   40.0280 C.ar   22  PHE22      -0.0000
     26  N         12.0840  -10.5540   41.6890 N.3    24  ASP24      -0.1225
     27  CA        12.7100   -9.4520   40.9560 C.3    24  ASP24       0.1805
     28  C         13.3170   -9.9080   39.6150 C.2    24  ASP24       0.2598
     29  O         14.3240   -9.3460   39.1700 O.2    24  ASP24      -0.2718
     30  CB        13.7790   -8.7670   41.8350 C.3    24  ASP24       0.1424
     31  CG        14.9500   -9.6900   42.1900 C.2    24  ASP24       0.3668
     32  OD1       14.8830  -10.9170   41.9400 O.co2  24  ASP24      -0.2456
     33  OD2       15.9460   -9.1760   42.7370 O.co2  24  ASP24      -0.2456
     34  N         12.7120  -10.9140   38.9720 N.am   25  PHE25      -0.1962
     35  CA        13.2580  -11.4400   37.7160 C.3    25  PHE25       0.1771
     36  C         13.1830  -10.3560   36.6570 C.2    25  PHE25       0.2619
     37  O         12.1130   -9.8520   36.3490 O.2    25  PHE25      -0.2715
     38  CB        12.5260  -12.7030   37.2420 C.3    25  PHE25       0.0574
     39  CG        12.9720  -13.1870   35.8840 C.ar   25  PHE25      -0.0200
     40  CD1       14.3150  -13.4510   35.6310 C.ar   25  PHE25      -0.0042
     41  CD2       12.0530  -13.3750   34.8580 C.ar   25  PHE25      -0.0042
     42  CE1       14.7270  -13.8830   34.3820 C.ar   25  PHE25      -0.0003
     43  CE2       12.4600  -13.8170   33.6100 C.ar   25  PHE25      -0.0003
     44  CZ        13.7990  -14.0700   33.3700 C.ar   25  PHE25      -0.0000
     45  N         14.3380  -10.0080   36.1090 N.am   26  ILE26      -0.1977
     46  CA        14.4500   -8.8820   35.1770 C.3    26  ILE26       0.1596
     47  C         13.7720   -9.1020   33.8160 C.2    26  ILE26       0.2287
     48  O         13.6130   -8.1570   33.0500 O.2    26  ILE26      -0.2864
     49  CB        15.9300   -8.4640   34.9760 C.3    26  ILE26       0.0276
     50  CG1       16.7590   -9.6050   34.3650 C.3    26  ILE26       0.0022
     51  CG2       16.5230   -8.0070   36.3030 C.3    26  ILE26       0.0022
     52  CD1       18.2000   -9.2340   34.0850 C.3    26  ILE26       0.0001
     53  N         17.5410  -10.3790   30.7180 N.3    31  ALA31      -0.1245
     54  CA        18.3060  -11.6060   30.9130 C.3    31  ALA31       0.1562
     55  C         19.2090  -11.8930   29.7130 C.2    31  ALA31       0.2260
     56  O         20.3640  -12.2830   29.8770 O.2    31  ALA31      -0.2867
     57  CB        17.3730  -12.7810   31.1600 C.3    31  ALA31       0.0290
     58  N         22.2840   -9.4140   29.7870 N.3    34  TRP34      -0.1227
     59  CA        23.2630   -9.8890   30.7660 C.3    34  TRP34       0.1737
     60  C         23.9590  -11.1740   30.2990 C.2    34  TRP34       0.2595
     61  O         25.0990  -11.4370   30.6790 O.2    34  TRP34      -0.2718
     62  CB        22.5890  -10.1620   32.1130 C.3    34  TRP34       0.0564
     63  CG        22.2710   -8.9500   32.9340 C.ar   34  TRP34       0.0003
     64  CD1       21.1910   -8.1330   32.8050 C.ar   34  TRP34       0.0946
     65  CD2       23.0340   -8.4340   34.0350 C.ar   34  TRP34       0.0152
     66  NE1       21.2330   -7.1340   33.7460 N.ar   34  TRP34      -0.2442
     67  CE2       22.3500   -7.3000   34.5210 C.ar   34  TRP34       0.0810
     68  CE3       24.2270   -8.8190   34.6540 C.ar   34  TRP34       0.0012
     69  CZ2       22.8220   -6.5440   35.5980 C.ar   34  TRP34       0.0191
     70  CZ3       24.6920   -8.0780   35.7220 C.ar   34  TRP34       0.0001
     71  CH2       23.9880   -6.9490   36.1860 C.ar   34  TRP34       0.0015
     72  N         23.2630  -11.9770   29.4950 N.am   35  ARG35      -0.1980
     73  CA        23.8250  -13.2040   28.9460 C.3    35  ARG35       0.1597
     74  C         25.1080  -12.9450   28.1470 C.2    35  ARG35       0.2287
     75  O         25.9980  -13.7830   28.1310 O.2    35  ARG35      -0.2864
     76  CB        22.8080  -13.9430   28.0670 C.3    35  ARG35       0.0334
     77  CG        22.6340  -15.4100   28.4230 C.3    35  ARG35       0.0492
     78  CD        22.8240  -16.3460   27.2360 C.3    35  ARG35       0.2205
     79  NE        21.6800  -16.3620   26.3380 N.pl3  35  ARG35      -0.0865
     80  CZ        21.5540  -17.1730   25.2870 C.cat  35  ARG35       0.5346
     81  NH1       22.4980  -18.0610   24.9900 N.pl3  35  ARG35       0.1354
     82  NH2       20.4680  -17.0950   24.5260 N.pl3  35  ARG35       0.1354
     83  N         28.1770  -13.8950   29.9720 N.3    38  VAL38      -0.1245
     84  CA        28.3710  -15.2870   30.3450 C.3    38  VAL38       0.1561
     85  C         29.2820  -15.9450   29.3030 C.2    38  VAL38       0.2260
     86  O         28.9420  -15.9870   28.1150 O.2    38  VAL38      -0.2867
     87  CB        27.0320  -16.0560   30.4070 C.3    38  VAL38       0.0252
     88  CG1       27.2580  -17.5140   30.8020 C.3    38  VAL38       0.0019
     89  CG2       26.0670  -15.3800   31.3720 C.3    38  VAL38       0.0019
     90  N         24.9490  -20.1070   36.6840 N.3    57  LEU57      -0.1245
     91  CA        25.9620  -19.6140   35.7740 C.3    57  LEU57       0.1561
     92  C         26.8650  -18.5980   36.4430 C.2    57  LEU57       0.2260
     93  O         26.6070  -18.1580   37.5630 O.2    57  LEU57      -0.2867
     94  CB        25.3140  -19.0020   34.5280 C.3    57  LEU57       0.0270
     95  CG        24.3100  -17.8590   34.7080 C.3    57  LEU57       0.0019
     96  CD1       24.9830  -16.5170   35.0050 C.3    57  LEU57       0.0001
     97  CD2       23.4580  -17.7500   33.4500 C.3    57  LEU57       0.0001
     98  N         29.2790  -14.9590   35.3290 N.3    59  MET59      -0.1245
     99  CA        29.6270  -13.9520   34.3500 C.3    59  MET59       0.1570
    100  C         31.0680  -13.5300   34.5450 C.2    59  MET59       0.2261
    101  O         31.6120  -13.6160   35.6560 O.2    59  MET59      -0.2867
    102  CB        28.7190  -12.7500   34.5140 C.3    59  MET59       0.0387
    103  CG        27.2600  -13.0920   34.2840 C.3    59  MET59       0.0595
    104  SD        26.1640  -11.7350   34.7080 S.3    59  MET59      -0.1393
    105  CE        26.4670  -11.5800   36.4670 C.3    59  MET59       0.0692
    106  N         28.8680  -15.3960   40.1090 N.3    76  LEU76      -0.1231
    107  CA        27.7640  -16.3580   40.1030 C.3    76  LEU76       0.1693
    108  C         26.4390  -15.5970   40.1030 C.2    76  LEU76       0.2593
    109  O         26.3040  -14.5830   40.7820 O.2    76  LEU76      -0.2718
    110  CB        27.8050  -17.2780   41.3260 C.3    76  LEU76       0.0284
    111  CG        28.7580  -18.4750   41.3890 C.3    76  LEU76       0.0019
    112  CD1       28.1240  -19.7170   40.7970 C.3    76  LEU76       0.0001
    113  CD2       30.1110  -18.1760   40.7430 C.3    76  LEU76       0.0001
    114  N         25.4820  -16.0940   39.3270 N.am   77  SER77      -0.1938
    115  CA        24.1410  -15.5220   39.2570 C.3    77  SER77       0.2055
    116  C         23.1720  -16.4980   38.5980 C.2    77  SER77       0.2643
    117  O         23.5800  -17.5500   38.0820 O.2    77  SER77      -0.2714
    118  CB        24.1530  -14.2170   38.4610 C.3    77  SER77       0.2130
    119  OG        22.9100  -13.5300   38.5970 O.3    77  SER77      -0.2179
    120  N         21.8880  -16.1430   38.6160 N.am   78  PHE78      -0.1959
    121  CA        20.8580  -16.9290   37.9470 C.3    78  PHE78       0.1771
    122  C         20.8360  -18.3570   38.4960 C.2    78  PHE78       0.2619
    123  O         20.6730  -19.3170   37.7440 O.2    78  PHE78      -0.2715
    124  CB        21.1460  -16.9180   36.4370 C.3    78  PHE78       0.0574
    125  CG        19.9280  -16.9310   35.5680 C.ar   78  PHE78      -0.0200
    126  CD1       19.8070  -17.8570   34.5390 C.ar   78  PHE78      -0.0042
    127  CD2       18.9200  -15.9940   35.7400 C.ar   78  PHE78      -0.0042
    128  CE1       18.6980  -17.8520   33.7080 C.ar   78  PHE78      -0.0003
    129  CE2       17.8070  -15.9890   34.9150 C.ar   78  PHE78      -0.0003
    130  CZ        17.6980  -16.9180   33.8970 C.ar   78  PHE78      -0.0000
    131  N         21.0310  -18.4840   39.8090 N.am   79  VAL79      -0.1977
    132  CA        21.0750  -19.7750   40.4870 C.3    79  VAL79       0.1596
    133  C         19.6850  -20.1040   41.0100 C.2    79  VAL79       0.2287
    134  O         19.1000  -19.3250   41.7660 O.2    79  VAL79      -0.2864
    135  CB        22.0540  -19.7770   41.6830 C.3    79  VAL79       0.0276
    136  CG1       22.0240  -21.1170   42.3960 C.3    79  VAL79       0.0022
    137  CG2       23.4750  -19.4600   41.2340 C.3    79  VAL79       0.0022
    138  N         29.3580  -13.3190   44.4260 N.3   112  LEU112     -0.1231
    139  CA        27.9010  -13.3330   44.2850 C.3   112  LEU112      0.1693
    140  C         27.2070  -12.3910   45.2770 C.2   112  LEU112      0.2592
    141  O         27.8280  -11.8950   46.2280 O.2   112  LEU112     -0.2718
    142  CB        27.3420  -14.7610   44.4370 C.3   112  LEU112      0.0284
    143  CG        27.6410  -15.5640   45.7210 C.3   112  LEU112      0.0019
    144  CD1       26.6880  -15.2280   46.8610 C.3   112  LEU112      0.0001
    145  CD2       27.5680  -17.0600   45.4390 C.3   112  LEU112      0.0001
    146  N         25.9240  -12.1430   45.0090 N.am  113  HIS113     -0.1962
    147  CA        25.0050  -11.5150   45.9590 C.3   113  HIS113      0.1787
    148  C         24.0380  -12.5930   46.4550 C.2   113  HIS113      0.2620
    149  O         23.4630  -13.3270   45.6580 O.2   113  HIS113     -0.2715
    150  CB        24.2610  -10.3540   45.2940 C.3   113  HIS113      0.0785
    151  CG        25.1290   -9.1600   45.0550 C.ar  113  HIS113      0.0821
    152  ND1       25.0850   -8.0380   45.8520 N.ar  113  HIS113     -0.2267
    153  CD2       26.1000   -8.9320   44.1390 C.ar  113  HIS113      0.1154
    154  CE1       25.9790   -7.1630   45.4280 C.ar  113  HIS113      0.1986
    155  NE2       26.6060   -7.6800   44.3870 N.ar  113  HIS113     -0.2212
    156  N         23.8810  -12.7000   47.7720 N.am  114  ALA114     -0.1963
    157  CA        23.1640  -13.8240   48.3640 C.3   114  ALA114      0.1728
    158  C         21.6840  -13.5210   48.5690 C.2   114  ALA114      0.2616
    159  O         21.3300  -12.5040   49.1670 O.2   114  ALA114     -0.2715
    160  CB        23.8090  -14.2210   49.6850 C.3   114  ALA114      0.0334
    161  N         20.8290  -14.4200   48.0840 N.am  115  SER115     -0.1950
    162  CA        19.3830  -14.3290   48.3070 C.3   115  SER115      0.1924
    163  C         19.0450  -14.5270   49.7860 C.2   115  SER115      0.2314
    164  O         18.1340  -13.9000   50.3030 O.2   115  SER115     -0.2863
    165  CB        18.6540  -15.3850   47.4820 C.3   115  SER115      0.2116
    166  OG        19.0390  -16.6900   47.8960 O.3   115  SER115     -0.2180
    167  N         25.5060  -19.7990   51.4110 N.3   120  TYR120     -0.1241
    168  CA        26.7530  -19.8400   50.6400 C.3   120  TYR120      0.1605
    169  C         28.0670  -19.9850   51.4330 C.2   120  TYR120      0.2264
    170  O         29.0990  -20.2870   50.8450 O.2   120  TYR120     -0.2867
    171  CB        26.7870  -18.6510   49.6610 C.3   120  TYR120      0.0534
    172  CG        25.8180  -18.8450   48.5030 C.ar  120  TYR120     -0.0201
    173  CD1       26.0390  -19.8540   47.5510 C.ar  120  TYR120     -0.0009
    174  CD2       24.6760  -18.0570   48.3710 C.ar  120  TYR120     -0.0009
    175  CE1       25.1550  -20.0680   46.4980 C.ar  120  TYR120      0.0417
    176  CE2       23.7880  -18.2530   47.3180 C.ar  120  TYR120      0.0417
    177  CZ        24.0290  -19.2640   46.3850 C.ar  120  TYR120      0.1957
    178  OH        23.1610  -19.4740   45.3370 O.3   120  TYR120     -0.2866
    179  N         24.5160   -4.7740   41.9900 N.3   395  GLU395     -0.1231
    180  CA        24.0440   -6.1230   42.2180 C.3   395  GLU395      0.1699
    181  C         24.0090   -6.8820   40.8880 C.2   395  GLU395      0.2592
    182  O         23.7320   -6.3040   39.8380 O.2   395  GLU395     -0.2718
    183  CB        22.6420   -6.0720   42.8320 C.3   395  GLU395      0.0402
    184  CG        22.3290   -7.2350   43.7520 C.3   395  GLU395      0.1161
    185  CD        20.8770   -7.2570   44.2040 C.2   395  GLU395      0.3649
    186  OE1       20.2570   -6.1690   44.2860 O.co2 395  GLU395     -0.2457
    187  OE2       20.3620   -8.3710   44.4800 O.co2 395  GLU395     -0.2457
    188  N         24.3000   -8.1770   40.9370 N.am  396  PHE396     -0.1976
    189  CA        24.2590   -9.0210   39.7450 C.3   396  PHE396      0.1639
    190  C         23.7680  -10.4000   40.1340 C.2   396  PHE396      0.2290
    191  O         23.4570  -11.2230   39.2650 O.2   396  PHE396     -0.2864
    192  CB        25.6370   -9.0990   39.0670 C.3   396  PHE396      0.0560
    193  CG        26.7160   -9.6960   39.9350 C.ar  396  PHE396     -0.0200
    194  CD1       26.8640  -11.0680   40.0420 C.ar  396  PHE396     -0.0042
    195  CD2       27.5760   -8.8810   40.6470 C.ar  396  PHE396     -0.0042
    196  CE1       27.8410  -11.6110   40.8580 C.ar  396  PHE396     -0.0003
    197  CE2       28.5650   -9.4200   41.4520 C.ar  396  PHE396     -0.0003
    198  CZ        28.7010  -10.7860   41.5560 C.ar  396  PHE396     -0.0000
@<TRIPOS>BOND
     1    82    80    1
     2    81    80    1
     3    80    79    2
     4    79    78    1
     5     7     9   ar
     6     7     6   ar
     7     5     6    1
     8     5     2    1
     9     1     2    1
    10     9    10   ar
    11     6     8   ar
    12    78    77    1
    13     2     3    1
    14     3     4    2
    15    76    77    1
    16    76    73    1
    17    86    85    2
    18    75    74    2
    19    10     8   ar
    20    10    12   ar
    21    74    73    1
    22     8    11   ar
    23    73    72    1
    24    12    14   ar
    25    11    13   ar
    26    85    84    1
    27    72    60   am
    28    55    56    2
    29    55    54    1
    30    58    59    1
    31    14    13   ar
    32    83    84    1
    33    60    61    2
    34    60    59    1
    35    84    87    1
    36    87    88    1
    37    87    89    1
    38    53    54    1
    39    59    62    1
    40    54    57    1
    41    62    63    1
    42    64    63   ar
    43    64    66   ar
    44    63    65   ar
    45    48    47    2
    46    44    43   ar
    47    44    42   ar
    48    97    95    1
    49    43    41   ar
    50   128   130   ar
    51   128   126   ar
    52    66    67   ar
    53    47    46    1
    54   130   129   ar
    55    65    67   ar
    56    65    68   ar
    57    52    50    1
    58   103   102    1
    59   103   104    1
    60    99   102    1
    61    99   100    1
    62    99    98    1
    63    50    49    1
    64    42    40   ar
    65    67    69   ar
    66    94    95    1
    67    94    91    1
    68   126   125   ar
    69   100   101    2
    70    68    70   ar
    71   104   105    1
    72    95    96    1
    73    41    39   ar
    74   129   127   ar
    75    49    46    1
    76    49    51    1
    77    46    45    1
    78   125   127   ar
    79   125   124    1
    80    69    71   ar
    81    40    39   ar
    82    70    71   ar
    83    91    92    1
    84    91    90    1
    85    39    38    1
    86    45    36   am
    87    37    36    2
    88   124   121    1
    89    92    93    2
    90    36    35    1
    91    38    35    1
    92    35    34    1
    93   123   122    2
    94   121   122    1
    95   121   120    1
    96   117   116    2
    97   118   119    1
    98   118   115    1
    99   122   131   am
   100   116   120   am
   101   116   115    1
   102    23    21   ar
   103    23    25   ar
   104    34    28   am
   105   192   189    1
   106   192   193    1
   107    21    20   ar
   108    29    28    2
   109   115   114    1
   110   191   190    2
   111   114   108   am
   112    28    27    1
   113   189   190    1
   114   189   188    1
   115   131   132    1
   116   182   181    2
   117   193   194   ar
   118   193   195   ar
   119    25    24   ar
   120   194   196   ar
   121    18    17    2
   122   108   107    1
   123   108   109    2
   124   107   106    1
   125   107   110    1
   126    20    19    1
   127    20    22   ar
   128   132   133    1
   129   132   135    1
   130    19    16    1
   131   195   197   ar
   132   113   111    1
   133   112   111    1
   134   196   198   ar
   135   181   188   am
   136   181   180    1
   137    27    26    1
   138    27    30    1
   139   133   134    2
   140    15    16    1
   141    17    16    1
   142   137   135    1
   143    24    22   ar
   144   110   111    1
   145   197   198   ar
   146   135   136    1
   147    30    31    1
   148    32    31   ar
   149   179   180    1
   150    31    33   ar
   151   180   183    1
   152   183   184    1
   153   184   185    1
   154   153   155   ar
   155   153   151   ar
   156   185   186   ar
   157   185   187   ar
   158   139   138    1
   159   139   142    1
   160   139   140    1
   161   155   154   ar
   162   142   143    1
   163   146   140   am
   164   146   147    1
   165   151   150    1
   166   151   152   ar
   167   140   141    2
   168   150   147    1
   169   178   177    1
   170   154   152   ar
   171   145   143    1
   172   149   148    2
   173   143   144    1
   174   147   148    1
   175   177   175   ar
   176   177   176   ar
   177   148   156   am
   178   175   173   ar
   179   176   174   ar
   180   165   166    1
   181   165   162    1
   182   173   172   ar
   183   156   157    1
   184   161   162    1
   185   161   158   am
   186   162   163    1
   187   157   158    1
   188   157   160    1
   189   174   172   ar
   190   172   171    1
   191   158   159    2
   192   171   168    1
   193   163   164    2
   194   168   167    1
   195   168   169    1
   196   170   169    2
