@<TRIPOS>MOLECULE
tmp/5ebzC00.pdb
 166 154 0 0 0
SMALL
GASTEIGER

@<TRIPOS>ATOM
      1  N        116.0200   93.8860   42.2330 N.3    14  GLU14      -0.1245
      2  CA       114.7180   94.0240   41.5950 C.3    14  GLU14       0.1567
      3  C        113.6130   93.7830   42.6100 C.2    14  GLU14       0.2260
      4  O        113.8450   93.1770   43.6540 O.2    14  GLU14      -0.2867
      5  CB       114.5780   93.0130   40.4560 C.3    14  GLU14       0.0388
      6  CG       114.7200   91.5650   40.9060 C.3    14  GLU14       0.1160
      7  CD       114.2910   90.5690   39.8410 C.2    14  GLU14       0.3649
      8  OE1      114.4800   89.3500   40.0490 O.co2  14  GLU14      -0.2457
      9  OE2      113.7600   91.0050   38.7980 O.co2  14  GLU14      -0.2457
     10  N        109.5270   92.4140   43.5730 N.3    16  LEU16      -0.1231
     11  CA       108.8990   91.1010   43.4780 C.3    16  LEU16       0.1693
     12  C        107.4760   91.1840   42.9350 C.2    16  LEU16       0.2593
     13  O        107.0440   92.2330   42.4600 O.2    16  LEU16      -0.2718
     14  CB       108.8840   90.4110   44.8450 C.3    16  LEU16       0.0284
     15  CG       110.1940   89.7990   45.3450 C.3    16  LEU16       0.0019
     16  CD1      110.7480   88.8850   44.2770 C.3    16  LEU16       0.0001
     17  CD2      111.1920   90.8850   45.6870 C.3    16  LEU16       0.0001
     18  N        106.7550   90.0690   43.0070 N.am   17  GLY17      -0.1942
     19  CA       105.3900   90.0290   42.5110 C.3    17  GLY17       0.2014
     20  C        104.3750   90.7740   43.3620 C.2    17  GLY17       0.2640
     21  O        104.5660   91.9470   43.6940 O.2    17  GLY17      -0.2714
     22  N        103.2910   90.0860   43.7160 N.am   18  THR18      -0.1936
     23  CA       102.2250   90.6680   44.5260 C.3    18  THR18       0.2028
     24  C        102.7220   91.1780   45.8800 C.2    18  THR18       0.2642
     25  O        103.9050   91.0660   46.2100 O.2    18  THR18      -0.2714
     26  CB       101.0820   89.6430   44.7660 C.3    18  THR18       0.1808
     27  OG1      101.5600   88.5640   45.5790 O.3    18  THR18      -0.2208
     28  CG2      100.5850   89.0800   43.4390 C.3    18  THR18       0.0379
     29  N        101.8060   91.7440   46.6580 N.am   19  GLY19      -0.1954
     30  CA       102.1610   92.2640   47.9660 C.3    19  GLY19       0.1869
     31  C        101.5090   93.6060   48.2410 C.2    19  GLY19       0.2309
     32  O        100.8200   93.7850   49.2490 O.2    19  GLY19      -0.2863
     33  N        107.8430   93.6220   48.6120 N.3    24  VAL24      -0.1245
     34  CA       109.1870   93.1020   48.8210 C.3    24  VAL24       0.1561
     35  C        110.1180   93.4080   47.6530 C.2    24  VAL24       0.2260
     36  O        109.6770   93.5190   46.5110 O.2    24  VAL24      -0.2867
     37  CB       109.1580   91.5790   49.0280 C.3    24  VAL24       0.0252
     38  CG1      110.5310   91.0810   49.4580 C.3    24  VAL24       0.0019
     39  CG2      108.1110   91.2220   50.0610 C.3    24  VAL24       0.0019
     40  N        115.5640   89.0490   50.8100 N.3    37  ALA37      -0.1245
     41  CA       114.6440   90.1150   50.4430 C.3    37  ALA37       0.1562
     42  C        113.7630   90.5140   51.6170 C.2    37  ALA37       0.2260
     43  O        113.4100   89.6800   52.4520 O.2    37  ALA37      -0.2867
     44  CB       113.7800   89.6740   49.2740 C.3    37  ALA37       0.0290
     45  N        110.2400   93.0650   52.7800 N.3    39  LYS39      -0.1245
     46  CA       109.0560   93.7440   52.2760 C.3    39  LYS39       0.1561
     47  C        109.0380   95.2100   52.6620 C.2    39  LYS39       0.2260
     48  O        109.3600   95.5690   53.7910 O.2    39  LYS39      -0.2867
     49  CB       107.7910   93.0650   52.7960 C.3    39  LYS39       0.0271
     50  CG       106.5170   93.6490   52.2200 C.3    39  LYS39       0.0035
     51  CD       105.3250   92.7370   52.4550 C.3    39  LYS39       0.0206
     52  CE       104.0860   93.2560   51.7310 C.3    39  LYS39       0.1093
     53  NZ       102.9340   92.3130   51.8360 N.3    39  LYS39      -0.1314
     54  N        101.1970   90.5400   60.3930 N.3    56  GLU56      -0.1245
     55  CA       101.8180   89.6100   59.4640 C.3    56  GLU56       0.1567
     56  C        103.1980   89.1860   59.9530 C.2    56  GLU56       0.2260
     57  O        103.4980   87.9930   60.0520 O.2    56  GLU56      -0.2867
     58  CB       101.9250   90.2490   58.0730 C.3    56  GLU56       0.0388
     59  CG       102.4830   89.3180   56.9880 C.3    56  GLU56       0.1160
     60  CD       102.5190   89.9550   55.6090 C.2    56  GLU56       0.3649
     61  OE1      102.9470   89.2750   54.6500 O.co2  56  GLU56      -0.2457
     62  OE2      102.1210   91.1330   55.4890 O.co2  56  GLU56      -0.2457
     63  N        109.6590   93.4310   56.8330 N.3    88  LEU88      -0.1245
     64  CA       109.4840   91.9860   56.8360 C.3    88  LEU88       0.1561
     65  C        110.5940   91.3010   56.0520 C.2    88  LEU88       0.2260
     66  O        110.4960   91.1510   54.8360 O.2    88  LEU88      -0.2867
     67  CB       108.1310   91.6210   56.2240 C.3    88  LEU88       0.0270
     68  CG       107.8070   90.1300   56.0940 C.3    88  LEU88       0.0019
     69  CD1      107.7810   89.4880   57.4720 C.3    88  LEU88       0.0001
     70  CD2      106.4650   89.9510   55.3960 C.3    88  LEU88       0.0001
     71  N        112.9660   88.1350   54.8650 N.3    90  MET90      -0.1230
     72  CA       112.6880   86.7340   54.5730 C.3    90  MET90       0.1702
     73  C        113.6490   86.1470   53.5430 C.2    90  MET90       0.2592
     74  O        114.2650   86.8750   52.7650 O.2    90  MET90      -0.2718
     75  CB       111.2440   86.5950   54.0870 C.3    90  MET90       0.0401
     76  CG       110.8530   87.5940   53.0100 C.3    90  MET90       0.0596
     77  SD       109.0810   87.9550   53.0300 S.3    90  MET90      -0.1393
     78  CE       108.4690   86.7430   51.9060 C.3    90  MET90       0.0692
     79  N        113.7690   84.8220   53.5520 N.am   91  GLU91      -0.1966
     80  CA       114.6550   84.1170   52.6330 C.3    91  GLU91       0.1733
     81  C        114.2880   84.3810   51.1780 C.2    91  GLU91       0.2616
     82  O        113.1110   84.4850   50.8310 O.2    91  GLU91      -0.2715
     83  CB       114.6060   82.6100   52.9020 C.3    91  GLU91       0.0429
     84  CG       113.2220   81.9910   52.7320 C.3    91  GLU91       0.1163
     85  CD       113.2380   80.4740   52.8150 C.2    91  GLU91       0.3649
     86  OE1      112.1530   79.8610   52.7290 O.co2  91  GLU91      -0.2457
     87  OE2      114.3340   79.8920   52.9650 O.co2  91  GLU91      -0.2457
     88  N        115.3050   84.4840   50.3310 N.am   92  TYR92      -0.1960
     89  CA       115.0890   84.7280   48.9130 C.3    92  TYR92       0.1771
     90  C        115.3220   83.4670   48.0950 C.2    92  TYR92       0.2619
     91  O        116.1390   82.6240   48.4570 O.2    92  TYR92      -0.2715
     92  CB       116.0120   85.8470   48.4240 C.3    92  TYR92       0.0574
     93  CG       116.0290   86.0150   46.9200 C.ar   92  TYR92      -0.0198
     94  CD1      116.9950   85.3810   46.1380 C.ar   92  TYR92      -0.0009
     95  CD2      115.0620   86.7810   46.2740 C.ar   92  TYR92      -0.0009
     96  CE1      116.9980   85.5060   44.7470 C.ar   92  TYR92       0.0417
     97  CE2      115.0550   86.9110   44.8830 C.ar   92  TYR92       0.0417
     98  CZ       116.0260   86.2700   44.1250 C.ar   92  TYR92       0.1957
     99  OH       116.0230   86.3850   42.7500 O.3    92  TYR92      -0.2866
    100  N        114.5940   83.3490   46.9900 N.am   93  CYS93      -0.1968
    101  CA       114.7090   82.1980   46.1030 C.3    93  CYS93       0.1712
    102  C        114.7430   82.6480   44.6420 C.2    93  CYS93       0.2296
    103  O        113.7820   83.2230   44.1290 O.2    93  CYS93      -0.2864
    104  CB       113.5340   81.2450   46.3290 C.3    93  CYS93       0.0983
    105  SG       113.3710   80.6520   48.0370 S.3    93  CYS93      -0.0798
    106  N        112.5210   81.5740   41.0290 N.3    96  GLY96      -0.1210
    107  CA       111.3310   82.1990   40.4840 C.3    96  GLY96       0.1956
    108  C        110.0530   81.5700   41.0050 C.2    96  GLY96       0.2611
    109  O        110.0880   80.5610   41.7110 O.2    96  GLY96      -0.2717
    110  N        108.9180   82.1650   40.6550 N.am   97  ASP97      -0.1973
    111  CA       107.6240   81.6580   41.0940 C.3    97  ASP97       0.1709
    112  C        107.2550   80.3740   40.3630 C.2    97  ASP97       0.2293
    113  O        107.9960   79.9010   39.5090 O.2    97  ASP97      -0.2864
    114  CB       106.5350   82.7060   40.8570 C.3    97  ASP97       0.1436
    115  CG       106.3460   83.0290   39.3850 C.2    97  ASP97       0.3671
    116  OD1      105.3660   83.7240   39.0470 O.co2  97  ASP97      -0.2456
    117  OD2      107.1760   82.5930   38.5610 O.co2  97  ASP97      -0.2456
    118  N        106.3780   80.4190   36.5040 N.3   100  LYS100     -0.1245
    119  CA       107.4870   80.3070   35.5700 C.3   100  LYS100      0.1561
    120  C        107.5110   78.9000   34.9870 C.2   100  LYS100      0.2260
    121  O        107.4260   78.7200   33.7720 O.2   100  LYS100     -0.2867
    122  CB       108.8080   80.5760   36.2850 C.3   100  LYS100      0.0271
    123  CG       110.0270   80.5050   35.3770 C.3   100  LYS100      0.0035
    124  CD       111.3200   80.3210   36.1680 C.3   100  LYS100      0.0206
    125  CE       111.4050   78.9280   36.7880 C.3   100  LYS100      0.1093
    126  NZ       112.7200   78.6800   37.4490 N.3   100  LYS100     -0.1314
    127  N        101.0410   82.1250   41.6210 N.3   143  GLU143     -0.1231
    128  CA       101.9570   83.2620   41.6970 C.3   143  GLU143      0.1699
    129  C        102.3980   83.5590   43.1240 C.2   143  GLU143      0.2592
    130  O        102.8840   84.6520   43.4210 O.2   143  GLU143     -0.2718
    131  CB       101.3150   84.5160   41.0920 C.3   143  GLU143      0.0402
    132  CG       101.0020   84.3930   39.6080 C.3   143  GLU143      0.1161
    133  CD        99.7730   83.5470   39.3380 C.2   143  GLU143      0.3649
    134  OE1       98.6500   84.0770   39.4740 O.co2 143  GLU143     -0.2457
    135  OE2       99.9280   82.3540   38.9980 O.co2 143  GLU143     -0.2457
    136  N        102.2220   82.5790   44.0040 N.am  144  ASN144     -0.1974
    137  CA       102.6090   82.7220   45.4000 C.3   144  ASN144      0.1688
    138  C        103.4130   81.5140   45.8710 C.2   144  ASN144      0.2292
    139  O        103.5400   81.2770   47.0680 O.2   144  ASN144     -0.2864
    140  CB       101.3710   82.9030   46.2890 C.3   144  ASN144      0.1181
    141  CG       100.8570   84.3390   46.3040 C.2   144  ASN144      0.2629
    142  OD1      100.5500   84.9140   45.2610 O.2   144  ASN144     -0.2716
    143  ND2      100.7590   84.9210   47.4940 N.am  144  ASN144     -0.0877
    144  N        107.0750   80.2410   45.4250 N.3   146  VAL146     -0.1245
    145  CA       108.4410   80.4240   44.9610 C.3   146  VAL146      0.1561
    146  C        109.1890   79.0990   44.8820 C.2   146  VAL146      0.2260
    147  O        108.8260   78.1260   45.5440 O.2   146  VAL146     -0.2867
    148  CB       109.2220   81.3740   45.8980 C.3   146  VAL146      0.0252
    149  CG1      108.6140   82.7670   45.8580 C.3   146  VAL146      0.0019
    150  CG2      109.2060   80.8320   47.3220 C.3   146  VAL146      0.0019
    151  N        104.4370   81.3210   50.0530 N.3   159  ILE159     -0.1231
    152  CA       104.9320   82.6380   50.4420 C.3   159  ILE159      0.1692
    153  C        103.8360   83.7030   50.4840 C.2   159  ILE159      0.2592
    154  O        102.7810   83.5520   49.8670 O.2   159  ILE159     -0.2718
    155  CB       106.0500   83.0980   49.4810 C.3   159  ILE159      0.0266
    156  CG1      106.8320   84.2550   50.1030 C.3   159  ILE159      0.0019
    157  CG2      105.4490   83.5130   48.1440 C.3   159  ILE159      0.0020
    158  CD1      108.2020   84.4510   49.4960 C.3   159  ILE159      0.0001
    159  N        104.1020   84.7750   51.2270 N.am  160  ASP160     -0.1974
    160  CA       103.1640   85.8820   51.3770 C.3   160  ASP160      0.1709
    161  C        101.8790   85.4480   52.0640 C.2   160  ASP160      0.2293
    162  O        101.1360   84.6170   51.5440 O.2   160  ASP160     -0.2864
    163  CB       102.8340   86.4880   50.0140 C.3   160  ASP160      0.1436
    164  CG       101.8890   87.6600   50.1180 C.2   160  ASP160      0.3671
    165  OD1      102.1790   88.5760   50.9130 O.co2 160  ASP160     -0.2456
    166  OD2      100.8620   87.6690   49.4060 O.co2 160  ASP160     -0.2456
@<TRIPOS>BOND
     1   121   120    2
     2   120   119    1
     3   123   124    1
     4   123   122    1
     5   119   122    1
     6   119   118    1
     7   124   125    1
     8   125   126    1
     9   117   115   ar
    10     9     7   ar
    11   135   133   ar
    12   116   115   ar
    13   133   134   ar
    14   133   132    1
    15   115   114    1
    16   113   112    2
    17   132   131    1
    18     7     8   ar
    19     7     6    1
    20   112   111    1
    21     5     6    1
    22     5     2    1
    23   107   108    1
    24   107   106    1
    25   110   108   am
    26   110   111    1
    27   114   111    1
    28   108   109    2
    29   131   128    1
    30     2     1    1
    31     2     3    1
    32   127   128    1
    33   128   129    1
    34    13    12    2
    35    19    18    1
    36    19    20    1
    37     3     4    2
    38    99    98    1
    39    12    18   am
    40    12    11    1
    41   129   130    2
    42   129   136   am
    43    20    21    2
    44    20    22   am
    45    28    26    1
    46    11    10    1
    47    11    14    1
    48    22    23    1
    49   136   137    1
    50    98    96   ar
    51    98    97   ar
    52   103   102    2
    53    16    15    1
    54    23    26    1
    55    23    24    1
    56   102   101    1
    57    96    94   ar
    58    26    27    1
    59    14    15    1
    60   146   145    1
    61   146   147    2
    62    97    95   ar
    63   145   144    1
    64   145   148    1
    65   142   141    2
    66    15    17    1
    67   137   138    1
    68   137   140    1
    69   149   148    1
    70   138   139    2
    71    24    25    2
    72    24    29   am
    73   148   150    1
    74   101   104    1
    75   101   100    1
    76    94    93   ar
    77    95    93   ar
    78   140   141    1
    79   141   143   am
    80   104   105    1
    81    36    35    2
    82    29    30    1
    83    93    92    1
    84   100    90   am
    85    35    34    1
    86    30    31    1
    87    90    91    2
    88    90    89    1
    89   157   155    1
    90    31    32    2
    91    92    89    1
    92    33    34    1
    93    34    37    1
    94    89    88    1
    95    37    38    1
    96    37    39    1
    97    44    41    1
    98   166   164   ar
    99   155   156    1
   100   155   152    1
   101   158   156    1
   102   154   153    2
   103   163   164    1
   104   163   160    1
   105   151   152    1
   106   164   165   ar
   107    88    81   am
   108   152   153    1
   109    41    40    1
   110    41    42    1
   111   153   159   am
   112    82    81    2
   113    81    80    1
   114   159   160    1
   115   160   161    1
   116   162   161    2
   117    42    43    2
   118    52    53    1
   119    52    51    1
   120    78    77    1
   121    50    51    1
   122    50    49    1
   123    46    47    1
   124    46    45    1
   125    46    49    1
   126    80    83    1
   127    80    79    1
   128    47    48    2
   129    86    85   ar
   130    84    85    1
   131    84    83    1
   132    74    73    2
   133    85    87   ar
   134    76    77    1
   135    76    75    1
   136    73    79   am
   137    73    72    1
   138    75    72    1
   139    72    71    1
   140    61    60   ar
   141    66    65    2
   142    70    68    1
   143    62    60   ar
   144    60    59    1
   145    65    64    1
   146    68    67    1
   147    68    69    1
   148    67    64    1
   149    63    64    1
   150    59    58    1
   151    58    55    1
   152    55    56    1
   153    55    54    1
   154    56    57    2
