@<TRIPOS>MOLECULE
tmp/5ec0A00.pdb
 160 151 0 0 0
SMALL
GASTEIGER

@<TRIPOS>ATOM
      1  N        -16.8940   -1.4800  -24.7680 N.3    11  GLY11      -0.1210
      2  CA       -16.6760   -1.7530  -23.3590 C.3    11  GLY11       0.1956
      3  C        -17.4490   -2.9670  -22.8850 C.2    11  GLY11       0.2612
      4  O        -18.2770   -3.5110  -23.6120 O.2    11  GLY11      -0.2717
      5  N        -17.1690   -3.4040  -21.6610 N.am   12  ASN12      -0.1960
      6  CA       -17.9120   -4.4970  -21.0560 C.3    12  ASN12       0.1819
      7  C        -19.2300   -3.9790  -20.4850 C.2    12  ASN12       0.2622
      8  O        -20.2040   -4.7200  -20.3880 O.2    12  ASN12      -0.2715
      9  CB       -17.0920   -5.1770  -19.9540 C.3    12  ASN12       0.1195
     10  CG       -15.6810   -5.5510  -20.4050 C.2    12  ASN12       0.2630
     11  OD1      -15.4810   -6.0820  -21.4970 O.2    12  ASN12      -0.2716
     12  ND2      -14.6970   -5.2800  -19.5520 N.am   12  ASN12      -0.0877
     13  N        -19.2450   -2.7000  -20.1110 N.am   13  SER13      -0.1936
     14  CA       -20.4050   -2.0830  -19.4780 C.3    13  SER13       0.2055
     15  C        -21.2170   -1.2750  -20.4860 C.2    13  SER13       0.2642
     16  O        -22.4400   -1.4070  -20.5710 O.2    13  SER13      -0.2714
     17  CB       -19.9660   -1.1870  -18.3210 C.3    13  SER13       0.2130
     18  OG       -21.0540   -0.4510  -17.7920 O.3    13  SER13      -0.2179
     19  N        -20.5180   -0.4490  -21.2530 N.am   14  MET14      -0.1976
     20  CA       -21.1320    0.3790  -22.2750 C.3    14  MET14       0.1605
     21  C        -20.3590    0.2650  -23.5920 C.2    14  MET14       0.2287
     22  O        -19.1400    0.2760  -23.6050 O.2    14  MET14      -0.2864
     23  CB       -21.1760    1.8570  -21.8400 C.3    14  MET14       0.0413
     24  CG       -22.0010    2.1660  -20.5880 C.3    14  MET14       0.0598
     25  SD       -23.7830    1.8440  -20.7070 S.3    14  MET14      -0.1393
     26  CE       -24.2930    3.1070  -21.8460 C.3    14  MET14       0.0692
     27  N        -19.5240    2.5880  -26.5510 N.3    16  MET16      -0.1245
     28  CA       -19.4540    4.0420  -26.6890 C.3    16  MET16       0.1570
     29  C        -18.8300    4.3610  -28.0160 C.2    16  MET16       0.2261
     30  O        -17.9180    3.6470  -28.4680 O.2    16  MET16      -0.2867
     31  CB       -18.6480    4.6780  -25.5450 C.3    16  MET16       0.0387
     32  CG       -18.9220    4.0800  -24.1520 C.3    16  MET16       0.0595
     33  SD       -17.9410    4.8890  -22.8920 S.3    16  MET16      -0.1393
     34  CE       -16.3100    4.5730  -23.5370 C.3    16  MET16       0.0692
     35  N        -23.8610    6.4730  -26.3470 N.3    25  GLU25      -0.1245
     36  CA       -23.4920    5.1640  -25.8400 C.3    25  GLU25       0.1567
     37  C        -24.7360    4.3080  -25.6130 C.2    25  GLU25       0.2260
     38  O        -25.8450    4.8200  -25.5260 O.2    25  GLU25      -0.2867
     39  CB       -22.6810    5.2910  -24.5470 C.3    25  GLU25       0.0388
     40  CG       -23.2650    6.2260  -23.5070 C.3    25  GLU25       0.1160
     41  CD       -22.4410    6.2590  -22.2190 C.2    25  GLU25       0.3649
     42  OE1      -21.6080    5.3590  -22.0300 O.co2  25  GLU25      -0.2457
     43  OE2      -22.6230    7.1810  -21.3890 O.co2  25  GLU25      -0.2457
     44  N         -5.9060    1.6830  -16.4410 N.3   203  ASP203     -0.1239
     45  CA        -7.2580    1.6320  -16.9850 C.3   203  ASP203      0.1674
     46  C         -8.1490    0.7780  -16.0670 C.2   203  ASP203      0.2266
     47  O         -8.2230   -0.4470  -16.2150 O.2   203  ASP203     -0.2867
     48  CB        -7.2190    1.0700  -18.4140 C.3   203  ASP203      0.1410
     49  CG        -8.5500    1.1970  -19.1490 C.2   203  ASP203      0.3668
     50  OD1       -9.5880    1.5060  -18.5160 O.co2 203  ASP203     -0.2456
     51  OD2       -8.5530    0.9500  -20.3740 O.co2 203  ASP203     -0.2456
     52  N        -11.4560   -0.6690  -14.9310 N.3   205  GLY205     -0.1210
     53  CA       -12.7950   -0.9150  -15.4330 C.3   205  GLY205      0.1956
     54  C        -13.6590   -1.7640  -14.5140 C.2   205  GLY205      0.2612
     55  O        -13.2240   -2.1800  -13.4400 O.2   205  GLY205     -0.2717
     56  N        -14.8920   -2.0200  -14.9410 N.am  206  GLY206     -0.1942
     57  CA       -15.8280   -2.8360  -14.1830 C.3   206  GLY206      0.2014
     58  C        -15.3820   -4.2810  -14.0880 C.2   206  GLY206      0.2639
     59  O        -15.5300   -4.9010  -13.0410 O.2   206  GLY206     -0.2714
     60  N        -14.8110   -4.8170  -15.1660 N.am  207  GLY207     -0.1939
     61  CA       -14.4740   -6.2330  -15.2040 C.3   207  GLY207      0.2014
     62  C        -12.9950   -6.5800  -15.2750 C.2   207  GLY207      0.2639
     63  O        -12.6030   -7.7140  -14.9800 O.2   207  GLY207     -0.2714
     64  N        -12.1740   -5.6210  -15.6910 N.am  208  THR208     -0.1950
     65  CA       -10.7130   -5.7910  -15.6960 C.3   208  THR208      0.1897
     66  C         -9.9990   -4.5180  -15.2510 C.2   208  THR208      0.2313
     67  O        -10.5720   -3.4170  -15.2750 O.2   208  THR208     -0.2863
     68  CB       -10.1490   -6.1620  -17.0970 C.3   208  THR208      0.1794
     69  OG1      -10.3310   -5.0650  -17.9970 O.3   208  THR208     -0.2208
     70  CG2      -10.8180   -7.4090  -17.6720 C.3   208  THR208      0.0378
     71  N        -14.0790   -5.2560  -10.1090 N.3   234  PHE234     -0.1227
     72  CA       -14.8650   -4.2940   -9.3490 C.3   234  PHE234      0.1736
     73  C        -16.3250   -4.7230   -9.1590 C.2   234  PHE234      0.2595
     74  O        -16.9140   -4.5080   -8.0940 O.2   234  PHE234     -0.2718
     75  CB       -14.8090   -2.9410  -10.0580 C.3   234  PHE234      0.0547
     76  CG       -15.6220   -1.8740   -9.4040 C.ar  234  PHE234     -0.0202
     77  CD1      -15.2750   -1.3870   -8.1550 C.ar  234  PHE234     -0.0042
     78  CD2      -16.7130   -1.3280  -10.0550 C.ar  234  PHE234     -0.0042
     79  CE1      -16.0200   -0.3860   -7.5600 C.ar  234  PHE234     -0.0003
     80  CE2      -17.4570   -0.3240   -9.4690 C.ar  234  PHE234     -0.0003
     81  CZ       -17.1090    0.1510   -8.2180 C.ar  234  PHE234     -0.0000
     82  N        -16.9070   -5.3230  -10.1930 N.am  235  LEU235     -0.1980
     83  CA       -18.3000   -5.7510  -10.1220 C.3   235  LEU235      0.1596
     84  C        -18.5070   -6.8390   -9.0670 C.2   235  LEU235      0.2287
     85  O        -19.5410   -6.8730   -8.3940 O.2   235  LEU235     -0.2864
     86  CB       -18.7840   -6.2380  -11.4850 C.3   235  LEU235      0.0297
     87  CG       -19.0180   -5.0970  -12.4730 C.3   235  LEU235      0.0022
     88  CD1      -19.2790   -5.6360  -13.8550 C.3   235  LEU235      0.0001
     89  CD2      -20.1770   -4.2300  -12.0090 C.3   235  LEU235      0.0001
     90  N        -24.3450   -0.2920   -8.8320 N.3   257  GLU257     -0.1245
     91  CA       -23.3990    0.3460   -9.7400 C.3   257  GLU257      0.1567
     92  C        -23.9190    1.6860  -10.2720 C.2   257  GLU257      0.2260
     93  O        -23.1850    2.6640  -10.2920 O.2   257  GLU257     -0.2867
     94  CB       -23.0900   -0.6070  -10.8920 C.3   257  GLU257      0.0388
     95  CG       -22.1580   -0.0740  -11.9680 C.3   257  GLU257      0.1160
     96  CD       -22.1240   -0.9970  -13.1740 C.2   257  GLU257      0.3649
     97  OE1      -23.1980   -1.5180  -13.5550 O.co2 257  GLU257     -0.2457
     98  OE2      -21.0270   -1.2140  -13.7270 O.co2 257  GLU257     -0.2457
     99  N        -24.1160    4.3450   -7.4720 N.3   260  ILE260     -0.1231
    100  CA       -22.7840    4.8300   -7.1030 C.3   260  ILE260      0.1692
    101  C        -22.2240    5.9040   -8.0520 C.2   260  ILE260      0.2592
    102  O        -21.8680    6.9840   -7.5990 O.2   260  ILE260     -0.2718
    103  CB       -21.7820    3.6760   -7.0040 C.3   260  ILE260      0.0266
    104  CG1      -22.0580    2.8750   -5.7260 C.3   260  ILE260      0.0019
    105  CG2      -20.3710    4.2070   -6.9720 C.3   260  ILE260      0.0020
    106  CD1      -21.1600    1.6700   -5.5270 C.3   260  ILE260      0.0001
    107  N        -22.1490    5.6450   -9.3520 N.am  261  TYR261     -0.1976
    108  CA       -21.5710    6.6700  -10.2330 C.3   261  TYR261      0.1639
    109  C        -22.4990    7.8760  -10.3670 C.2   261  TYR261      0.2290
    110  O        -22.0300    9.0020  -10.4920 O.2   261  TYR261     -0.2864
    111  CB       -21.1940    6.1060  -11.6260 C.3   261  TYR261      0.0560
    112  CG       -22.3070    5.6810  -12.5610 C.ar  261  TYR261     -0.0198
    113  CD1      -23.0660    6.6200  -13.2670 C.ar  261  TYR261     -0.0009
    114  CD2      -22.5500    4.3310  -12.8080 C.ar  261  TYR261     -0.0009
    115  CE1      -24.0830    6.2180  -14.1610 C.ar  261  TYR261      0.0417
    116  CE2      -23.5550    3.9210  -13.6950 C.ar  261  TYR261      0.0417
    117  CZ       -24.3120    4.8660  -14.3600 C.ar  261  TYR261      0.1957
    118  OH       -25.2940    4.4420  -15.2260 O.3   261  TYR261     -0.2866
    119  N        -10.4550    5.0490  -16.8800 N.3   319  GLY319     -0.1210
    120  CA       -11.5460    4.0900  -16.9050 C.3   319  GLY319      0.1956
    121  C        -12.7120    4.5960  -16.0600 C.2   319  GLY319      0.2612
    122  O        -12.5640    5.5660  -15.2980 O.2   319  GLY319     -0.2717
    123  N        -13.8640    3.9370  -16.1930 N.am  320  GLY320     -0.1942
    124  CA       -15.0790    4.3400  -15.4980 C.3   320  GLY320      0.2014
    125  C        -14.9960    4.1300  -13.9930 C.2   320  GLY320      0.2638
    126  O        -15.5670    4.8880  -13.2080 O.2   320  GLY320     -0.2714
    127  N        -14.2860    3.0920  -13.5780 N.am  321  VAL321     -0.1977
    128  CA       -14.0860    2.8670  -12.1530 C.3   321  VAL321      0.1596
    129  C        -13.1010    3.8950  -11.5880 C.2   321  VAL321      0.2287
    130  O        -13.2420    4.3220  -10.4430 O.2   321  VAL321     -0.2864
    131  CB       -13.6130    1.4220  -11.8790 C.3   321  VAL321      0.0276
    132  CG1      -13.2320    1.2280  -10.4070 C.3   321  VAL321      0.0022
    133  CG2      -14.7220    0.4410  -12.2600 C.3   321  VAL321      0.0022
    134  N        -12.7470    6.9770  -12.4340 N.3   323  GLU323     -0.1231
    135  CA       -13.6140    8.1350  -12.2370 C.3   323  GLU323      0.1699
    136  C        -14.3660    8.0760  -10.9030 C.2   323  GLU323      0.2592
    137  O        -14.4280    9.0520  -10.1690 O.2   323  GLU323     -0.2718
    138  CB       -14.6020    8.2210  -13.4130 C.3   323  GLU323      0.0402
    139  CG       -15.3850    9.5210  -13.5030 C.3   323  GLU323      0.1161
    140  CD       -16.1070    9.6640  -14.8440 C.2   323  GLU323      0.3649
    141  OE1      -17.3520    9.6140  -14.8370 O.co2 323  GLU323     -0.2457
    142  OE2      -15.4310    9.8280  -15.8990 O.co2 323  GLU323     -0.2457
    143  N        -14.9210    6.9130  -10.5940 N.am  324  VAL324     -0.1980
    144  CA       -15.6770    6.6980   -9.3670 C.3   324  VAL324      0.1595
    145  C        -14.7690    6.7320   -8.1330 C.2   324  VAL324      0.2287
    146  O        -15.1310    7.2670   -7.0670 O.2   324  VAL324     -0.2864
    147  CB       -16.4240    5.3510   -9.4460 C.3   324  VAL324      0.0276
    148  CG1      -16.8790    4.8840   -8.0770 C.3   324  VAL324      0.0022
    149  CG2      -17.6030    5.4590  -10.4330 C.3   324  VAL324      0.0022
    150  N        -13.4810    8.1010  -17.8530 N.3   353  ARG353     -0.1245
    151  CA       -14.2830    7.0670  -18.4980 C.3   353  ARG353      0.1563
    152  C        -14.1400    7.0800  -20.0360 C.2   353  ARG353      0.2260
    153  O        -14.2350    6.0410  -20.6800 O.2   353  ARG353     -0.2867
    154  CB       -15.7560    7.1980  -18.1170 C.3   353  ARG353      0.0307
    155  CG       -16.5650    5.9810  -18.5040 C.3   353  ARG353      0.0489
    156  CD       -17.9500    5.9470  -17.7940 C.3   353  ARG353      0.2205
    157  NE       -18.8650    6.9910  -18.2650 N.pl3 353  ARG353     -0.0865
    158  CZ       -19.7660    6.8040  -19.2270 C.cat 353  ARG353      0.5346
    159  NH1      -19.8720    5.6160  -19.8040 N.pl3 353  ARG353      0.1354
    160  NH2      -20.5700    7.7900  -19.6080 N.pl3 353  ARG353      0.1354
@<TRIPOS>BOND
     1    30    29    2
     2    29    28    1
     3    28    27    1
     4    28    31    1
     5    35    36    1
     6    36    37    1
     7    36    39    1
     8    37    38    2
     9    31    32    1
    10     1     2    1
    11    39    40    1
    12    32    33    1
    13     4     3    2
    14    22    21    2
    15    21    20    1
    16    34    33    1
    17    40    41    1
    18     2     3    1
    19     3     5   am
    20    20    23    1
    21    20    19    1
    22    41    42   ar
    23    41    43   ar
    24    26    25    1
    25    23    24    1
    26     5     6    1
    27    11    10    2
    28    19    15   am
    29     6     7    1
    30     6     9    1
    31    25    24    1
    32   153   152    2
    33    16    15    2
    34    15    14    1
    35     7     8    2
    36     7    13   am
    37    10     9    1
    38    10    12   am
    39    51    49   ar
    40    13    14    1
    41   152   151    1
    42   159   158    1
    43   160   158    1
    44    14    17    1
    45   158   157    2
    46    49    50   ar
    47    49    48    1
    48   155   154    1
    49   155   156    1
    50   151   154    1
    51   151   150    1
    52    48    45    1
    53    17    18    1
    54   157   156    1
    55    69    68    1
    56    70    68    1
    57    68    65    1
    58    45    44    1
    59    45    46    1
    60   120   119    1
    61   120   121    1
    62    47    46    2
    63   123   121   am
    64   123   124    1
    65   121   122    2
    66   142   140   ar
    67    65    64    1
    68    65    66    1
    69    64    62   am
    70   124   125    1
    71    53    52    1
    72    53    54    1
    73    62    61    1
    74    62    63    2
    75    67    66    2
    76   118   117    1
    77    61    60    1
    78    60    58   am
    79    56    54   am
    80    56    57    1
    81   140   141   ar
    82   140   139    1
    83    54    55    2
    84   117   115   ar
    85   117   116   ar
    86    57    58    1
    87   115   113   ar
    88    58    59    2
    89   125   127   am
    90   125   126    2
    91    88    87    1
    92    98    96   ar
    93   116   114   ar
    94   127   128    1
    95    97    96   ar
    96   139   138    1
    97   138   135    1
    98   113   112   ar
    99    96    95    1
   100   114   112   ar
   101   112   111    1
   102    87    89    1
   103    87    86    1
   104   134   135    1
   105   133   131    1
   106   135   136    1
   107   128   131    1
   108   128   129    1
   109    95    94    1
   110   131   132    1
   111   111   108    1
   112   129   130    2
   113    86    83    1
   114   136   143   am
   115   136   137    2
   116    94    91    1
   117   143   144    1
   118   110   109    2
   119   149   147    1
   120   109   108    1
   121    93    92    2
   122    92    91    1
   123   108   107    1
   124    82    83    1
   125    82    73   am
   126    83    84    1
   127    71    72    1
   128    75    76    1
   129    75    72    1
   130    78    80   ar
   131    78    76   ar
   132    91    90    1
   133    80    81   ar
   134   147   144    1
   135   147   148    1
   136    76    77   ar
   137   144   145    1
   138   107   101   am
   139    72    73    1
   140    73    74    2
   141    84    85    2
   142    81    79   ar
   143    77    79   ar
   144   145   146    2
   145   101   102    2
   146   101   100    1
   147    99   100    1
   148   100   103    1
   149   103   105    1
   150   103   104    1
   151   104   106    1
