@<TRIPOS>MOLECULE
tmp/5ec4A01.pdb
 181 180 0 0 0
SMALL
GASTEIGER

@<TRIPOS>ATOM
      1  N         16.9360  -22.7070   26.9100 N.3    11  TRP11      -0.1241
      2  CA        16.7500  -21.3880   27.5240 C.3    11  TRP11       0.1605
      3  C         15.3040  -20.9680   27.8100 C.2    11  TRP11       0.2264
      4  O         15.0660  -20.2940   28.8150 O.2    11  TRP11      -0.2867
      5  CB        17.5300  -20.3010   26.7560 C.3    11  TRP11       0.0550
      6  CG        19.0160  -20.3630   27.0500 C.ar   11  TRP11       0.0003
      7  CD1       19.9650  -21.0670   26.3570 C.ar   11  TRP11       0.0946
      8  CD2       19.7080  -19.7370   28.1440 C.ar   11  TRP11       0.0152
      9  NE1       21.2030  -20.9070   26.9450 N.ar   11  TRP11      -0.2442
     10  CE2       21.0700  -20.0970   28.0420 C.ar   11  TRP11       0.0810
     11  CE3       19.3080  -18.9070   29.1980 C.ar   11  TRP11       0.0012
     12  CZ2       22.0310  -19.6520   28.9530 C.ar   11  TRP11       0.0191
     13  CZ3       20.2670  -18.4660   30.0970 C.ar   11  TRP11       0.0001
     14  CH2       21.6100  -18.8370   29.9680 C.ar   11  TRP11       0.0015
     15  N         14.3430  -19.6950   31.5020 N.3    15  PHE15      -0.1241
     16  CA        13.5670  -18.4790   31.7980 C.3    15  PHE15       0.1605
     17  C         12.2600  -18.7500   32.5620 C.2    15  PHE15       0.2264
     18  O         11.8410  -17.9270   33.3840 O.2    15  PHE15      -0.2867
     19  CB        13.2590  -17.6790   30.5260 C.3    15  PHE15       0.0534
     20  CG        14.4770  -17.0710   29.8630 C.ar   15  PHE15      -0.0203
     21  CD1       15.5240  -16.5380   30.6120 C.ar   15  PHE15      -0.0042
     22  CD2       14.5610  -17.0120   28.4720 C.ar   15  PHE15      -0.0042
     23  CE1       16.6320  -15.9750   29.9910 C.ar   15  PHE15      -0.0003
     24  CE2       15.6650  -16.4470   27.8470 C.ar   15  PHE15      -0.0003
     25  CZ        16.7010  -15.9280   28.6070 C.ar   15  PHE15      -0.0000
     26  N         12.4810  -16.7290   41.2840 N.3    22  PHE22      -0.1227
     27  CA        12.9800  -15.5090   41.8930 C.3    22  PHE22       0.1736
     28  C         11.8060  -14.7010   42.4400 C.2    22  PHE22       0.2596
     29  O         10.6450  -14.9730   42.1180 O.2    22  PHE22      -0.2718
     30  CB        13.8310  -14.7180   40.8930 C.3    22  PHE22       0.0547
     31  CG        14.9590  -15.5240   40.2800 C.ar   22  PHE22      -0.0202
     32  CD1       15.3330  -15.3250   38.9610 C.ar   22  PHE22      -0.0042
     33  CD2       15.6370  -16.4970   41.0160 C.ar   22  PHE22      -0.0042
     34  CE1       16.3610  -16.0590   38.3910 C.ar   22  PHE22      -0.0003
     35  CE2       16.6630  -17.2370   40.4470 C.ar   22  PHE22      -0.0003
     36  CZ        17.0240  -17.0210   39.1320 C.ar   22  PHE22      -0.0000
     37  N         12.1040  -13.7440   43.3090 N.am   23  THR23      -0.1939
     38  CA        11.0590  -12.9430   43.9360 C.3    23  THR23       0.2028
     39  C         10.4810  -11.9760   42.9010 C.2    23  THR23       0.2642
     40  O          9.2680  -11.7510   42.8640 O.2    23  THR23      -0.2714
     41  CB        11.5930  -12.1780   45.1680 C.3    23  THR23       0.1808
     42  OG1       12.8240  -12.7660   45.6080 O.3    23  THR23      -0.2208
     43  CG2       10.5760  -12.2220   46.3100 C.3    23  THR23       0.0379
     44  N         11.3630  -11.4340   42.0570 N.am   24  ASP24      -0.1957
     45  CA        10.9860  -10.5060   40.9990 C.3    24  ASP24       0.1840
     46  C         11.9930  -10.5960   39.8370 C.2    24  ASP24       0.2622
     47  O         12.8770   -9.7540   39.6870 O.2    24  ASP24      -0.2715
     48  CB        10.9160   -9.0800   41.5620 C.3    24  ASP24       0.1450
     49  CG        10.1780   -8.1140   40.6440 C.2    24  ASP24       0.3671
     50  OD1       10.0330   -8.4070   39.4340 O.co2  24  ASP24      -0.2456
     51  OD2        9.7330   -7.0550   41.1390 O.co2  24  ASP24      -0.2456
     52  N         11.8370  -11.6330   39.0190 N.am   25  PHE25      -0.1960
     53  CA        12.7290  -11.9050   37.8850 C.3    25  PHE25       0.1771
     54  C         12.8190  -10.7140   36.9220 C.2    25  PHE25       0.2619
     55  O         11.8070  -10.1430   36.5270 O.2    25  PHE25      -0.2715
     56  CB        12.2470  -13.1690   37.1530 C.3    25  PHE25       0.0574
     57  CG        13.0250  -13.5020   35.9070 C.ar   25  PHE25      -0.0200
     58  CD1       14.4200  -13.5310   35.9160 C.ar   25  PHE25      -0.0042
     59  CD2       12.3580  -13.8170   34.7270 C.ar   25  PHE25      -0.0042
     60  CE1       15.1260  -13.8390   34.7680 C.ar   25  PHE25      -0.0003
     61  CE2       13.0620  -14.1330   33.5810 C.ar   25  PHE25      -0.0003
     62  CZ        14.4470  -14.1440   33.6020 C.ar   25  PHE25      -0.0000
     63  N         14.0420  -10.3440   36.5550 N.am   26  ILE26      -0.1977
     64  CA        14.2690   -9.1890   35.6720 C.3    26  ILE26       0.1596
     65  C         13.7140   -9.3720   34.2580 C.2    26  ILE26       0.2287
     66  O         13.6160   -8.4050   33.5170 O.2    26  ILE26      -0.2864
     67  CB        15.7680   -8.7930   35.5760 C.3    26  ILE26       0.0276
     68  CG1       16.6220   -9.9610   35.0560 C.3    26  ILE26       0.0022
     69  CG2       16.2690   -8.3000   36.9270 C.3    26  ILE26       0.0022
     70  CD1       18.0360   -9.5710   34.6850 C.3    26  ILE26       0.0001
     71  N         17.7330  -10.3310   30.9190 N.3    31  ALA31      -0.1245
     72  CA        18.6200  -11.4460   31.2040 C.3    31  ALA31       0.1562
     73  C         19.4560  -11.8520   29.9770 C.2    31  ALA31       0.2260
     74  O         20.6060  -12.2770   30.1120 O.2    31  ALA31      -0.2867
     75  CB        17.8240  -12.6230   31.7330 C.3    31  ALA31       0.0290
     76  N         22.3770   -9.4020   29.9490 N.3    34  TRP34      -0.1227
     77  CA        23.3700   -9.8780   30.9300 C.3    34  TRP34       0.1737
     78  C         24.0950  -11.1440   30.4570 C.2    34  TRP34       0.2595
     79  O         25.2690  -11.3420   30.7570 O.2    34  TRP34      -0.2718
     80  CB        22.7140  -10.1800   32.2750 C.3    34  TRP34       0.0564
     81  CG        22.3870   -8.9800   33.1020 C.ar   34  TRP34       0.0003
     82  CD1       21.2440   -8.2540   33.0580 C.ar   34  TRP34       0.0946
     83  CD2       23.2130   -8.3730   34.1120 C.ar   34  TRP34       0.0152
     84  NE1       21.2970   -7.2310   33.9730 N.ar   34  TRP34      -0.2442
     85  CE2       22.4910   -7.2860   34.6410 C.ar   34  TRP34       0.0810
     86  CE3       24.4820   -8.6500   34.6220 C.ar   34  TRP34       0.0012
     87  CZ2       23.0010   -6.4630   35.6520 C.ar   34  TRP34       0.0191
     88  CZ3       24.9870   -7.8400   35.6340 C.ar   34  TRP34       0.0001
     89  CH2       24.2450   -6.7580   36.1370 C.ar   34  TRP34       0.0015
     90  N         23.3850  -12.0050   29.7390 N.am   35  ARG35      -0.1980
     91  CA        23.9630  -13.2330   29.2210 C.3    35  ARG35       0.1597
     92  C         25.1780  -13.0060   28.3040 C.2    35  ARG35       0.2287
     93  O         26.0410  -13.8620   28.2330 O.2    35  ARG35      -0.2864
     94  CB        22.9060  -14.0780   28.5000 C.3    35  ARG35       0.0334
     95  CG        23.3330  -15.5230   28.2770 C.3    35  ARG35       0.0492
     96  CD        22.8040  -16.1070   26.9740 C.3    35  ARG35       0.2205
     97  NE        21.3990  -16.4620   27.0530 N.pl3  35  ARG35      -0.0865
     98  CZ        20.6900  -16.9530   26.0380 C.cat  35  ARG35       0.5346
     99  NH1       21.2530  -17.1470   24.8480 N.pl3  35  ARG35       0.1354
    100  NH2       19.4060  -17.2490   26.2110 N.pl3  35  ARG35       0.1354
    101  N         28.3280  -13.8750   29.9500 N.3    38  VAL38      -0.1245
    102  CA        28.5300  -15.2740   30.3360 C.3    38  VAL38       0.1561
    103  C         29.3720  -15.9720   29.2630 C.2    38  VAL38       0.2260
    104  O         28.9410  -16.0680   28.1120 O.2    38  VAL38      -0.2867
    105  CB        27.1860  -16.0280   30.4830 C.3    38  VAL38       0.0252
    106  CG1       27.4100  -17.5090   30.8020 C.3    38  VAL38       0.0019
    107  CG2       26.3220  -15.3720   31.5520 C.3    38  VAL38       0.0019
    108  N         24.9950  -20.2080   36.5780 N.3    57  LEU57      -0.1245
    109  CA        26.0550  -19.7430   35.7030 C.3    57  LEU57       0.1561
    110  C         26.9590  -18.7270   36.3820 C.2    57  LEU57       0.2260
    111  O         26.6750  -18.2510   37.5020 O.2    57  LEU57      -0.2867
    112  CB        25.4670  -19.1440   34.4230 C.3    57  LEU57       0.0270
    113  CG        24.4460  -18.0110   34.5750 C.3    57  LEU57       0.0019
    114  CD1       25.0840  -16.7010   35.0200 C.3    57  LEU57       0.0001
    115  CD2       23.7050  -17.8180   33.2560 C.3    57  LEU57       0.0001
    116  N         29.3880  -15.0900   35.2310 N.3    59  MET59      -0.1245
    117  CA        29.7840  -14.0660   34.2780 C.3    59  MET59       0.1570
    118  C         31.2400  -13.6820   34.4740 C.2    59  MET59       0.2261
    119  O         31.7950  -13.7910   35.5840 O.2    59  MET59      -0.2867
    120  CB        28.9630  -12.8050   34.4940 C.3    59  MET59       0.0387
    121  CG        27.4710  -12.9840   34.3470 C.3    59  MET59       0.0595
    122  SD        26.6050  -11.5020   34.8830 S.3    59  MET59      -0.1393
    123  CE        26.7960  -11.5870   36.6620 C.3    59  MET59       0.0692
    124  N         25.4530  -16.2670   39.2920 N.3    77  SER77      -0.1202
    125  CA        24.1290  -15.6720   39.1600 C.3    77  SER77       0.2020
    126  C         23.1570  -16.6730   38.5070 C.2    77  SER77       0.2618
    127  O         23.5690  -17.7710   38.0980 O.2    77  SER77      -0.2717
    128  CB        24.2170  -14.3990   38.3050 C.3    77  SER77       0.2103
    129  OG        23.0180  -13.6390   38.3840 O.3    77  SER77      -0.2182
    130  N         21.8770  -16.3040   38.4260 N.am   78  PHE78      -0.1975
    131  CA        20.8730  -17.1190   37.7270 C.3    78  PHE78       0.1639
    132  C         20.8730  -18.5480   38.2790 C.2    78  PHE78       0.2290
    133  O         20.7890  -19.5180   37.5220 O.2    78  PHE78      -0.2864
    134  CB        21.1960  -17.0970   36.2210 C.3    78  PHE78       0.0560
    135  CG        20.0290  -17.3780   35.3120 C.ar   78  PHE78      -0.0200
    136  CD1       20.0830  -18.4260   34.3930 C.ar   78  PHE78      -0.0042
    137  CD2       18.9080  -16.5640   35.3160 C.ar   78  PHE78      -0.0042
    138  CE1       19.0330  -18.6610   33.5140 C.ar   78  PHE78      -0.0003
    139  CE2       17.8430  -16.8020   34.4470 C.ar   78  PHE78      -0.0003
    140  CZ        17.9050  -17.8500   33.5480 C.ar   78  PHE78      -0.0000
    141  N         26.0300  -12.2170   44.9860 N.3   113  HIS113     -0.1226
    142  CA        25.1190  -11.5590   45.9200 C.3   113  HIS113      0.1752
    143  C         24.1450  -12.6240   46.4230 C.2   113  HIS113      0.2596
    144  O         23.5080  -13.3180   45.6240 O.2   113  HIS113     -0.2718
    145  CB        24.3840  -10.4140   45.2310 C.3   113  HIS113      0.0759
    146  CG        25.2470   -9.2220   44.9730 C.ar  113  HIS113      0.0818
    147  ND1       25.2610   -8.1230   45.8010 N.ar  113  HIS113     -0.2268
    148  CD2       26.1550   -8.9710   44.0020 C.ar  113  HIS113      0.1154
    149  CE1       26.1190   -7.2330   45.3390 C.ar  113  HIS113      0.1986
    150  NE2       26.6760   -7.7230   44.2480 N.ar  113  HIS113     -0.2212
    151  N         24.0600  -12.7710   47.7420 N.am  114  ALA114     -0.1966
    152  CA        23.2960  -13.8550   48.3560 C.3   114  ALA114      0.1728
    153  C         21.8110  -13.5120   48.4940 C.2   114  ALA114      0.2616
    154  O         21.4530  -12.4380   48.9630 O.2   114  ALA114     -0.2715
    155  CB        23.8870  -14.2030   49.7150 C.3   114  ALA114      0.0334
    156  N         20.9560  -14.4390   48.0800 N.am  115  SER115     -0.1950
    157  CA        19.5130  -14.2930   48.2380 C.3   115  SER115      0.1924
    158  C         19.1150  -14.5640   49.6930 C.2   115  SER115      0.2314
    159  O         18.1330  -14.0210   50.1870 O.2   115  SER115     -0.2863
    160  CB        18.7880  -15.2680   47.3190 C.3   115  SER115      0.2116
    161  OG        19.0450  -16.6000   47.7340 O.3   115  SER115     -0.2180
    162  N         24.5810   -4.8530   41.9440 N.3   395  GLU395     -0.1231
    163  CA        24.0290   -6.1490   42.2230 C.3   395  GLU395      0.1699
    164  C         23.9800   -6.9890   40.9500 C.2   395  GLU395      0.2592
    165  O         23.7010   -6.4690   39.8660 O.2   395  GLU395     -0.2718
    166  CB        22.6070   -5.9010   42.7230 C.3   395  GLU395      0.0402
    167  CG        21.9150   -7.0080   43.4650 C.3   395  GLU395      0.1161
    168  CD        20.6530   -6.4700   44.1120 C.2   395  GLU395      0.3649
    169  OE1       20.7580   -5.8670   45.2020 O.co2 395  GLU395     -0.2457
    170  OE2       19.5770   -6.5980   43.4970 O.co2 395  GLU395     -0.2457
    171  N         24.2340   -8.2890   41.0960 N.am  396  PHE396     -0.1976
    172  CA        24.1070   -9.2340   39.9950 C.3   396  PHE396      0.1639
    173  C         23.6730  -10.5860   40.5630 C.2   396  PHE396      0.2290
    174  O         23.2470  -11.4740   39.8320 O.2   396  PHE396     -0.2864
    175  CB        25.4190   -9.3280   39.1850 C.3   396  PHE396      0.0560
    176  CG        26.5970   -9.8430   39.9770 C.ar  396  PHE396     -0.0200
    177  CD1       26.8040  -11.2030   40.1310 C.ar  396  PHE396     -0.0042
    178  CD2       27.5000   -8.9650   40.5650 C.ar  396  PHE396     -0.0042
    179  CE1       27.8770  -11.6770   40.8730 C.ar  396  PHE396     -0.0003
    180  CE2       28.5760   -9.4350   41.3020 C.ar  396  PHE396     -0.0003
    181  CZ        28.7660  -10.7930   41.4620 C.ar  396  PHE396     -0.0000
@<TRIPOS>BOND
     1    99    98    1
     2    98   100    1
     3    98    97    2
     4     7     9   ar
     5     7     6   ar
     6     5     6    1
     7     5     2    1
     8     1     2    1
     9     9    10   ar
    10    96    97    1
    11    96    95    1
    12     6     8   ar
    13     2     3    1
    14     3     4    2
    15    24    22   ar
    16    24    25   ar
    17    10     8   ar
    18    10    12   ar
    19   104   103    2
    20     8    11   ar
    21    93    92    2
    22    95    94    1
    23    92    91    1
    24    22    20   ar
    25    94    91    1
    26    25    23   ar
    27    12    14   ar
    28    11    13   ar
    29    91    90    1
    30   103   102    1
    31    90    78   am
    32    20    19    1
    33    20    21   ar
    34    76    77    1
    35   101   102    1
    36    14    13   ar
    37    73    74    2
    38    73    72    1
    39    23    21   ar
    40   102   105    1
    41    78    79    2
    42    78    77    1
    43   105   106    1
    44   105   107    1
    45    19    16    1
    46    71    72    1
    47    77    80    1
    48    72    75    1
    49    15    16    1
    50    16    17    1
    51    80    81    1
    52    17    18    2
    53    82    81   ar
    54    82    84   ar
    55    81    83   ar
    56   115   113    1
    57   138   140   ar
    58   138   136   ar
    59    66    65    2
    60   140   139   ar
    61    61    62   ar
    62    61    59   ar
    63    62    60   ar
    64    84    85   ar
    65    83    86   ar
    66    83    85   ar
    67    65    64    1
    68   117   118    1
    69   117   120    1
    70   117   116    1
    71   121   120    1
    72   121   122    1
    73   136   135   ar
    74   112   113    1
    75   112   109    1
    76   139   137   ar
    77   118   119    2
    78   113   114    1
    79    86    88   ar
    80    85    87   ar
    81    70    68    1
    82    59    57   ar
    83    60    58   ar
    84   122   123    1
    85    68    67    1
    86   135   137   ar
    87   135   134    1
    88    67    64    1
    89    67    69    1
    90    88    89   ar
    91    87    89   ar
    92    64    63    1
    93   109   110    1
    94   109   108    1
    95    57    58   ar
    96    57    56    1
    97   134   131    1
    98   110   111    2
    99    55    54    2
   100    63    54   am
   101    54    53    1
   102    56    53    1
   103   133   132    2
   104   131   132    1
   105   131   130    1
   106    53    52    1
   107   127   126    2
   108   128   129    1
   109   128   125    1
   110    34    32   ar
   111    34    36   ar
   112   130   126   am
   113   126   125    1
   114    32    31   ar
   115    52    46   am
   116    36    35   ar
   117   125   124    1
   118   175   176    1
   119   175   172    1
   120    50    49   ar
   121    47    46    2
   122   174   173    2
   123    46    45    1
   124   165   164    2
   125   176   177   ar
   126   176   178   ar
   127   172   173    1
   128   172   171    1
   129   177   179   ar
   130    31    30    1
   131    31    33   ar
   132    35    33   ar
   133   178   180   ar
   134    49    51   ar
   135    49    48    1
   136   179   181   ar
   137    30    27    1
   138   164   171   am
   139   164   163    1
   140    45    48    1
   141    45    44    1
   142    26    27    1
   143   180   181   ar
   144    27    28    1
   145   162   163    1
   146    44    39   am
   147    29    28    2
   148   163   166    1
   149    28    37   am
   150   166   167    1
   151    40    39    2
   152    39    38    1
   153    37    38    1
   154   167   168    1
   155   170   168   ar
   156    38    41    1
   157   148   150   ar
   158   148   146   ar
   159   168   169   ar
   160   150   149   ar
   161   146   145    1
   162   146   147   ar
   163   141   142    1
   164    41    42    1
   165    41    43    1
   166   145   142    1
   167   149   147   ar
   168   144   143    2
   169   142   143    1
   170   143   151   am
   171   160   161    1
   172   160   157    1
   173   151   152    1
   174   156   157    1
   175   156   153   am
   176   157   158    1
   177   152   153    1
   178   152   155    1
   179   153   154    2
   180   158   159    2
