@<TRIPOS>MOLECULE
tmp/5ec5M00.pdb
 83 80 0 0 0
SMALL
GASTEIGER

@<TRIPOS>ATOM
      1  N        177.1620   32.4080  300.1860 N.3   218  SER218     -0.1202
      2  CA       176.0280   32.8340  300.9720 C.3   218  SER218      0.2020
      3  C        176.3580   32.8250  302.4510 C.2   218  SER218      0.2619
      4  O        176.7930   31.8070  302.9950 O.2   218  SER218     -0.2717
      5  CB       174.8330   31.9360  300.6990 C.3   218  SER218      0.2103
      6  OG       173.7290   32.3630  301.4720 O.3   218  SER218     -0.2182
      7  N        176.1380   33.9700  303.0920 N.am  219  SER219     -0.1937
      8  CA       176.3110   34.1090  304.5340 C.3   219  SER219      0.2055
      9  C        175.1690   33.3990  305.2610 C.2   219  SER219      0.2643
     10  O        174.1710   33.0190  304.6350 O.2   219  SER219     -0.2714
     11  CB       176.3910   35.5920  304.9260 C.3   219  SER219      0.2130
     12  OG       175.1080   36.1630  305.1180 O.3   219  SER219     -0.2179
     13  N        175.3150   33.2300  306.5760 N.am  220  ASP220     -0.1957
     14  CA       174.3090   32.5380  307.3880 C.3   220  ASP220      0.1840
     15  C        172.9920   33.3080  307.5320 C.2   220  ASP220      0.2622
     16  O        171.9620   32.7230  307.8790 O.2   220  ASP220     -0.2715
     17  CB       174.8890   32.1300  308.7510 C.3   220  ASP220      0.1450
     18  CG       175.8300   30.9110  308.6650 C.2   220  ASP220      0.3671
     19  OD1      176.1130   30.3980  307.5500 O.co2 220  ASP220     -0.2456
     20  OD2      176.2990   30.4620  309.7320 O.co2 220  ASP220     -0.2456
     21  N        173.0330   34.6090  307.2450 N.am  221  GLN221     -0.1963
     22  CA       171.8270   35.4390  307.1900 C.3   221  GLN221      0.1733
     23  C        171.3480   35.7610  305.7570 C.2   221  GLN221      0.2616
     24  O        170.2700   36.3450  305.5680 O.2   221  GLN221     -0.2715
     25  CB       172.0040   36.7020  308.0330 C.3   221  GLN221      0.0408
     26  CG       171.7690   36.4640  309.5220 C.3   221  GLN221      0.0908
     27  CD       172.5870   37.3850  310.4140 C.2   221  GLN221      0.2608
     28  OE1      173.7930   37.5480  310.2180 O.2   221  GLN221     -0.2717
     29  NE2      171.9350   37.9800  311.4110 N.am  221  GLN221     -0.0878
     30  N        172.1400   35.3700  304.7570 N.am  222  GLY222     -0.1955
     31  CA       171.6860   35.3790  303.3620 C.3   222  GLY222      0.1869
     32  C        172.4730   36.1950  302.3600 C.2   222  GLY222      0.2309
     33  O        172.4500   35.8790  301.1680 O.2   222  GLY222     -0.2863
     34  N        172.6330   25.6260  301.0420 N.3   258  PHE258     -0.1241
     35  CA       171.2310   25.9640  301.3110 C.3   258  PHE258      0.1605
     36  C        170.4210   25.7250  300.0290 C.2   258  PHE258      0.2264
     37  O        170.1720   26.6510  299.2550 O.2   258  PHE258     -0.2867
     38  CB       171.0660   27.4140  301.7770 C.3   258  PHE258      0.0534
     39  CG       172.0400   27.8530  302.8400 C.ar  258  PHE258     -0.0203
     40  CD1      171.7850   27.6070  304.1980 C.ar  258  PHE258     -0.0042
     41  CD2      173.1920   28.5710  302.4940 C.ar  258  PHE258     -0.0042
     42  CE1      172.6690   28.0470  305.1800 C.ar  258  PHE258     -0.0003
     43  CE2      174.0810   29.0060  303.4760 C.ar  258  PHE258     -0.0003
     44  CZ       173.8190   28.7430  304.8180 C.ar  258  PHE258     -0.0000
     45  N        167.3540   25.1180  299.2040 N.3   260  ARG260     -0.1231
     46  CA       166.0700   25.8090  299.0280 C.3   260  ARG260      0.1694
     47  C        166.1720   27.2360  298.4820 C.2   260  ARG260      0.2592
     48  O        165.1780   27.8050  298.0120 O.2   260  ARG260     -0.2718
     49  CB       165.3050   25.8240  300.3460 C.3   260  ARG260      0.0321
     50  CG       164.4060   24.6180  300.5100 C.3   260  ARG260      0.0489
     51  CD       163.8880   24.4590  301.9220 C.3   260  ARG260      0.2205
     52  NE       164.9700   24.1000  302.8260 N.pl3 260  ARG260     -0.0865
     53  CZ       165.4210   24.8870  303.7900 C.cat 260  ARG260      0.5346
     54  NH1      164.8560   26.0700  303.9990 N.pl3 260  ARG260      0.1354
     55  NH2      166.4290   24.4830  304.5520 N.pl3 260  ARG260      0.1354
     56  N        167.3780   27.7950  298.5370 N.am  261  SER261     -0.1952
     57  CA       167.6180   29.2030  298.2390 C.3   261  SER261      0.1924
     58  C        168.4490   29.4540  296.9760 C.2   261  SER261      0.2314
     59  O        169.3270   28.6610  296.6050 O.2   261  SER261     -0.2863
     60  CB       168.2540   29.8910  299.4510 C.3   261  SER261      0.2116
     61  OG       169.5320   29.3560  299.7610 O.3   261  SER261     -0.2180
     62  N        170.7240   35.4860  298.8370 N.3   275  CYS275     -0.1221
     63  CA       170.4180   34.0760  298.6230 C.3   275  CYS275      0.1808
     64  C        169.3920   33.7110  299.6970 C.2   275  CYS275      0.2601
     65  O        169.7230   33.4940  300.8810 O.2   275  CYS275     -0.2717
     66  CB       171.7060   33.2360  298.6540 C.3   275  CYS275      0.0970
     67  SG       171.6090   31.4700  299.0450 S.3   275  CYS275     -0.0800
     68  N        168.1320   33.7050  299.2520 N.am  276  LEU276     -0.1965
     69  CA       166.9550   33.5640  300.1120 C.3   276  LEU276      0.1728
     70  C        166.0620   32.4010  299.6940 C.2   276  LEU276      0.2616
     71  O        165.9850   32.0590  298.5080 O.2   276  LEU276     -0.2715
     72  CB       166.1370   34.8590  300.1260 C.3   276  LEU276      0.0311
     73  CG       166.7870   36.1530  300.6180 C.3   276  LEU276      0.0022
     74  CD1      165.8580   37.3050  300.2890 C.3   276  LEU276      0.0001
     75  CD2      167.1250   36.1480  302.1050 C.3   276  LEU276      0.0001
     76  N        165.4020   31.8050  300.6920 N.am  277  ASP277     -0.1971
     77  CA       164.5180   30.6490  300.5230 C.3   277  ASP277      0.1709
     78  C        163.3820   30.9320  299.5560 C.2   277  ASP277      0.2293
     79  O        162.6990   31.9600  299.6580 O.2   277  ASP277     -0.2864
     80  CB       163.9560   30.1910  301.8780 C.3   277  ASP277      0.1436
     81  CG       164.7620   29.0490  302.5120 C.2   277  ASP277      0.3671
     82  OD1      165.8940   28.7340  302.0530 O.co2 277  ASP277     -0.2456
     83  OD2      164.2430   28.4580  303.4870 O.co2 277  ASP277     -0.2456
@<TRIPOS>BOND
     1    59    58    2
     2    58    57    1
     3    48    47    2
     4    57    56    1
     5    57    60    1
     6    47    56   am
     7    47    46    1
     8    71    70    2
     9    63    66    1
    10    63    62    1
    11    63    64    1
    12    66    67    1
    13    46    45    1
    14    46    49    1
    15    68    64   am
    16    68    69    1
    17    37    36    2
    18    60    61    1
    19    78    79    2
    20    78    77    1
    21    70    69    1
    22    70    76   am
    23    64    65    2
    24    36    35    1
    25    69    72    1
    26    72    73    1
    27     1     2    1
    28    74    73    1
    29    49    50    1
    30    50    51    1
    31    77    76    1
    32    77    80    1
    33    73    75    1
    34     5     2    1
    35     5     6    1
    36     2     3    1
    37    34    35    1
    38    33    32    2
    39    35    38    1
    40    38    39    1
    41    80    81    1
    42    51    52    1
    43    82    81   ar
    44    32    31    1
    45     3     4    2
    46     3     7   am
    47    41    39   ar
    48    41    43   ar
    49    81    83   ar
    50    52    53    2
    51    39    40   ar
    52     7     8    1
    53    31    30    1
    54    43    44   ar
    55    53    54    1
    56    53    55    1
    57    40    42   ar
    58     8    11    1
    59     8     9    1
    60    10     9    2
    61    30    23   am
    62    44    42   ar
    63    11    12    1
    64     9    13   am
    65    24    23    2
    66    23    22    1
    67    13    14    1
    68    22    21    1
    69    22    25    1
    70    21    15   am
    71    14    15    1
    72    14    17    1
    73    15    16    2
    74    19    18   ar
    75    25    26    1
    76    18    17    1
    77    18    20   ar
    78    26    27    1
    79    28    27    2
    80    27    29   am
