@<TRIPOS>MOLECULE
tmp/5ec9A01.pdb
 203 192 0 0 0
SMALL
GASTEIGER

@<TRIPOS>ATOM
      1  N        -26.1710   -0.3400  -34.7450 N.3    19  VAL19      -0.1245
      2  CA       -25.7490    0.0880  -33.4130 C.3    19  VAL19       0.1561
      3  C        -26.5570   -0.6240  -32.3170 C.2    19  VAL19       0.2260
      4  O        -26.0180   -1.0230  -31.2850 O.2    19  VAL19      -0.2867
      5  CB       -25.8680    1.6220  -33.2610 C.3    19  VAL19       0.0252
      6  CG1      -25.6700    2.0440  -31.8120 C.3    19  VAL19       0.0019
      7  CG2      -24.8520    2.3130  -34.1660 C.3    19  VAL19       0.0019
      8  N        -25.3290   -4.2260  -32.1300 N.3    22  ILE22      -0.1231
      9  CA       -23.9980   -4.2370  -31.5370 C.3    22  ILE22       0.1692
     10  C        -24.1020   -4.0690  -30.0120 C.2    22  ILE22       0.2592
     11  O        -23.4630   -4.7960  -29.2710 O.2    22  ILE22      -0.2718
     12  CB       -23.0990   -3.1310  -32.1740 C.3    22  ILE22       0.0266
     13  CG1      -22.5860   -3.5950  -33.5330 C.3    22  ILE22       0.0019
     14  CG2      -21.9410   -2.7260  -31.2520 C.3    22  ILE22       0.0020
     15  CD1      -21.8400   -2.5350  -34.3110 C.3    22  ILE22       0.0001
     16  N        -24.9340   -3.1430  -29.5440 N.am   23  CYS23      -0.1970
     17  CA       -25.1210   -2.9790  -28.1040 C.3    23  CYS23       0.1712
     18  C        -25.7020   -4.2440  -27.4760 C.2    23  CYS23       0.2296
     19  O        -25.2960   -4.6350  -26.3750 O.2    23  CYS23      -0.2864
     20  CB       -26.0280   -1.7860  -27.8130 C.3    23  CYS23       0.0983
     21  SG       -25.2230   -0.2180  -28.1760 S.3    23  CYS23      -0.0798
     22  N        -25.2520   -7.2530  -28.5950 N.3    25  ALA25      -0.1231
     23  CA       -24.1830   -8.2400  -28.5490 C.3    25  ALA25       0.1694
     24  C        -23.2020   -7.9180  -27.4210 C.2    25  ALA25       0.2591
     25  O        -22.7000   -8.8220  -26.7560 O.2    25  ALA25      -0.2718
     26  CB       -23.4590   -8.3150  -29.8840 C.3    25  ALA25       0.0304
     27  N        -22.9380   -6.6340  -27.2030 N.am   26  ALA26      -0.1980
     28  CA       -22.0280   -6.2290  -26.1390 C.3    26  ALA26       0.1597
     29  C        -22.5690   -6.6250  -24.7560 C.2    26  ALA26       0.2287
     30  O        -21.8270   -7.1120  -23.9030 O.2    26  ALA26      -0.2864
     31  CB       -21.7700   -4.7200  -26.1990 C.3    26  ALA26       0.0319
     32  N        -22.2170  -10.3510  -24.2130 N.3    29  GLN29      -0.1245
     33  CA       -20.8230  -10.7630  -23.9940 C.3    29  GLN29       0.1566
     34  C        -20.2560  -10.3260  -22.6440 C.2    29  GLN29       0.2260
     35  O        -19.2230  -10.8380  -22.1950 O.2    29  GLN29      -0.2867
     36  CB       -19.9330  -10.2140  -25.0980 C.3    29  GLN29       0.0367
     37  CG       -20.1140  -10.9470  -26.4080 C.3    29  GLN29       0.0905
     38  CD       -20.1600  -12.4710  -26.2390 C.2    29  GLN29       0.2608
     39  OE1      -21.2240  -13.0630  -26.1240 O.2    29  GLN29      -0.2717
     40  NE2      -19.0080  -13.0930  -26.2360 N.am   29  GLN29      -0.0878
     41  N        -12.9860   -3.8420  -19.8580 N.3    59  TRP59      -0.1227
     42  CA       -14.0440   -4.5910  -20.5480 C.3    59  TRP59       0.1737
     43  C        -14.1910   -4.2070  -22.0240 C.2    59  TRP59       0.2595
     44  O        -14.3700   -5.0960  -22.8820 O.2    59  TRP59      -0.2718
     45  CB       -15.3990   -4.4290  -19.8310 C.3    59  TRP59       0.0564
     46  CG       -15.9840   -3.0350  -19.9250 C.ar   59  TRP59       0.0003
     47  CD1      -15.7420   -1.9810  -19.0770 C.ar   59  TRP59       0.0946
     48  CD2      -16.8870   -2.5460  -20.9270 C.ar   59  TRP59       0.0152
     49  NE1      -16.4450   -0.8690  -19.4970 N.ar   59  TRP59      -0.2442
     50  CE2      -17.1600   -1.1880  -20.6200 C.ar   59  TRP59       0.0810
     51  CE3      -17.4850   -3.1120  -22.0510 C.ar   59  TRP59       0.0012
     52  CZ2      -18.0110   -0.3950  -21.4030 C.ar   59  TRP59       0.0191
     53  CZ3      -18.3440   -2.3230  -22.8270 C.ar   59  TRP59       0.0001
     54  CH2      -18.5950   -0.9790  -22.4960 C.ar   59  TRP59       0.0015
     55  N        -14.1210   -2.9140  -22.3430 N.am   60  ASN60      -0.1974
     56  CA       -14.3610   -2.5600  -23.7370 C.3    60  ASN60       0.1688
     57  C        -13.2260   -3.1010  -24.6070 C.2    60  ASN60       0.2292
     58  O        -13.4940   -3.7280  -25.6260 O.2    60  ASN60      -0.2864
     59  CB       -14.5660   -1.0390  -23.9470 C.3    60  ASN60       0.1181
     60  CG       -13.5510   -0.1920  -23.2190 C.2    60  ASN60       0.2629
     61  OD1      -13.3150   -0.3740  -22.0240 O.2    60  ASN60      -0.2716
     62  ND2      -12.9570    0.7630  -23.9290 N.am   60  ASN60      -0.0877
     63  N        -13.6890   -6.8900  -25.0480 N.3    63  LEU63      -0.1231
     64  CA       -14.7330   -7.2350  -25.9980 C.3    63  LEU63       0.1693
     65  C        -14.2900   -6.9510  -27.4210 C.2    63  LEU63       0.2591
     66  O        -14.6820   -7.6510  -28.3530 O.2    63  LEU63      -0.2718
     67  CB       -16.0270   -6.4720  -25.6970 C.3    63  LEU63       0.0284
     68  CG       -16.7070   -6.8190  -24.3760 C.3    63  LEU63       0.0019
     69  CD1      -18.1170   -6.2420  -24.2740 C.3    63  LEU63       0.0001
     70  CD2      -16.7060   -8.3290  -24.1960 C.3    63  LEU63       0.0001
     71  N        -13.4700   -5.9230  -27.5940 N.am   64  ILE64      -0.1980
     72  CA       -13.0320   -5.5650  -28.9300 C.3    64  ILE64       0.1595
     73  C        -12.0910   -6.6280  -29.4790 C.2    64  ILE64       0.2287
     74  O        -12.3050   -7.1380  -30.5830 O.2    64  ILE64      -0.2864
     75  CB       -12.3610   -4.1750  -28.9490 C.3    64  ILE64       0.0276
     76  CG1      -13.4150   -3.0990  -28.6880 C.3    64  ILE64       0.0022
     77  CG2      -11.7210   -3.9230  -30.2750 C.3    64  ILE64       0.0022
     78  CD1      -12.8600   -1.7210  -28.3410 C.3    64  ILE64       0.0001
     79  N        -11.9790   -9.6560  -28.7330 N.3    66  SER66      -0.1202
     80  CA       -12.7300  -10.8860  -28.9720 C.3    66  SER66       0.2020
     81  C        -13.4830  -10.8840  -30.3020 C.2    66  SER66       0.2618
     82  O        -13.3290  -11.8010  -31.1010 O.2    66  SER66      -0.2717
     83  CB       -13.7170  -11.1340  -27.8310 C.3    66  SER66       0.2103
     84  OG       -13.0420  -11.5410  -26.6600 O.3    66  SER66      -0.2182
     85  N        -14.3060   -9.8600  -30.5410 N.am   67  PHE67      -0.1975
     86  CA       -15.0930   -9.8750  -31.7660 C.3    67  PHE67       0.1639
     87  C        -14.1820   -9.6660  -32.9680 C.2    67  PHE67       0.2290
     88  O        -14.4560  -10.1890  -34.0510 O.2    67  PHE67      -0.2864
     89  CB       -16.2510   -8.8410  -31.7410 C.3    67  PHE67       0.0560
     90  CG       -15.8580   -7.4130  -32.0620 C.ar   67  PHE67      -0.0200
     91  CD1      -15.5320   -7.0210  -33.3570 C.ar   67  PHE67      -0.0042
     92  CD2      -15.9200   -6.4390  -31.0730 C.ar   67  PHE67      -0.0042
     93  CE1      -15.2080   -5.7180  -33.6480 C.ar   67  PHE67      -0.0003
     94  CE2      -15.6090   -5.1190  -31.3570 C.ar   67  PHE67      -0.0003
     95  CZ       -15.2510   -4.7530  -32.6380 C.ar   67  PHE67      -0.0000
     96  N        -12.8500  -12.9240  -33.8920 N.3    70  ARG70      -0.1245
     97  CA       -13.9750  -13.7110  -34.3710 C.3    70  ARG70       0.1563
     98  C        -14.2700  -13.4230  -35.8370 C.2    70  ARG70       0.2260
     99  O        -14.8310  -14.2600  -36.5370 O.2    70  ARG70      -0.2867
    100  CB       -15.2070  -13.3990  -33.5150 C.3    70  ARG70       0.0307
    101  CG       -16.3710  -14.3460  -33.6840 C.3    70  ARG70       0.0489
    102  CD       -17.6220  -13.8260  -32.9790 C.3    70  ARG70       0.2205
    103  NE       -17.4210  -13.6050  -31.5530 N.pl3  70  ARG70      -0.0865
    104  CZ       -17.7490  -12.4850  -30.9100 C.cat  70  ARG70       0.5346
    105  NH1      -18.2990  -11.4690  -31.5660 N.pl3  70  ARG70       0.1354
    106  NH2      -17.5300  -12.3850  -29.6070 N.pl3  70  ARG70       0.1354
    107  N        -17.7730   -7.4770  -39.5190 N.3    78  ILE78      -0.1245
    108  CA       -17.5240   -8.2230  -38.2970 C.3    78  ILE78       0.1561
    109  C        -18.6560   -9.2090  -38.0390 C.2    78  ILE78       0.2260
    110  O        -19.8020   -8.9960  -38.4590 O.2    78  ILE78      -0.2867
    111  CB       -17.3760   -7.2880  -37.0480 C.3    78  ILE78       0.0252
    112  CG1      -18.6680   -6.5110  -36.7770 C.3    78  ILE78       0.0019
    113  CG2      -16.2340   -6.3240  -37.2250 C.3    78  ILE78       0.0019
    114  CD1      -18.6190   -5.6030  -35.5240 C.3    78  ILE78       0.0001
    115  N        -20.9070  -10.6510  -35.1160 N.3    80  LEU80      -0.1231
    116  CA       -21.3300  -10.3410  -33.7630 C.3    80  LEU80       0.1693
    117  C        -21.5170  -11.6110  -32.9260 C.2    80  LEU80       0.2591
    118  O        -21.7140  -12.7020  -33.4630 O.2    80  LEU80      -0.2718
    119  CB       -22.6320   -9.5410  -33.7750 C.3    80  LEU80       0.0284
    120  CG       -22.7030   -8.1710  -34.4770 C.3    80  LEU80       0.0019
    121  CD1      -24.0040   -7.4160  -34.1380 C.3    80  LEU80       0.0001
    122  CD2      -21.5010   -7.3270  -34.1360 C.3    80  LEU80       0.0001
    123  N        -21.4800  -11.4600  -31.6050 N.am   81  ALA81      -0.1980
    124  CA       -21.7430  -12.5750  -30.6970 C.3    81  ALA81       0.1597
    125  C        -23.1470  -13.1660  -30.8550 C.2    81  ALA81       0.2287
    126  O        -23.3830  -14.3020  -30.4650 O.2    81  ALA81      -0.2864
    127  CB       -21.5430  -12.1410  -29.2750 C.3    81  ALA81       0.0319
    128  N        -21.0950    5.5520  -38.0120 N.3    96  VAL96      -0.1245
    129  CA       -19.9010    5.1210  -37.2790 C.3    96  VAL96       0.1561
    130  C        -18.8940    4.4190  -38.1980 C.2    96  VAL96       0.2260
    131  O        -18.1190    3.5460  -37.7680 O.2    96  VAL96      -0.2867
    132  CB       -20.2800    4.1730  -36.1100 C.3    96  VAL96       0.0252
    133  CG1      -21.2020    4.8970  -35.1530 C.3    96  VAL96       0.0019
    134  CG2      -20.9430    2.8650  -36.6300 C.3    96  VAL96       0.0019
    135  N        -14.7680    4.6800  -37.2950 N.3    99  ILE99      -0.1231
    136  CA       -14.2230    3.8730  -36.2240 C.3    99  ILE99       0.1692
    137  C        -14.3230    2.3920  -36.6010 C.2    99  ILE99       0.2592
    138  O        -13.4490    1.5880  -36.2460 O.2    99  ILE99      -0.2718
    139  CB       -14.9200    4.1680  -34.8740 C.3    99  ILE99       0.0266
    140  CG1      -14.2840    3.3280  -33.7520 C.3    99  ILE99       0.0019
    141  CG2      -16.4190    3.9360  -34.9520 C.3    99  ILE99       0.0020
    142  CD1      -12.7800    3.5330  -33.5690 C.3    99  ILE99       0.0001
    143  N        -15.3570    2.0410  -37.3600 N.am  100  PHE100     -0.1976
    144  CA       -15.5200    0.6630  -37.8530 C.3   100  PHE100      0.1639
    145  C        -14.3330    0.2680  -38.7320 C.2   100  PHE100      0.2290
    146  O        -13.6980   -0.7640  -38.5120 O.2   100  PHE100     -0.2864
    147  CB       -16.8270    0.5150  -38.6350 C.3   100  PHE100      0.0560
    148  CG       -17.2520   -0.9110  -38.8580 C.ar  100  PHE100     -0.0200
    149  CD1      -18.0340   -1.5630  -37.9250 C.ar  100  PHE100     -0.0042
    150  CD2      -16.9110   -1.5860  -40.0200 C.ar  100  PHE100     -0.0042
    151  CE1      -18.4410   -2.8600  -38.1230 C.ar  100  PHE100     -0.0003
    152  CE2      -17.3230   -2.8870  -40.2260 C.ar  100  PHE100     -0.0003
    153  CZ       -18.0820   -3.5260  -39.2690 C.ar  100  PHE100     -0.0000
    154  N        -11.2300   -0.4200  -36.8080 N.3   103  VAL103     -0.1245
    155  CA       -11.2720   -1.7870  -36.2830 C.3   103  VAL103      0.1561
    156  C        -10.8640   -2.8060  -37.3370 C.2   103  VAL103      0.2260
    157  O        -10.0380   -3.6880  -37.0740 O.2   103  VAL103     -0.2867
    158  CB       -12.6750   -2.1290  -35.7250 C.3   103  VAL103      0.0252
    159  CG1      -12.8520   -3.6260  -35.5340 C.3   103  VAL103      0.0019
    160  CG2      -12.8670   -1.4210  -34.3970 C.3   103  VAL103      0.0019
    161  N        -14.6640    3.8830  -28.9370 N.3   186  CYS186     -0.1235
    162  CA       -15.9330    3.1880  -28.7750 C.3   186  CYS186      0.1677
    163  C        -16.6760    3.7160  -27.5520 C.2   186  CYS186      0.2270
    164  O        -17.8840    3.9060  -27.5860 O.2   186  CYS186     -0.2867
    165  CB       -15.7130    1.6800  -28.6460 C.3   186  CYS186      0.0956
    166  SG       -15.2300    0.8680  -30.2020 S.3   186  CYS186     -0.0801
    167  N        -18.5140    6.9360  -28.3120 N.3   189  HIS189     -0.1226
    168  CA       -19.7590    6.7320  -29.0330 C.3   189  HIS189      0.1752
    169  C        -20.8440    6.1990  -28.1150 C.2   189  HIS189      0.2595
    170  O        -21.9830    6.6830  -28.1310 O.2   189  HIS189     -0.2718
    171  CB       -19.5600    5.7830  -30.2050 C.3   189  HIS189      0.0759
    172  CG       -18.8740    6.4030  -31.3760 C.ar  189  HIS189      0.0818
    173  ND1      -19.5210    7.2380  -32.2670 N.ar  189  HIS189     -0.2268
    174  CD2      -17.5880    6.3190  -31.8120 C.ar  189  HIS189      0.1154
    175  CE1      -18.6690    7.6380  -33.1930 C.ar  189  HIS189      0.1986
    176  NE2      -17.4940    7.0940  -32.9430 N.ar  189  HIS189     -0.2212
    177  N        -20.4970    5.2080  -27.3050 N.am  190  LEU190     -0.1980
    178  CA       -21.4680    4.6410  -26.3870 C.3   190  LEU190      0.1596
    179  C        -22.0360    5.7150  -25.4410 C.2   190  LEU190      0.2287
    180  O        -23.2350    5.7420  -25.1770 O.2   190  LEU190     -0.2864
    181  CB       -20.8350    3.4950  -25.6010 C.3   190  LEU190      0.0297
    182  CG       -20.5980    2.2340  -26.4250 C.3   190  LEU190      0.0022
    183  CD1      -19.5790    1.2980  -25.7350 C.3   190  LEU190      0.0001
    184  CD2      -21.9160    1.5100  -26.6790 C.3   190  LEU190      0.0001
    185  N        -24.5580    7.6600  -27.5390 N.3   193  PHE193     -0.1241
    186  CA       -25.7570    6.8380  -27.7300 C.3   193  PHE193      0.1605
    187  C        -26.5990    6.8860  -26.4610 C.2   193  PHE193      0.2264
    188  O        -27.8180    7.0570  -26.5100 O.2   193  PHE193     -0.2867
    189  CB       -25.4090    5.3810  -28.0470 C.3   193  PHE193      0.0534
    190  CG       -24.5200    5.2050  -29.2390 C.ar  193  PHE193     -0.0203
    191  CD1      -24.4890    6.1500  -30.2640 C.ar  193  PHE193     -0.0042
    192  CD2      -23.7010    4.0850  -29.3410 C.ar  193  PHE193     -0.0042
    193  CE1      -23.6560    5.9670  -31.3620 C.ar  193  PHE193     -0.0003
    194  CE2      -22.8750    3.9040  -30.4330 C.ar  193  PHE193     -0.0003
    195  CZ       -22.8490    4.8420  -31.4410 C.ar  193  PHE193     -0.0000
    196  N        -24.4390   -3.5780  -19.9940 N.3   205  LEU205     -0.1245
    197  CA       -23.7710   -2.5230  -20.7280 C.3   205  LEU205      0.1561
    198  C        -24.0640   -1.1470  -20.1110 C.2   205  LEU205      0.2260
    199  O        -23.1660   -0.3070  -19.9830 O.2   205  LEU205     -0.2867
    200  CB       -24.1880   -2.5490  -22.1950 C.3   205  LEU205      0.0270
    201  CG       -23.5710   -1.4790  -23.1050 C.3   205  LEU205      0.0019
    202  CD1      -22.0640   -1.5670  -23.0360 C.3   205  LEU205      0.0001
    203  CD2      -24.0540   -1.6950  -24.5280 C.3   205  LEU205      0.0001
@<TRIPOS>BOND
     1   152   150   ar
     2   152   153   ar
     3   150   148   ar
     4   107   108    1
     5   153   151   ar
     6   148   147    1
     7   148   149   ar
     8   145   146    2
     9   145   144    1
    10   147   144    1
    11   110   109    2
    12   108   109    1
    13   108   111    1
    14   130   131    2
    15   130   129    1
    16   151   149   ar
    17   128   129    1
    18   144   143    1
    19   143   137   am
    20   156   157    2
    21   156   155    1
    22   135   136    1
    23   129   132    1
    24   113   111    1
    25   111   112    1
    26   154   155    1
    27   112   114    1
    28   134   132    1
    29   137   138    2
    30   137   136    1
    31    99    98    2
    32   155   158    1
    33   136   139    1
    34   132   133    1
    35    98    97    1
    36   158   159    1
    37   158   160    1
    38   115   116    1
    39   141   139    1
    40   139   140    1
    41     1     2    1
    42   120   121    1
    43   120   122    1
    44   120   119    1
    45    97    96    1
    46    97   100    1
    47    15    13    1
    48     7     5    1
    49    88    87    2
    50   119   116    1
    51   116   117    1
    52   140   142    1
    53   101   100    1
    54   101   102    1
    55    93    91   ar
    56    93    95   ar
    57    13    12    1
    58   118   117    2
    59     2     5    1
    60     2     3    1
    61    91    90   ar
    62     5     6    1
    63   175   176   ar
    64   175   173   ar
    65   102   103    1
    66    87    86    1
    67   176   174   ar
    68   117   123   am
    69    95    94   ar
    70     3     4    2
    71   173   172   ar
    72    12     9    1
    73    12    14    1
    74     8     9    1
    75    90    89    1
    76    90    92   ar
    77   174   172   ar
    78    86    89    1
    79    86    85    1
    80   123   124    1
    81   105   104    1
    82   103   104    2
    83     9    10    1
    84   195   193   ar
    85   195   194   ar
    86   172   171    1
    87   193   191   ar
    88    94    92   ar
    89    82    81    2
    90   104   106    1
    91   125   124    1
    92   125   126    2
    93   124   127    1
    94    74    73    2
    95    85    81   am
    96   194   192   ar
    97    81    80    1
    98    77    75    1
    99   191   190   ar
   100   171   168    1
   101   166   165    1
   102    10    16   am
   103    10    11    2
   104    26    23    1
   105    16    17    1
   106    73    72    1
   107   192   190   ar
   108   190   189    1
   109   168   167    1
   110   168   169    1
   111    80    79    1
   112    80    83    1
   113    75    72    1
   114    75    76    1
   115   161   162    1
   116    72    71    1
   117   162   165    1
   118   162   163    1
   119    76    78    1
   120    22    23    1
   121    23    24    1
   122    66    65    2
   123    21    20    1
   124   170   169    2
   125   169   177   am
   126    17    20    1
   127    17    18    1
   128   189   186    1
   129    83    84    1
   130   186   185    1
   131   186   187    1
   132    71    65   am
   133   164   163    2
   134    18    19    2
   135    65    64    1
   136    24    27   am
   137    24    25    2
   138   177   178    1
   139    27    28    1
   140   184   182    1
   141   188   187    2
   142   182   183    1
   143   182   181    1
   144    37    38    1
   145    37    36    1
   146   178   181    1
   147   178   179    1
   148    38    40   am
   149    38    39    2
   150    31    28    1
   151    28    29    1
   152    64    67    1
   153    64    63    1
   154    67    68    1
   155    58    57    2
   156   179   180    2
   157    36    33    1
   158    29    30    2
   159    57    56    1
   160   203   201    1
   161    68    69    1
   162    68    70    1
   163    32    33    1
   164    33    34    1
   165    59    56    1
   166    59    60    1
   167    62    60   am
   168    56    55    1
   169    60    61    2
   170   201   202    1
   171   201   200    1
   172    44    43    2
   173    53    54   ar
   174    53    51   ar
   175    34    35    2
   176    54    52   ar
   177    55    43   am
   178   200   197    1
   179    51    48   ar
   180    43    42    1
   181    52    50   ar
   182    48    50   ar
   183    48    46   ar
   184   197   198    1
   185   197   196    1
   186    50    49   ar
   187    42    41    1
   188    42    45    1
   189   198   199    2
   190    46    45    1
   191    46    47   ar
   192    49    47   ar
