@<TRIPOS>MOLECULE
tmp/5eccB01.pdb
 158 152 0 0 0
SMALL
GASTEIGER

@<TRIPOS>ATOM
      1  N          8.9810   51.3780  -20.6780 N.3     6  MET6       -0.1230
      2  CA         9.6600   50.2970  -19.9710 C.3     6  MET6        0.1702
      3  C         11.0540   50.7310  -19.5390 C.2     6  MET6        0.2592
      4  O         11.8340   51.2710  -20.3350 O.2     6  MET6       -0.2718
      5  CB         9.7180   49.0360  -20.8470 C.3     6  MET6        0.0401
      6  CG        10.3800   47.8230  -20.1750 C.3     6  MET6        0.0596
      7  SD         9.8920   46.2840  -20.9960 S.3     6  MET6       -0.1393
      8  CE         9.9580   45.1060  -19.6510 C.3     6  MET6        0.0692
      9  N         11.3620   50.4720  -18.2680 N.am    7  VAL7       -0.1966
     10  CA        12.5960   50.9480  -17.6530 C.3     7  VAL7        0.1727
     11  C         13.0270   49.9970  -16.5190 C.2     7  VAL7        0.2616
     12  O         12.1830   49.3450  -15.8720 O.2     7  VAL7       -0.2715
     13  CB        12.4220   52.3950  -17.0880 C.3     7  VAL7        0.0290
     14  CG1       11.4030   52.4150  -15.9560 C.3     7  VAL7        0.0023
     15  CG2       13.7570   52.9770  -16.6080 C.3     7  VAL7        0.0023
     16  N         14.3300   49.9130  -16.3060 N.am    8  ALA8       -0.1977
     17  CA        14.8900   49.3160  -15.0920 C.3     8  ALA8        0.1597
     18  C         15.4810   50.4260  -14.1960 C.2     8  ALA8        0.2287
     19  O         16.3600   51.1710  -14.6230 O.2     8  ALA8       -0.2864
     20  CB        15.9320   48.2950  -15.4530 C.3     8  ALA8        0.0319
     21  N         26.8960   56.7160  -20.6970 N.3    19  PRO19      -0.2102
     22  CA        26.1090   55.9590  -21.6690 C.3    19  PRO19       0.1504
     23  C         25.6830   54.5730  -21.1760 C.2    19  PRO19       0.2576
     24  O         25.0320   53.8560  -21.9250 O.2    19  PRO19      -0.2718
     25  CB        27.0790   55.8220  -22.8390 C.3    19  PRO19       0.0282
     26  CG        28.3910   55.6650  -22.1550 C.3    19  PRO19       0.0208
     27  CD        28.3420   56.5610  -20.9340 C.3    19  PRO19       0.0893
     28  N         26.0510   54.1930  -19.9570 N.am   20  ASP20      -0.1960
     29  CA        25.8660   52.8070  -19.5260 C.3    20  ASP20       0.1840
     30  C         24.8360   52.6210  -18.4330 C.2    20  ASP20       0.2621
     31  O         24.6790   53.4690  -17.5680 O.2    20  ASP20      -0.2715
     32  CB        27.1830   52.2270  -19.0250 C.3    20  ASP20       0.1450
     33  CG        28.2960   52.3800  -20.0210 C.2    20  ASP20       0.3671
     34  OD1       28.1010   51.9970  -21.1970 O.co2  20  ASP20      -0.2456
     35  OD2       29.3510   52.9120  -19.6220 O.co2  20  ASP20      -0.2456
     36  N         24.1630   51.4770  -18.4640 N.am   21  ILE21      -0.1977
     37  CA        23.3600   51.0420  -17.3260 C.3    21  ILE21       0.1596
     38  C         24.3120   50.4330  -16.2940 C.2    21  ILE21       0.2287
     39  O         24.9720   49.4340  -16.5700 O.2    21  ILE21      -0.2864
     40  CB        22.2740   50.0320  -17.7600 C.3    21  ILE21       0.0276
     41  CG1       21.3430   50.6800  -18.8000 C.3    21  ILE21       0.0022
     42  CG2       21.4770   49.5850  -16.5610 C.3    21  ILE21       0.0022
     43  CD1       20.2500   49.7740  -19.3260 C.3    21  ILE21       0.0001
     44  N         24.6980   48.3900  -13.9590 N.3    23  TRP23      -0.1241
     45  CA        24.5180   47.0910  -13.3110 C.3    23  TRP23       0.1605
     46  C         24.2430   46.0420  -14.3690 C.2    23  TRP23       0.2264
     47  O         23.9710   46.3690  -15.5310 O.2    23  TRP23      -0.2867
     48  CB        23.3640   47.0970  -12.2990 C.3    23  TRP23       0.0550
     49  CG        22.0430   47.3860  -12.9460 C.ar   23  TRP23       0.0003
     50  CD1       21.2590   46.5100  -13.6610 C.ar   23  TRP23       0.0946
     51  CD2       21.3450   48.6450  -12.9490 C.ar   23  TRP23       0.0152
     52  NE1       20.1250   47.1570  -14.1150 N.ar   23  TRP23      -0.2442
     53  CE2       20.1530   48.4620  -13.6900 C.ar   23  TRP23       0.0810
     54  CE3       21.6170   49.9090  -12.4040 C.ar   23  TRP23       0.0012
     55  CZ2       19.2280   49.4980  -13.8930 C.ar   23  TRP23       0.0191
     56  CZ3       20.7000   50.9340  -12.6060 C.ar   23  TRP23       0.0001
     57  CH2       19.5190   50.7210  -13.3450 C.ar   23  TRP23       0.0015
     58  N         16.8760   39.9220  -15.9390 N.3    28  GLU28      -0.1231
     59  CA        16.0010   41.0920  -16.0920 C.3    28  GLU28       0.1699
     60  C         15.7830   41.4170  -17.5600 C.2    28  GLU28       0.2592
     61  O         14.6790   41.7770  -17.9660 O.2    28  GLU28      -0.2718
     62  CB        16.5700   42.3250  -15.3760 C.3    28  GLU28       0.0402
     63  CG        15.4900   43.3680  -15.0370 C.3    28  GLU28       0.1161
     64  CD        15.0780   44.2430  -16.2260 C.2    28  GLU28       0.3649
     65  OE1       15.9700   44.7080  -16.9590 O.co2  28  GLU28      -0.2457
     66  OE2       13.8520   44.4750  -16.4240 O.co2  28  GLU28      -0.2457
     67  N         16.8760   41.2800  -18.3540 N.am   29  GLN29      -0.1979
     68  CA        16.9350   41.4770  -19.7990 C.3    29  GLN29       0.1601
     69  C         15.8380   40.7170  -20.5530 C.2    29  GLN29       0.2287
     70  O         15.3760   41.1650  -21.5990 O.2    29  GLN29      -0.2864
     71  CB        18.3240   41.0350  -20.2990 C.3    29  GLN29       0.0394
     72  CG        18.6980   41.4140  -21.7220 C.3    29  GLN29       0.0908
     73  CD        20.1490   41.0530  -22.0420 C.2    29  GLN29       0.2608
     74  OE1       20.4010   39.8360  -22.3120 O.2    29  GLN29      -0.2717
     75  NE2       21.0730   41.9240  -21.9560 N.am   29  GLN29      -0.0878
     76  N         12.5560   42.7470  -20.7340 N.3    32  PHE32      -0.1227
     77  CA        12.6720   43.7390  -21.8060 C.3    32  PHE32       0.1736
     78  C         12.5070   43.0950  -23.1910 C.2    32  PHE32       0.2595
     79  O         11.7100   43.5660  -24.0100 O.2    32  PHE32      -0.2718
     80  CB        14.0140   44.4700  -21.7020 C.3    32  PHE32       0.0547
     81  CG        14.2280   45.4730  -22.7910 C.ar   32  PHE32      -0.0202
     82  CD1       13.5860   46.7000  -22.7480 C.ar   32  PHE32      -0.0042
     83  CD2       15.0400   45.1800  -23.8770 C.ar   32  PHE32      -0.0042
     84  CE1       13.7740   47.6470  -23.7630 C.ar   32  PHE32      -0.0003
     85  CE2       15.2210   46.1110  -24.9010 C.ar   32  PHE32      -0.0003
     86  CZ        14.5910   47.3510  -24.8370 C.ar   32  PHE32      -0.0000
     87  N         13.2300   41.9990  -23.4380 N.am   33  LYS33      -0.1980
     88  CA        13.1460   41.3060  -24.7260 C.3    33  LYS33       0.1596
     89  C         11.7550   40.7650  -24.9970 C.2    33  LYS33       0.2287
     90  O         11.2560   40.8620  -26.1210 O.2    33  LYS33      -0.2864
     91  CB        14.1520   40.1480  -24.7990 C.3    33  LYS33       0.0298
     92  CG        15.6060   40.5770  -24.9150 C.3    33  LYS33       0.0038
     93  CD        16.5300   39.3520  -24.9250 C.3    33  LYS33       0.0206
     94  CE        17.9990   39.7650  -24.9640 C.3    33  LYS33       0.1093
     95  NZ        18.9020   38.5740  -24.9910 N.3    33  LYS33      -0.1314
     96  N         20.7300   56.6420  -26.1280 N.3    47  THR47      -0.1218
     97  CA        20.3900   55.2630  -25.7970 C.3    47  THR47       0.1862
     98  C         20.5200   54.3680  -27.0250 C.2    47  THR47       0.2287
     99  O         21.1390   53.2950  -26.9520 O.2    47  THR47      -0.2866
    100  CB        18.9630   55.1640  -25.2220 C.3    47  THR47       0.1770
    101  OG1       18.9410   55.7580  -23.9140 O.3    47  THR47      -0.2211
    102  CG2       18.5260   53.7070  -25.1030 C.3    47  THR47       0.0375
    103  N         24.1290   53.6150  -27.9230 N.3    50  SER50      -0.1202
    104  CA        24.7460   52.8020  -26.8880 C.3    50  SER50       0.2020
    105  C         24.2370   51.3600  -26.8860 C.2    50  SER50       0.2618
    106  O         24.9980   50.4250  -26.6550 O.2    50  SER50      -0.2717
    107  CB        24.4980   53.4400  -25.5220 C.3    50  SER50       0.2103
    108  OG        25.0470   52.6420  -24.4910 O.3    50  SER50      -0.2182
    109  N         22.9360   51.2000  -27.1180 N.am   51  MET51      -0.1979
    110  CA        22.2900   49.8890  -27.1120 C.3    51  MET51       0.1605
    111  C         22.4260   49.1910  -28.4620 C.2    51  MET51       0.2287
    112  O         22.6130   47.9780  -28.5240 O.2    51  MET51      -0.2864
    113  CB        20.8050   50.0350  -26.7340 C.3    51  MET51       0.0413
    114  CG        19.9040   48.8500  -27.1040 C.3    51  MET51       0.0598
    115  SD        18.1320   49.1840  -26.8590 S.3    51  MET51      -0.1393
    116  CE        17.4170   47.6410  -27.4170 C.3    51  MET51       0.0692
    117  N         18.9230   45.9920  -31.6570 N.3    54  LEU54      -0.1245
    118  CA        18.6730   44.5580  -31.5130 C.3    54  LEU54       0.1561
    119  C         17.6970   44.0590  -32.5630 C.2    54  LEU54       0.2260
    120  O         16.7790   44.7840  -32.9620 O.2    54  LEU54      -0.2867
    121  CB        18.0940   44.2290  -30.1450 C.3    54  LEU54       0.0270
    122  CG        18.8060   44.6210  -28.8660 C.3    54  LEU54       0.0019
    123  CD1       18.2980   43.6850  -27.7670 C.3    54  LEU54       0.0001
    124  CD2       20.3310   44.5890  -29.0210 C.3    54  LEU54       0.0001
    125  N         11.3860   53.5940  -24.5140 N.3    97  SER97      -0.1217
    126  CA        12.4300   52.7180  -23.9970 C.3    97  SER97       0.1889
    127  C         13.7190   53.4690  -23.6570 C.2    97  SER97       0.2288
    128  O         14.7960   52.8810  -23.6270 O.2    97  SER97      -0.2866
    129  CB        12.7030   51.5900  -25.0070 C.3    97  SER97       0.2089
    130  OG        11.5140   50.8390  -25.2630 O.3    97  SER97      -0.2183
    131  N         12.3740   59.6410  -21.3240 N.3   103  TYR103     -0.1241
    132  CA        11.4160   59.2480  -20.2790 C.3   103  TYR103      0.1605
    133  C         10.7370   60.4910  -19.6780 C.2   103  TYR103      0.2264
    134  O          9.5100   60.5450  -19.5270 O.2   103  TYR103     -0.2867
    135  CB        12.1090   58.4490  -19.1660 C.3   103  TYR103      0.0534
    136  CG        12.5180   57.0180  -19.4910 C.ar  103  TYR103     -0.0201
    137  CD1       11.6980   56.1680  -20.2240 C.ar  103  TYR103     -0.0009
    138  CD2       13.7230   56.5110  -19.0120 C.ar  103  TYR103     -0.0009
    139  CE1       12.0830   54.8420  -20.4790 C.ar  103  TYR103      0.0417
    140  CE2       14.1170   55.2130  -19.2630 C.ar  103  TYR103      0.0417
    141  CZ        13.3020   54.3840  -19.9830 C.ar  103  TYR103      0.1957
    142  OH        13.7280   53.1090  -20.2040 O.3   103  TYR103     -0.2866
    143  N          6.1030   49.7150  -17.3460 N.3   114  HIS114     -0.1241
    144  CA         6.7980   48.4940  -16.9680 C.3   114  HIS114      0.1621
    145  C          8.0500   48.8920  -16.2220 C.2   114  HIS114      0.2264
    146  O          8.9940   49.4280  -16.8190 O.2   114  HIS114     -0.2867
    147  CB         7.1560   47.6550  -18.1910 C.3   114  HIS114      0.0745
    148  CG         5.9780   47.1970  -18.9690 C.ar  114  HIS114      0.0817
    149  ND1        5.4050   45.9590  -18.7830 N.ar  114  HIS114     -0.2268
    150  CD2        5.2560   47.8110  -19.9380 C.ar  114  HIS114      0.1154
    151  CE1        4.3880   45.8240  -19.6150 C.ar  114  HIS114      0.1986
    152  NE2        4.2720   46.9360  -20.3210 N.ar  114  HIS114     -0.2212
    153  N         11.1180   47.6380  -13.7250 N.3   116  SER116     -0.1217
    154  CA        11.8900   46.6570  -12.9630 C.3   116  SER116      0.1889
    155  C         12.7390   47.3890  -11.9430 C.2   116  SER116      0.2288
    156  O         13.6350   48.1590  -12.3060 O.2   116  SER116     -0.2866
    157  CB        12.7650   45.7990  -13.8780 C.3   116  SER116      0.2089
    158  OG        11.9650   45.0990  -14.8320 O.3   116  SER116     -0.2183
@<TRIPOS>BOND
     1   120   119    2
     2   119   118    1
     3   117   118    1
     4   118   121    1
     5   121   122    1
     6   124   122    1
     7   122   123    1
     8   112   111    2
     9   111   110    1
    10   103   104    1
    11   116   115    1
    12   109   110    1
    13   109   105   am
    14   110   113    1
    15   114   115    1
    16   114   113    1
    17    98    99    2
    18    98    97    1
    19   104   105    1
    20   104   107    1
    21   105   106    2
    22    96    97    1
    23    90    89    2
    24    97   100    1
    25   107   108    1
    26   130   129    1
    27   100   102    1
    28   100   101    1
    29   129   126    1
    30    89    88    1
    31    95    94    1
    32    94    93    1
    33    93    92    1
    34    92    91    1
    35    85    86   ar
    36    85    83   ar
    37    86    84   ar
    38    91    88    1
    39    88    87    1
    40   125   126    1
    41    79    78    2
    42   126   127    1
    43    83    81   ar
    44    84    82   ar
    45   127   128    2
    46    87    78   am
    47    78    77    1
    48    25    26    1
    49    25    22    1
    50    81    82   ar
    51    81    80    1
    52    74    73    2
    53    26    27    1
    54    73    75   am
    55    73    72    1
    56    24    23    2
    57    77    80    1
    58    77    76    1
    59    72    71    1
    60    22    23    1
    61    22    21    1
    62    70    69    2
    63   131   132    1
    64    34    33   ar
    65    23    28   am
    66     7     6    1
    67     7     8    1
    68    27    21    1
    69     5     6    1
    70     5     2    1
    71     1     2    1
    72    69    68    1
    73   139   137   ar
    74   139   141   ar
    75     4     3    2
    76   152   150   ar
    77   152   151   ar
    78    71    68    1
    79   132   133    1
    80   132   135    1
    81   137   136   ar
    82   142   141    1
    83    33    35   ar
    84    33    32    1
    85   141   140   ar
    86     2     3    1
    87    28    29    1
    88   150   148   ar
    89    68    67    1
    90   133   134    2
    91   151   149   ar
    92     3     9   am
    93    29    32    1
    94    29    30    1
    95   136   135    1
    96   136   138   ar
    97    43    41    1
    98   140   138   ar
    99   148   149   ar
   100   148   147    1
   101    41    40    1
   102    36    30   am
   103    36    37    1
   104    30    31    2
   105    67    60   am
   106     9    10    1
   107   147   144    1
   108    61    60    2
   109    40    37    1
   110    40    42    1
   111    10    13    1
   112    10    11    1
   113    60    59    1
   114   143   144    1
   115    37    38    1
   116    13    15    1
   117    13    14    1
   118   144   145    1
   119    65    64   ar
   120   146   145    2
   121    39    38    2
   122    11    16   am
   123    11    12    2
   124    66    64   ar
   125    16    17    1
   126    64    63    1
   127    59    58    1
   128    59    62    1
   129    47    46    2
   130    20    17    1
   131    62    63    1
   132    17    18    1
   133   158   157    1
   134    19    18    2
   135    46    45    1
   136    52    53   ar
   137    52    50   ar
   138    44    45    1
   139    55    53   ar
   140    55    57   ar
   141   157   154    1
   142   153   154    1
   143    53    51   ar
   144    50    49   ar
   145    57    56   ar
   146    45    48    1
   147   154   155    1
   148    51    49   ar
   149    51    54   ar
   150    49    48    1
   151    56    54   ar
   152   156   155    2
