@<TRIPOS>MOLECULE
tmp/5ecdA00.pdb
 91 88 0 0 0
SMALL
GASTEIGER

@<TRIPOS>ATOM
      1  N        -21.7750    4.3840   15.4310 N.3     7  ASP7       -0.1225
      2  CA       -22.2000    3.1580   14.7920 C.3     7  ASP7        0.1805
      3  C        -21.0890    2.6380   13.8770 C.2     7  ASP7        0.2598
      4  O        -20.1520    3.3250   13.6580 O.2     7  ASP7       -0.2718
      5  CB       -23.6180    3.2720   14.2090 C.3     7  ASP7        0.1424
      6  CG       -23.6560    3.4370   12.7440 C.2     7  ASP7        0.3668
      7  OD1      -22.6960    3.9970   12.1820 O.co2   7  ASP7       -0.2456
      8  OD2      -24.6740    2.9950   12.1540 O.co2   7  ASP7       -0.2456
      9  N        -21.2000    1.4210   13.3760 N.am    8  THR8       -0.1939
     10  CA       -20.1030    0.8240   12.6090 C.3     8  THR8        0.2028
     11  C        -19.7290    1.6090   11.3370 C.2     8  THR8        0.2642
     12  O        -18.5330    1.8520   11.0850 O.2     8  THR8       -0.2714
     13  CB       -20.4460   -0.6430   12.2750 C.3     8  THR8        0.1808
     14  OG1      -20.7530   -1.3120   13.5080 O.3     8  THR8       -0.2208
     15  CG2      -19.2500   -1.3470   11.6390 C.3     8  THR8        0.0379
     16  N        -20.7280    2.0350   10.5670 N.am    9  ASN9       -0.1971
     17  CA       -20.4720    2.7850    9.3420 C.3     9  ASN9        0.1688
     18  C        -19.7150    4.0650    9.6390 C.2     9  ASN9        0.2292
     19  O        -18.7950    4.4200    8.9080 O.2     9  ASN9       -0.2864
     20  CB       -21.7720    3.1340    8.5980 C.3     9  ASN9        0.1181
     21  CG       -22.4020    1.9370    7.9110 C.2     9  ASN9        0.2629
     22  OD1      -21.7050    1.0220    7.4660 O.2     9  ASN9       -0.2716
     23  ND2      -23.7320    1.9420    7.8180 N.am    9  ASN9       -0.0877
     24  N        -16.0950    3.4200   10.0900 N.3    12  ILE12      -0.1245
     25  CA       -15.4800    3.1260    8.7990 C.3    12  ILE12       0.1561
     26  C        -15.2410    4.4120    7.9960 C.2    12  ILE12       0.2260
     27  O        -14.1350    4.6320    7.4570 O.2    12  ILE12      -0.2867
     28  CB       -16.3660    2.1350    7.9990 C.3    12  ILE12       0.0252
     29  CG1      -16.3130    0.7510    8.6630 C.3    12  ILE12       0.0019
     30  CG2      -15.9380    2.0680    6.5330 C.3    12  ILE12       0.0019
     31  CD1      -17.4570   -0.1730    8.2500 C.3    12  ILE12       0.0001
     32  N        -18.3770   -6.0790   14.5670 N.3    42  GLU42      -0.1245
     33  CA       -18.6080   -5.8370   13.1400 C.3    42  GLU42       0.1567
     34  C        -17.3240   -5.3970   12.4240 C.2    42  GLU42       0.2260
     35  O        -17.0680   -5.8090   11.2870 O.2    42  GLU42      -0.2867
     36  CB       -19.6980   -4.7830   12.9390 C.3    42  GLU42       0.0388
     37  CG       -21.0640   -5.2670   13.3860 C.3    42  GLU42       0.1160
     38  CD       -22.1660   -4.4570   12.7730 C.2    42  GLU42       0.3649
     39  OE1      -22.3270   -3.2730   13.1440 O.co2  42  GLU42      -0.2457
     40  OE2      -22.8600   -5.0070   11.9040 O.co2  42  GLU42      -0.2457
     41  N        -15.0000   -8.4240   12.0180 N.3    45  TYR45      -0.1241
     42  CA       -15.5390   -9.2440   10.9320 C.3    45  TYR45       0.1605
     43  C        -15.1150   -8.6800    9.5730 C.2    45  TYR45       0.2264
     44  O        -14.6810   -9.4180    8.6920 O.2    45  TYR45      -0.2867
     45  CB       -17.0680   -9.3370   11.0460 C.3    45  TYR45       0.0534
     46  CG       -17.7800   -9.9340    9.8520 C.ar   45  TYR45      -0.0201
     47  CD1      -17.4390  -11.1950    9.3610 C.ar   45  TYR45      -0.0009
     48  CD2      -18.8280   -9.2570    9.2410 C.ar   45  TYR45      -0.0009
     49  CE1      -18.1010  -11.7440    8.2740 C.ar   45  TYR45       0.0417
     50  CE2      -19.5010   -9.8040    8.1520 C.ar   45  TYR45       0.0417
     51  CZ       -19.1340  -11.0410    7.6730 C.ar   45  TYR45       0.1957
     52  OH       -19.8050  -11.5820    6.5940 O.3    45  TYR45      -0.2866
     53  N        -32.2090   -4.2410   12.0000 N.3    95  GLY95      -0.1210
     54  CA       -31.2810   -5.3580   11.9080 C.3    95  GLY95       0.1940
     55  C        -30.7760   -5.7800   13.2760 C.2    95  GLY95       0.2454
     56  O        -30.7670   -4.9960   14.1920 O.2    95  GLY95      -0.2732
     57  N        -30.3380   -7.0370   13.4110 N.am   96  PRO96      -0.2717
     58  CA       -30.0280   -7.5640   14.7410 C.3    96  PRO96       0.1535
     59  C        -28.9180   -6.8110   15.4800 C.2    96  PRO96       0.2599
     60  O        -29.0730   -6.5170   16.6680 O.2    96  PRO96      -0.2715
     61  CB       -29.6160   -9.0220   14.4510 C.3    96  PRO96       0.0310
     62  CG       -29.1980   -9.0230   13.0180 C.3    96  PRO96       0.0237
     63  CD       -30.0910   -8.0170   12.3430 C.3    96  PRO96       0.0939
     64  N        -27.8120   -6.4950   14.8130 N.am   97  PHE97      -0.1960
     65  CA       -26.7310   -5.8400   15.5270 C.3    97  PHE97       0.1771
     66  C        -27.0780   -4.3900   15.8290 C.2    97  PHE97       0.2619
     67  O        -26.6590   -3.8530   16.8600 O.2    97  PHE97      -0.2715
     68  CB       -25.4290   -5.9590   14.7320 C.3    97  PHE97       0.0574
     69  CG       -25.0650   -7.3890   14.4270 C.ar   97  PHE97      -0.0200
     70  CD1      -25.1010   -8.3500   15.4310 C.ar   97  PHE97      -0.0042
     71  CD2      -24.7680   -7.7860   13.1320 C.ar   97  PHE97      -0.0042
     72  CE1      -24.7930   -9.6750   15.1430 C.ar   97  PHE97      -0.0003
     73  CE2      -24.4690   -9.1000   12.8390 C.ar   97  PHE97      -0.0003
     74  CZ       -24.4860  -10.0490   13.8420 C.ar   97  PHE97      -0.0000
     75  N        -27.8510   -3.7620   14.9460 N.am   98  ASN98      -0.1972
     76  CA       -28.2930   -2.3900   15.1850 C.3    98  ASN98       0.1688
     77  C        -29.2500   -2.3110   16.3860 C.2    98  ASN98       0.2292
     78  O        -29.2190   -1.3490   17.1400 O.2    98  ASN98      -0.2864
     79  CB       -28.9740   -1.8230   13.9380 C.3    98  ASN98       0.1181
     80  CG       -27.9960   -1.5170   12.8290 C.2    98  ASN98       0.2629
     81  OD1      -26.7990   -1.3760   13.0670 O.2    98  ASN98      -0.2716
     82  ND2      -28.4960   -1.4580   11.5970 N.am   98  ASN98      -0.0877
     83  N        -33.6620    3.8700   10.2000 N.3   119  GLU119     -0.1245
     84  CA       -33.7410    2.5730   10.8530 C.3   119  GLU119      0.1567
     85  C        -33.6270    2.7610   12.3670 C.2   119  GLU119      0.2260
     86  O        -34.4570    2.2450   13.1210 O.2   119  GLU119     -0.2867
     87  CB       -32.6650    1.6330   10.3190 C.3   119  GLU119      0.0388
     88  CG       -32.7350    0.2520   10.9220 C.3   119  GLU119      0.1160
     89  CD       -31.7060   -0.7030   10.3570 C.2   119  GLU119      0.3649
     90  OE1      -31.2350   -0.4750    9.2290 O.co2 119  GLU119     -0.2457
     91  OE2      -31.3660   -1.6810   11.0550 O.co2 119  GLU119     -0.2457
@<TRIPOS>BOND
     1    30    28    1
     2    52    51    1
     3    27    26    2
     4    22    21    2
     5    51    50   ar
     6    51    49   ar
     7    23    21   am
     8    21    20    1
     9    26    25    1
    10    28    29    1
    11    28    25    1
    12    50    48   ar
    13    31    29    1
    14    49    47   ar
    15    20    17    1
    16    44    43    2
    17    25    24    1
    18    19    18    2
    19    90    89   ar
    20    48    46   ar
    21    17    18    1
    22    17    16    1
    23    47    46   ar
    24    43    42    1
    25    46    45    1
    26    83    84    1
    27    87    84    1
    28    87    88    1
    29    89    88    1
    30    89    91   ar
    31    16    11   am
    32    84    85    1
    33    42    45    1
    34    42    41    1
    35    12    11    2
    36    35    34    2
    37    11    10    1
    38    82    80   am
    39    15    13    1
    40    40    38   ar
    41    54    53    1
    42    54    55    1
    43     8     6   ar
    44     7     6   ar
    45    13    10    1
    46    13    14    1
    47    63    62    1
    48    63    57    1
    49    85    86    2
    50    34    33    1
    51    10     9    1
    52     6     5    1
    53    38    39   ar
    54    38    37    1
    55    80    81    2
    56    80    79    1
    57    73    71   ar
    58    73    74   ar
    59    36    33    1
    60    36    37    1
    61    62    61    1
    62    71    69   ar
    63    33    32    1
    64    55    57   am
    65    55    56    2
    66     9     3   am
    67    57    58    1
    68     4     3    2
    69    74    72   ar
    70     3     2    1
    71    79    76    1
    72     5     2    1
    73    69    68    1
    74    69    70   ar
    75    61    58    1
    76    68    65    1
    77    58    59    1
    78     2     1    1
    79    64    59   am
    80    64    65    1
    81    75    76    1
    82    75    66   am
    83    72    70   ar
    84    76    77    1
    85    59    60    2
    86    65    66    1
    87    66    67    2
    88    77    78    2
