@<TRIPOS>MOLECULE
tmp/5eceB00.pdb
 182 180 0 0 0
SMALL
GASTEIGER

@<TRIPOS>ATOM
      1  N         19.3240  -17.1050    4.0420 N.3    80  PHE80      -0.1227
      2  CA        19.4500  -18.4150    3.3950 C.3    80  PHE80       0.1736
      3  C         20.6140  -18.4720    2.4230 C.2    80  PHE80       0.2595
      4  O         20.9660  -17.4680    1.8000 O.2    80  PHE80      -0.2718
      5  CB        18.1270  -18.8170    2.6940 C.3    80  PHE80       0.0547
      6  CG        16.9580  -18.9970    3.6310 C.ar   80  PHE80      -0.0202
      7  CD1       16.7990  -20.1760    4.3580 C.ar   80  PHE80      -0.0042
      8  CD2       16.0310  -17.9770    3.8140 C.ar   80  PHE80      -0.0042
      9  CE1       15.7420  -20.3200    5.2730 C.ar   80  PHE80      -0.0003
     10  CE2       14.9640  -18.1260    4.7120 C.ar   80  PHE80      -0.0003
     11  CZ        14.8320  -19.2940    5.4410 C.ar   80  PHE80      -0.0000
     12  N         21.1910  -19.6600    2.2710 N.am   81  HIS81      -0.1961
     13  CA        22.2380  -19.9120    1.2870 C.3    81  HIS81       0.1787
     14  C         22.0500  -21.3230    0.7150 C.2    81  HIS81       0.2621
     15  O         22.0160  -22.2790    1.4730 O.2    81  HIS81      -0.2715
     16  CB        23.6530  -19.7490    1.8870 C.3    81  HIS81       0.0785
     17  CG        24.7480  -19.9380    0.8810 C.ar   81  HIS81       0.0821
     18  ND1       25.1970  -18.8850    0.0900 N.ar   81  HIS81      -0.2267
     19  CD2       25.4240  -21.0600    0.5410 C.ar   81  HIS81       0.1154
     20  CE1       26.1260  -19.4050   -0.6930 C.ar   81  HIS81       0.1986
     21  NE2       26.2930  -20.7090   -0.4580 N.ar   81  HIS81      -0.2212
     22  N         21.9720  -21.4300   -0.6110 N.am   82  GLY82      -0.1940
     23  CA        21.8960  -22.6990   -1.3340 C.3    82  GLY82       0.2014
     24  C         23.1370  -22.8860   -2.1890 C.2    82  GLY82       0.2639
     25  O         23.5570  -21.9570   -2.8900 O.2    82  GLY82      -0.2714
     26  N         23.7600  -24.0740   -2.1150 N.am   83  SER83      -0.1949
     27  CA        24.9720  -24.4240   -2.8620 C.3    83  SER83       0.1924
     28  C         25.1950  -25.9530   -2.9300 C.2    83  SER83       0.2314
     29  O         24.8700  -26.6720   -1.9790 O.2    83  SER83      -0.2863
     30  CB        26.2020  -23.7420   -2.2380 C.3    83  SER83       0.2116
     31  OG        27.4290  -24.4110   -2.4890 O.3    83  SER83      -0.2180
     32  N         27.9860  -27.2200   -2.5500 N.3    85  PHE85      -0.1241
     33  CA        29.1730  -27.3770   -1.7370 C.3    85  PHE85       0.1605
     34  C         28.9190  -27.2210   -0.2050 C.2    85  PHE85       0.2264
     35  O         29.8430  -26.8840    0.5160 O.2    85  PHE85      -0.2867
     36  CB        30.2810  -26.4340   -2.2620 C.3    85  PHE85       0.0534
     37  CG        30.5370  -26.6580   -3.7390 C.ar   85  PHE85      -0.0203
     38  CD1       31.2260  -27.7860   -4.1820 C.ar   85  PHE85      -0.0042
     39  CD2       30.0130  -25.7860   -4.6920 C.ar   85  PHE85      -0.0042
     40  CE1       31.4100  -28.0180   -5.5470 C.ar   85  PHE85      -0.0003
     41  CE2       30.1880  -26.0230   -6.0520 C.ar   85  PHE85      -0.0003
     42  CZ        30.8890  -27.1320   -6.4740 C.ar   85  PHE85      -0.0000
     43  N         31.5790  -28.8120    2.1240 N.3    88  ALA88      -0.1231
     44  CA        32.7930  -28.0170    2.3180 C.3    88  ALA88       0.1694
     45  C         32.4970  -26.8210    3.2490 C.2    88  ALA88       0.2591
     46  O         33.3310  -26.5060    4.0990 O.2    88  ALA88      -0.2718
     47  CB        33.3350  -27.5390    0.9750 C.3    88  ALA88       0.0304
     48  N         31.3070  -26.1950    3.1240 N.am   89  ILE89      -0.1980
     49  CA        30.9260  -25.0330    3.9570 C.3    89  ILE89       0.1595
     50  C         30.8150  -25.3730    5.4460 C.2    89  ILE89       0.2287
     51  O         31.3430  -24.6290    6.2690 O.2    89  ILE89      -0.2864
     52  CB        29.6480  -24.2940    3.4470 C.3    89  ILE89       0.0276
     53  CG1       29.8810  -23.6790    2.0360 C.3    89  ILE89       0.0022
     54  CG2       29.2260  -23.2010    4.4450 C.3    89  ILE89       0.0022
     55  CD1       28.5540  -23.5040    1.1930 C.3    89  ILE89       0.0001
     56  N         34.0070  -23.7510    6.3790 N.3    93  GLY93      -0.1210
     57  CA        33.3600  -22.4390    6.4130 C.3    93  GLY93       0.1956
     58  C         33.2340  -21.8210    5.0330 C.2    93  GLY93       0.2612
     59  O         33.7110  -22.3860    4.0290 O.2    93  GLY93      -0.2717
     60  N         32.5660  -20.6520    4.9760 N.am   94  PHE94      -0.1962
     61  CA        32.4130  -19.8720    3.7410 C.3    94  PHE94       0.1771
     62  C         33.7740  -19.2960    3.3560 C.2    94  PHE94       0.2619
     63  O         34.5290  -18.8720    4.2310 O.2    94  PHE94      -0.2715
     64  CB        31.3770  -18.7430    3.9130 C.3    94  PHE94       0.0574
     65  CG        29.9330  -19.2230    3.9830 C.ar   94  PHE94      -0.0200
     66  CD1       29.2180  -19.5010    2.8210 C.ar   94  PHE94      -0.0042
     67  CD2       29.3070  -19.4260    5.2120 C.ar   94  PHE94      -0.0042
     68  CE1       27.8930  -19.9160    2.8910 C.ar   94  PHE94      -0.0003
     69  CE2       27.9760  -19.8180    5.2840 C.ar   94  PHE94      -0.0003
     70  CZ        27.2820  -20.0780    4.1200 C.ar   94  PHE94      -0.0000
     71  N         34.1140  -19.3370    2.0650 N.am   95  ASP95      -0.1971
     72  CA        35.3850  -18.8530    1.5690 C.3    95  ASP95       0.1709
     73  C         35.1550  -17.9770    0.3340 C.2    95  ASP95       0.2293
     74  O         34.7170  -18.4910   -0.7100 O.2    95  ASP95      -0.2864
     75  CB        36.2720  -20.0620    1.2360 C.3    95  ASP95       0.1436
     76  CG        37.7290  -19.7400    0.9640 C.2    95  ASP95       0.3671
     77  OD1       38.0500  -18.5450    0.7610 O.co2  95  ASP95      -0.2456
     78  OD2       38.5520  -20.6720    0.9960 O.co2  95  ASP95      -0.2456
     79  N         36.2170  -18.6720   -3.5450 N.3    98  HIS98      -0.1226
     80  CA        35.3720  -19.4610   -4.4430 C.3    98  HIS98       0.1752
     81  C         34.3050  -18.6230   -5.1520 C.2    98  HIS98       0.2595
     82  O         33.6220  -19.1480   -6.0310 O.2    98  HIS98      -0.2718
     83  CB        34.7140  -20.6410   -3.7040 C.3    98  HIS98       0.0759
     84  CG        35.6790  -21.7320   -3.3560 C.ar   98  HIS98       0.0818
     85  ND1       35.9760  -22.0400   -2.0380 N.ar   98  HIS98      -0.2268
     86  CD2       36.4160  -22.5330   -4.1710 C.ar   98  HIS98       0.1154
     87  CE1       36.8810  -23.0110   -2.0910 C.ar   98  HIS98       0.1986
     88  NE2       37.1850  -23.3350   -3.3520 N.ar   98  HIS98      -0.2212
     89  N         34.1600  -17.3290   -4.7920 N.am   99  ALA99      -0.1980
     90  CA        33.1760  -16.4310   -5.4050 C.3    99  ALA99       0.1597
     91  C         33.6580  -15.9260   -6.7620 C.2    99  ALA99       0.2287
     92  O         33.8080  -16.7150   -7.6920 O.2    99  ALA99      -0.2864
     93  CB        32.9150  -15.2610   -4.4940 C.3    99  ALA99       0.0319
     94  N         32.5130  -10.4860   -7.4370 N.3   100  ALA100     -0.1231
     95  CA        32.8850  -11.3760   -6.3470 C.3   100  ALA100      0.1694
     96  C         31.8320  -11.3500   -5.2350 C.2   100  ALA100      0.2593
     97  O         30.7250  -10.8440   -5.4560 O.2   100  ALA100     -0.2718
     98  CB        34.2380  -10.9760   -5.8010 C.3   100  ALA100      0.0304
     99  N         32.1640  -11.8990   -4.0680 N.am  101  GLY101     -0.1942
    100  CA        31.2260  -11.9300   -2.9610 C.3   101  GLY101      0.2014
    101  C         30.4820  -13.2280   -2.7440 C.2   101  GLY101      0.2639
    102  O         30.2810  -14.0130   -3.6670 O.2   101  GLY101     -0.2714
    103  N         30.0840  -13.4520   -1.4930 N.am  102  ILE102     -0.1963
    104  CA        29.2760  -14.5960   -1.0540 C.3   102  ILE102      0.1727
    105  C         27.8600  -14.0520   -0.9370 C.2   102  ILE102      0.2616
    106  O         27.6480  -13.0390   -0.2760 O.2   102  ILE102     -0.2715
    107  CB        29.8130  -15.2490    0.2470 C.3   102  ILE102      0.0290
    108  CG1       31.3370  -15.5070    0.1600 C.3   102  ILE102      0.0022
    109  CG2       29.0330  -16.5360    0.5760 C.3   102  ILE102      0.0023
    110  CD1       32.0490  -15.3990    1.4570 C.3   102  ILE102      0.0001
    111  N         26.9160  -14.6990   -1.6220 N.am  103  TYR103     -0.1960
    112  CA        25.5110  -14.3040   -1.7500 C.3   103  TYR103      0.1771
    113  C         24.5580  -15.0710   -0.8560 C.2   103  TYR103      0.2620
    114  O         24.6460  -16.2950   -0.7190 O.2   103  TYR103     -0.2715
    115  CB        25.0440  -14.4580   -3.2360 C.3   103  TYR103      0.0574
    116  CG        25.6360  -13.4380   -4.1820 C.ar  103  TYR103     -0.0198
    117  CD1       26.9860  -13.4700   -4.5200 C.ar  103  TYR103     -0.0009
    118  CD2       24.8380  -12.4690   -4.7850 C.ar  103  TYR103     -0.0009
    119  CE1       27.5420  -12.5200   -5.3730 C.ar  103  TYR103      0.0417
    120  CE2       25.3750  -11.5440   -5.6820 C.ar  103  TYR103      0.0417
    121  CZ        26.7340  -11.5610   -5.9560 C.ar  103  TYR103      0.1957
    122  OH        27.2900  -10.6240   -6.7810 O.3   103  TYR103     -0.2866
    123  N         23.6240  -14.3290   -0.2580 N.am  104  PHE104     -0.1960
    124  CA        22.5800  -14.8470    0.6150 C.3   104  PHE104      0.1771
    125  C         21.2680  -14.2230    0.1930 C.2   104  PHE104      0.2619
    126  O         21.2510  -13.1200   -0.3850 O.2   104  PHE104     -0.2715
    127  CB        22.8610  -14.4770    2.0880 C.3   104  PHE104      0.0574
    128  CG        24.1190  -15.1240    2.6200 C.ar  104  PHE104     -0.0200
    129  CD1       25.3620  -14.5060    2.4520 C.ar  104  PHE104     -0.0042
    130  CD2       24.0610  -16.3560    3.2830 C.ar  104  PHE104     -0.0042
    131  CE1       26.5240  -15.1210    2.8950 C.ar  104  PHE104     -0.0003
    132  CE2       25.2260  -16.9600    3.7670 C.ar  104  PHE104     -0.0003
    133  CZ        26.4480  -16.3430    3.5630 C.ar  104  PHE104     -0.0000
    134  N         20.1700  -14.9060    0.5350 N.am  105  ALA105     -0.1977
    135  CA        18.8190  -14.4700    0.2110 C.3   105  ALA105      0.1597
    136  C         17.9290  -14.4130    1.4670 C.2   105  ALA105      0.2287
    137  O         18.0880  -15.2220    2.3870 O.2   105  ALA105     -0.2864
    138  CB        18.2120  -15.4120   -0.8320 C.3   105  ALA105      0.0319
    139  N         14.5470  -18.3310   -3.3290 N.3   110  LYS110     -0.1231
    140  CA        15.6430  -17.8240   -4.1540 C.3   110  LYS110      0.1693
    141  C         16.8600  -18.7500   -3.9920 C.2   110  LYS110      0.2592
    142  O         17.4400  -19.1670   -5.0050 O.2   110  LYS110     -0.2718
    143  CB        15.9940  -16.3630   -3.8030 C.3   110  LYS110      0.0285
    144  CG        17.1970  -15.7690   -4.5580 C.3   110  LYS110      0.0035
    145  CD        16.8750  -15.4780   -6.0390 C.3   110  LYS110      0.0206
    146  CE        18.1130  -15.2050   -6.8460 C.3   110  LYS110      0.1093
    147  NZ        17.8600  -15.3470   -8.2950 N.3   110  LYS110     -0.1314
    148  N         17.2240  -19.1030   -2.7300 N.am  111  SER111     -0.1952
    149  CA        18.3440  -20.0030   -2.4160 C.3   111  SER111      0.1924
    150  C         18.1340  -21.4120   -2.9850 C.2   111  SER111      0.2314
    151  O         19.0910  -22.0290   -3.4360 O.2   111  SER111     -0.2863
    152  CB        18.5720  -20.0490   -0.9140 C.3   111  SER111      0.2116
    153  OG        19.0220  -18.7800   -0.4780 O.3   111  SER111     -0.2180
    154  N         19.7110  -22.4310   -6.3410 N.3   114  TYR114     -0.1241
    155  CA        21.1700  -22.6180   -6.3430 C.3   114  TYR114      0.1605
    156  C         21.6710  -23.9060   -5.7060 C.2   114  TYR114      0.2264
    157  O         22.8630  -24.2110   -5.7670 O.2   114  TYR114     -0.2867
    158  CB        21.8170  -21.4130   -5.6510 C.3   114  TYR114      0.0534
    159  CG        21.5910  -20.1400   -6.4170 C.ar  114  TYR114     -0.0201
    160  CD1       22.3100  -19.8680   -7.5790 C.ar  114  TYR114     -0.0009
    161  CD2       20.5990  -19.2440   -6.0390 C.ar  114  TYR114     -0.0009
    162  CE1       22.0890  -18.7080   -8.3100 C.ar  114  TYR114      0.0417
    163  CE2       20.3510  -18.0870   -6.7810 C.ar  114  TYR114      0.0417
    164  CZ        21.1090  -17.8180   -7.9090 C.ar  114  TYR114      0.1957
    165  OH        20.8910  -16.6870   -8.6590 O.3   114  TYR114     -0.2866
    166  N         24.3340  -23.1810  -10.3560 N.3   118  ILE118     -0.1245
    167  CA        23.8780  -21.9340  -10.9840 C.3   118  ILE118      0.1561
    168  C         22.7920  -22.2740  -12.0080 C.2   118  ILE118      0.2260
    169  O         22.9980  -23.1420  -12.8470 O.2   118  ILE118     -0.2867
    170  CB        25.0760  -21.1270  -11.5760 C.3   118  ILE118      0.0252
    171  CG1       25.8950  -20.4780  -10.4400 C.3   118  ILE118      0.0019
    172  CG2       24.6260  -20.0770  -12.5930 C.3   118  ILE118      0.0019
    173  CD1       27.1800  -21.1920  -10.2150 C.3   118  ILE118      0.0001
    174  N         19.2570   -9.2530   -2.7380 N.3   176  GLU176     -0.1196
    175  CA        20.4370  -10.1160   -2.6590 C.3   176  GLU176      0.1783
    176  C         21.3420   -9.4620   -1.6280 C.2   176  GLU176      0.2306
    177  O         21.5050   -8.2390   -1.6350 O.2   176  GLU176     -0.2863
    178  CB        21.1860  -10.1560   -4.0080 C.2   176  GLU176      0.0071
    179  CG        20.5950  -11.0760   -5.0620 C.2   176  GLU176      0.0834
    180  CD        21.3890  -11.2350   -6.3540 C.2   176  GLU176      0.3877
    181  OE1       21.1940  -12.2640   -7.0400 O.co2 176  GLU176     -0.2406
    182  OE2       22.1990  -10.3390   -6.6890 O.co2 176  GLU176     -0.2406
@<TRIPOS>BOND
     1   169   168    2
     2   172   170    1
     3   168   167    1
     4   170   167    1
     5   170   171    1
     6   167   166    1
     7   171   173    1
     8   165   164    1
     9   162   164   ar
    10   162   160   ar
    11   147   146    1
    12   164   163   ar
    13    92    91    2
    14   160   159   ar
    15    94    95    1
    16   181   180   ar
    17   146   145    1
    18   163   161   ar
    19   122   121    1
    20    91    90    1
    21   182   180   ar
    22    42    41   ar
    23    42    40   ar
    24   159   161   ar
    25   159   158    1
    26   180   179    1
    27    95    98    1
    28    95    96    1
    29   155   154    1
    30   155   156    1
    31   155   158    1
    32    41    39   ar
    33   145   144    1
    34    82    81    2
    35   121   120   ar
    36   121   119   ar
    37   157   156    2
    38   120   118   ar
    39    40    38   ar
    40    97    96    2
    41    90    89    1
    42    90    93    1
    43   119   117   ar
    44    96    99   am
    45    81    89   am
    46    81    80    1
    47   179   178    2
    48   142   141    2
    49   118   116   ar
    50    39    37   ar
    51   144   143    1
    52   117   116   ar
    53    80    83    1
    54    80    79    1
    55    38    37   ar
    56   116   115    1
    57    86    84   ar
    58    86    88   ar
    59   140   141    1
    60   140   143    1
    61   140   139    1
    62    99   100    1
    63   178   175    1
    64   141   148   am
    65    37    36    1
    66    83    84    1
    67   102   101    2
    68   151   150    2
    69    84    85   ar
    70    88    87   ar
    71   115   112    1
    72   150   149    1
    73   100   101    1
    74    28    27    1
    75    28    29    2
    76    25    24    2
    77    27    30    1
    78    27    26    1
    79   101   103   am
    80   174   175    1
    81   148   149    1
    82   175   176    1
    83    32    33    1
    84    31    30    1
    85   149   152    1
    86    36    33    1
    87    24    26   am
    88    24    23    1
    89    87    85   ar
    90   112   111    1
    91   112   113    1
    92    33    34    1
    93   177   176    2
    94   111   105   am
    95   103   104    1
    96    23    22    1
    97   104   105    1
    98   104   107    1
    99   105   106    2
   100   152   153    1
   101   113   114    2
   102   113   123   am
   103   138   135    1
   104    74    73    2
   105    20    21   ar
   106    20    18   ar
   107    22    14   am
   108    21    19   ar
   109   126   125    2
   110   123   124    1
   111    34    35    2
   112    18    17   ar
   113   108   107    1
   114   108   110    1
   115   125   134   am
   116   125   124    1
   117   135   134    1
   118   135   136    1
   119   107   109    1
   120    73    72    1
   121    19    17   ar
   122   124   127    1
   123    14    13    1
   124    14    15    2
   125    77    76   ar
   126    17    16    1
   127    76    78   ar
   128    76    75    1
   129    47    44    1
   130    55    53    1
   131    75    72    1
   132    13    16    1
   133    13    12    1
   134   136   137    2
   135    72    71    1
   136     4     3    2
   137    53    52    1
   138    71    62   am
   139   127   128    1
   140    43    44    1
   141    12     3   am
   142    44    45    1
   143     3     2    1
   144   129   128   ar
   145   129   131   ar
   146   128   130   ar
   147     5     2    1
   148     5     6    1
   149    66    68   ar
   150    66    65   ar
   151    68    70   ar
   152   131   133   ar
   153    48    45   am
   154    48    49    1
   155    45    46    2
   156   130   132   ar
   157    62    61    1
   158    62    63    2
   159     2     1    1
   160    52    49    1
   161    52    54    1
   162   133   132   ar
   163     6     8   ar
   164     6     7   ar
   165    61    64    1
   166    61    60    1
   167     8    10   ar
   168    64    65    1
   169    49    50    1
   170    65    67   ar
   171    59    58    2
   172    70    69   ar
   173     7     9   ar
   174    10    11   ar
   175    60    58   am
   176    58    57    1
   177    67    69   ar
   178     9    11   ar
   179    50    51    2
   180    56    57    1
