@<TRIPOS>MOLECULE
tmp/5ecfI01.pdb
 207 187 0 0 0
SMALL
GASTEIGER

@<TRIPOS>ATOM
      1  N         -1.4300   13.2840  -55.9600 N.3     9  LEU9       -0.1245
      2  CA        -0.9380   12.9200  -54.6370 C.3     9  LEU9        0.1561
      3  C         -1.9560   12.0630  -53.8480 C.2     9  LEU9        0.2260
      4  O         -1.5990   11.0600  -53.2570 O.2     9  LEU9       -0.2867
      5  CB        -0.5920   14.1720  -53.8570 C.3     9  LEU9        0.0270
      6  CG         0.1130   13.9860  -52.4910 C.3     9  LEU9        0.0019
      7  CD1        1.5100   13.4750  -52.7220 C.3     9  LEU9        0.0001
      8  CD2        0.1240   15.2900  -51.7290 C.3     9  LEU9        0.0001
      9  N         -2.2630    8.6260  -55.3670 N.3    12  ILE12      -0.1245
     10  CA        -1.1240    7.7830  -55.0460 C.3    12  ILE12       0.1561
     11  C         -1.1800    7.3720  -53.5870 C.2    12  ILE12       0.2260
     12  O         -1.0080    6.2180  -53.2630 O.2    12  ILE12      -0.2867
     13  CB         0.1930    8.4930  -55.3460 C.3    12  ILE12       0.0252
     14  CG1        0.3190    8.7090  -56.8660 C.3    12  ILE12       0.0019
     15  CG2        1.3830    7.6830  -54.8230 C.3    12  ILE12       0.0019
     16  CD1        1.5640    9.4810  -57.2960 C.3    12  ILE12       0.0001
     17  N         -1.4600    3.6070  -51.9310 N.3    16  VAL16      -0.1245
     18  CA        -0.4710    3.1670  -50.9400 C.3    16  VAL16       0.1561
     19  C         -1.1300    2.7870  -49.6210 C.2    16  VAL16       0.2260
     20  O         -0.7710    1.7930  -49.0110 O.2    16  VAL16      -0.2867
     21  CB         0.6130    4.2470  -50.6930 C.3    16  VAL16       0.0252
     22  CG1        1.6380    3.7670  -49.6520 C.3    16  VAL16       0.0019
     23  CG2        1.3160    4.5860  -51.9890 C.3    16  VAL16       0.0019
     24  N         -2.7310   -0.5590  -49.9110 N.3    19  PHE19      -0.1241
     25  CA        -1.6970   -1.5890  -49.8710 C.3    19  PHE19       0.1605
     26  C         -1.2250   -1.8430  -48.4600 C.2    19  PHE19       0.2264
     27  O         -1.1040   -2.9620  -48.0470 O.2    19  PHE19      -0.2867
     28  CB        -0.5310   -1.1770  -50.7320 C.3    19  PHE19       0.0534
     29  CG         0.5180   -2.2090  -50.8470 C.ar   19  PHE19      -0.0203
     30  CD1        0.2210   -3.4590  -51.3600 C.ar   19  PHE19      -0.0042
     31  CD2        1.8130   -1.9400  -50.4880 C.ar   19  PHE19      -0.0042
     32  CE1        1.2080   -4.4140  -51.5410 C.ar   19  PHE19      -0.0003
     33  CE2        2.8080   -2.8830  -50.6870 C.ar   19  PHE19      -0.0003
     34  CZ         2.4960   -4.1310  -51.1950 C.ar   19  PHE19      -0.0000
     35  N         -2.4180   -8.3620  -52.9610 N.3    34  LEU34      -0.1231
     36  CA        -1.2930   -7.4610  -52.6650 C.3    34  LEU34       0.1693
     37  C         -0.5220   -7.0800  -53.9150 C.2    34  LEU34       0.2591
     38  O         -0.1420   -5.9450  -54.0850 O.2    34  LEU34      -0.2718
     39  CB        -0.3370   -8.1070  -51.7000 C.3    34  LEU34       0.0284
     40  CG        -0.8940   -8.3990  -50.3030 C.3    34  LEU34       0.0019
     41  CD1        0.1780   -9.0620  -49.4550 C.3    34  LEU34       0.0001
     42  CD2       -1.3950   -7.1290  -49.6320 C.3    34  LEU34       0.0001
     43  N         -0.2970   -8.0490  -54.7910 N.am   35  ILE35      -0.1980
     44  CA         0.3540   -7.7650  -56.0750 C.3    35  ILE35       0.1595
     45  C         -0.5410   -6.8640  -56.9070 C.2    35  ILE35       0.2287
     46  O         -0.0500   -5.9710  -57.5640 O.2    35  ILE35      -0.2864
     47  CB         0.7570   -9.0420  -56.8630 C.3    35  ILE35       0.0276
     48  CG1        2.1540   -9.5550  -56.3050 C.3    35  ILE35       0.0022
     49  CG2        1.1090   -8.7410  -58.2860 C.3    35  ILE35       0.0022
     50  CD1        2.1560  -10.8040  -55.4910 C.3    35  ILE35       0.0001
     51  N         -0.1230   -3.4660  -55.4800 N.3    38  GLY38      -0.1225
     52  CA         1.1270   -2.9200  -56.0180 C.3    38  GLY38       0.1811
     53  C          0.9420   -2.3380  -57.4060 C.2    38  GLY38       0.2280
     54  O          1.4250   -1.2320  -57.7140 O.2    38  GLY38      -0.2866
     55  N         -0.7380    0.9730  -57.4590 N.3    41  ILE41      -0.1231
     56  CA         0.1840    2.0560  -57.0840 C.3    41  ILE41       0.1692
     57  C          1.0050    2.5090  -58.2930 C.2    41  ILE41       0.2591
     58  O          1.0820    3.6990  -58.5930 O.2    41  ILE41      -0.2718
     59  CB         1.1580    1.6370  -55.9540 C.3    41  ILE41       0.0266
     60  CG1        0.3830    1.3430  -54.6530 C.3    41  ILE41       0.0019
     61  CG2        2.1710    2.7460  -55.6920 C.3    41  ILE41       0.0020
     62  CD1        1.2380    0.7430  -53.5500 C.3    41  ILE41       0.0001
     63  N          1.6180    1.5430  -58.9720 N.am   42  ILE42      -0.1980
     64  CA         2.3850    1.8100  -60.2010 C.3    42  ILE42       0.1595
     65  C          1.5320    2.5370  -61.2420 C.2    42  ILE42       0.2287
     66  O          1.9560    3.5220  -61.8520 O.2    42  ILE42      -0.2864
     67  CB         2.9210    0.4980  -60.8070 C.3    42  ILE42       0.0276
     68  CG1        3.9010   -0.1490  -59.8400 C.3    42  ILE42       0.0022
     69  CG2        3.5910    0.7620  -62.1450 C.3    42  ILE42       0.0022
     70  CD1        4.4000   -1.5020  -60.2460 C.3    42  ILE42       0.0001
     71  N          1.0090    6.0730  -60.2060 N.3    45  THR45      -0.1218
     72  CA         2.2710    6.8000  -60.3840 C.3    45  THR45       0.1862
     73  C          2.4970    7.1520  -61.8390 C.2    45  THR45       0.2287
     74  O          2.8530    8.2830  -62.1840 O.2    45  THR45      -0.2866
     75  CB         3.4600    5.9560  -59.9110 C.3    45  THR45       0.1770
     76  OG1        3.2450    5.5260  -58.5700 O.3    45  THR45      -0.2211
     77  CG2        4.7330    6.7400  -59.9910 C.3    45  THR45       0.0375
     78  N          2.7730   16.1070  -48.9660 N.3    70  VAL70      -0.1245
     79  CA         3.7870   15.2230  -49.5610 C.3    70  VAL70       0.1561
     80  C          4.5880   14.5040  -48.4850 C.2    70  VAL70       0.2260
     81  O          4.8430   13.3320  -48.5840 O.2    70  VAL70      -0.2867
     82  CB         4.7740   15.9880  -50.4420 C.3    70  VAL70       0.0252
     83  CG1        5.9020   15.0800  -50.8800 C.3    70  VAL70       0.0019
     84  CG2        4.0780   16.5480  -51.6620 C.3    70  VAL70       0.0019
     85  N          2.5520   11.6010  -47.1680 N.3    73  VAL73      -0.1231
     86  CA         2.5880   10.4360  -48.0450 C.3    73  VAL73       0.1692
     87  C          3.9580    9.7420  -48.0170 C.2    73  VAL73       0.2592
     88  O          4.0640    8.5180  -48.1700 O.2    73  VAL73      -0.2718
     89  CB         2.2210   10.8200  -49.5160 C.3    73  VAL73       0.0266
     90  CG1        2.5130    9.6830  -50.4810 C.3    73  VAL73       0.0020
     91  CG2        0.7630   11.2020  -49.6040 C.3    73  VAL73       0.0020
     92  N          5.0010   10.5220  -47.8270 N.am   74  ASN74      -0.1974
     93  CA         6.3370    9.9710  -47.6920 C.3    74  ASN74       0.1688
     94  C          6.4280    9.0860  -46.5330 C.2    74  ASN74       0.2292
     95  O          7.0510    8.0190  -46.5770 O.2    74  ASN74      -0.2864
     96  CB         7.3140   11.0980  -47.4060 C.3    74  ASN74       0.1181
     97  CG         8.7480   10.7710  -47.8230 C.2    74  ASN74       0.2629
     98  OD1        9.5250   10.4590  -46.9860 O.2    74  ASN74      -0.2716
     99  ND2        9.0550   10.7530  -49.1060 N.am   74  ASN74      -0.0877
    100  N          4.5850    5.8920  -47.2360 N.3    77  ILE77      -0.1245
    101  CA         5.4220    4.9990  -48.0820 C.3    77  ILE77       0.1561
    102  C          6.5110    4.2770  -47.2730 C.2    77  ILE77       0.2260
    103  O          6.6680    3.0630  -47.3680 O.2    77  ILE77      -0.2867
    104  CB         6.0890    5.7880  -49.2460 C.3    77  ILE77       0.0252
    105  CG1        5.0460    6.1790  -50.2720 C.3    77  ILE77       0.0019
    106  CG2        7.1870    4.9660  -49.9190 C.3    77  ILE77       0.0019
    107  CD1        5.4990    7.2660  -51.2110 C.3    77  ILE77       0.0001
    108  N          4.9170    1.6690  -45.0200 N.3    80  THR80      -0.1203
    109  CA         4.3520    0.6200  -45.8140 C.3    80  THR80       0.1994
    110  C          5.4290   -0.3690  -46.2540 C.2    80  THR80       0.2617
    111  O          5.1940   -1.5490  -46.2980 O.2    80  THR80      -0.2717
    112  CB         3.6500    1.2060  -47.0510 C.3    80  THR80       0.1784
    113  OG1        2.7040    2.1850  -46.6320 O.3    80  THR80      -0.2211
    114  CG2        2.9480    0.1400  -47.8280 C.3    80  THR80       0.0376
    115  N          6.5680    0.1470  -46.6900 N.am   81  VAL81      -0.1979
    116  CA         7.6650   -0.7120  -47.0990 C.3    81  VAL81       0.1595
    117  C          8.1300   -1.5040  -45.9080 C.2    81  VAL81       0.2287
    118  O          8.3250   -2.7190  -45.9980 O.2    81  VAL81      -0.2864
    119  CB         8.8590    0.0810  -47.7010 C.3    81  VAL81       0.0276
    120  CG1       10.0780   -0.8310  -47.8740 C.3    81  VAL81       0.0022
    121  CG2        8.4690    0.6900  -49.0460 C.3    81  VAL81       0.0022
    122  N          5.8140   -4.2930  -45.2910 N.3    84  LEU84      -0.1245
    123  CA         6.0470   -5.3220  -46.3260 C.3    84  LEU84       0.1561
    124  C          7.2670   -6.1990  -45.9990 C.2    84  LEU84       0.2260
    125  O          7.1660   -7.4070  -45.9650 O.2    84  LEU84      -0.2867
    126  CB         6.2520   -4.6600  -47.6730 C.3    84  LEU84       0.0270
    127  CG         6.4470   -5.5880  -48.8740 C.3    84  LEU84       0.0019
    128  CD1        5.1700   -6.3010  -49.1970 C.3    84  LEU84       0.0001
    129  CD2        6.9400   -4.7960  -50.0750 C.3    84  LEU84       0.0001
    130  N          7.2480   -9.7310  -55.7300 N.3   100  VAL100     -0.1245
    131  CA         7.3490   -8.5680  -54.8980 C.3   100  VAL100      0.1561
    132  C          8.6120   -7.7860  -55.3080 C.2   100  VAL100      0.2260
    133  O          8.5590   -6.6010  -55.5560 O.2   100  VAL100     -0.2867
    134  CB         7.3990   -8.9370  -53.3930 C.3   100  VAL100      0.0252
    135  CG1        7.6930   -7.7140  -52.5590 C.3   100  VAL100      0.0019
    136  CG2        6.0860   -9.5810  -52.9350 C.3   100  VAL100      0.0019
    137  N          7.9650   -6.0620  -58.6250 N.3   103  SER103     -0.1202
    138  CA         7.0150   -4.9630  -58.4660 C.3   103  SER103      0.2020
    139  C          7.7000   -3.7680  -57.8210 C.2   103  SER103      0.2618
    140  O          7.3950   -2.6470  -58.1340 O.2   103  SER103     -0.2717
    141  CB         5.8070   -5.3780  -57.5900 C.3   103  SER103      0.2103
    142  OG         4.8060   -6.0230  -58.3550 O.3   103  SER103     -0.2182
    143  N          8.5810   -4.0430  -56.8570 N.am  104  LEU104     -0.1979
    144  CA         9.3060   -2.9830  -56.1720 C.3   104  LEU104      0.1596
    145  C         10.2700   -2.3210  -57.1280 C.2   104  LEU104      0.2287
    146  O         10.4020   -1.1020  -57.1410 O.2   104  LEU104     -0.2864
    147  CB        10.0830   -3.5280  -54.9740 C.3   104  LEU104      0.0297
    148  CG         9.2740   -3.8750  -53.7190 C.3   104  LEU104      0.0022
    149  CD1       10.1420   -4.6500  -52.7500 C.3   104  LEU104      0.0001
    150  CD2        8.7090   -2.6400  -53.0510 C.3   104  LEU104      0.0001
    151  N          8.4150   -0.1290  -59.3130 N.3   107  GLN107     -0.1245
    152  CA         7.9250    1.0110  -58.5410 C.3   107  GLN107      0.1566
    153  C          9.0200    2.0260  -58.3100 C.2   107  GLN107      0.2260
    154  O          8.7740    3.1960  -58.3350 O.2   107  GLN107     -0.2867
    155  CB         7.3680    0.5570  -57.2260 C.3   107  GLN107      0.0367
    156  CG         6.7030    1.6170  -56.4150 C.3   107  GLN107      0.0905
    157  CD         5.6340    2.3720  -57.1520 C.2   107  GLN107      0.2608
    158  OE1        5.4120    3.5770  -56.9080 O.2   107  GLN107     -0.2717
    159  NE2        4.9760    1.7050  -58.0530 N.am  107  GLN107     -0.0878
    160  N          8.7670    5.7950  -59.5570 N.3   111  ALA111     -0.1245
    161  CA         8.8700    6.8360  -58.5060 C.3   111  ALA111      0.1562
    162  C          9.9600    7.8450  -58.8250 C.2   111  ALA111      0.2260
    163  O          9.7890    9.0430  -58.6500 O.2   111  ALA111     -0.2867
    164  CB         9.1480    6.1780  -57.1580 C.3   111  ALA111      0.0290
    165  N          8.8180   10.0200  -61.6790 N.3   114  LEU114     -0.1231
    166  CA         7.7600   10.9550  -61.3050 C.3   114  LEU114      0.1693
    167  C          8.3280   12.1190  -60.5210 C.2   114  LEU114      0.2592
    168  O          7.8600   13.2330  -60.6220 O.2   114  LEU114     -0.2718
    169  CB         6.6540   10.2600  -60.4840 C.3   114  LEU114      0.0284
    170  CG         5.5730   11.2040  -59.9080 C.3   114  LEU114      0.0019
    171  CD1        4.8030   11.9520  -60.9910 C.3   114  LEU114      0.0001
    172  CD2        4.6130   10.4370  -59.0190 C.3   114  LEU114      0.0001
    173  N          9.2770   11.8310  -59.6610 N.am  115  SER115     -0.1952
    174  CA         9.8290   12.8530  -58.8000 C.3   115  SER115      0.1924
    175  C         10.6680   13.8290  -59.6240 C.2   115  SER115      0.2314
    176  O         10.7940   14.9810  -59.2870 O.2   115  SER115     -0.2863
    177  CB        10.6260   12.2200  -57.6640 C.3   115  SER115      0.2116
    178  OG        11.6960   11.5250  -58.1630 O.3   115  SER115     -0.2180
    179  N         13.2920   14.3040  -50.2540 N.3   133  LEU133     -0.1231
    180  CA        12.0660   13.5230  -50.1200 C.3   133  LEU133      0.1693
    181  C         12.1020   12.3560  -51.0610 C.2   133  LEU133      0.2592
    182  O         11.8590   11.2270  -50.6470 O.2   133  LEU133     -0.2718
    183  CB        10.8450   14.3820  -50.3800 C.3   133  LEU133      0.0284
    184  CG        10.4370   15.2750  -49.1960 C.3   133  LEU133      0.0019
    185  CD1        9.4210   16.3000  -49.6150 C.3   133  LEU133      0.0001
    186  CD2        9.8870   14.4730  -48.0210 C.3   133  LEU133      0.0001
    187  N         12.5390   12.6060  -52.2980 N.am  134  SER134     -0.1952
    188  CA        12.6330   11.5530  -53.3190 C.3   134  SER134      0.1924
    189  C         13.6220   10.4990  -52.9290 C.2   134  SER134      0.2314
    190  O         13.4170    9.3560  -53.2040 O.2   134  SER134     -0.2863
    191  CB        13.0510   12.1180  -54.6530 C.3   134  SER134      0.2116
    192  OG        12.3540   13.3120  -54.9090 O.3   134  SER134     -0.2180
    193  N         12.1930    7.9750  -50.4610 N.3   137  VAL137     -0.1245
    194  CA        11.3430    7.0240  -51.1610 C.3   137  VAL137      0.1561
    195  C         12.2300    6.0150  -51.9060 C.2   137  VAL137      0.2260
    196  O         12.0280    4.8600  -51.7920 O.2   137  VAL137     -0.2867
    197  CB        10.4020    7.7200  -52.1910 C.3   137  VAL137      0.0252
    198  CG1        9.5480    6.6950  -52.9280 C.3   137  VAL137      0.0019
    199  CG2        9.5170    8.7330  -51.4960 C.3   137  VAL137      0.0019
    200  N         12.4620    1.9670  -50.9470 N.3   141  LEU141     -0.1245
    201  CA        12.1920    0.9670  -51.9580 C.3   141  LEU141      0.1561
    202  C         13.4110    0.0650  -52.1360 C.2   141  LEU141      0.2260
    203  O         13.2860   -1.1240  -52.1930 O.2   141  LEU141     -0.2867
    204  CB        11.7950    1.6270  -53.2860 C.3   141  LEU141      0.0270
    205  CG        10.4020    2.2830  -53.2760 C.3   141  LEU141      0.0019
    206  CD1       10.1690    3.0550  -54.5730 C.3   141  LEU141      0.0001
    207  CD2        9.3140    1.2550  -53.0720 C.3   141  LEU141      0.0001
@<TRIPOS>BOND
     1    74    73    2
     2    69    67    1
     3    66    65    2
     4    73    72    1
     5   165   166    1
     6   166   167    1
     7   166   169    1
     8    65    64    1
     9   171   170    1
    10    67    64    1
    11    67    68    1
    12   168   167    2
    13   167   173   am
    14   169   170    1
    15    72    71    1
    16    72    75    1
    17    70    68    1
    18    64    63    1
    19    77    75    1
    20    75    76    1
    21   170   172    1
    22   173   174    1
    23   175   176    2
    24   175   174    1
    25   160   161    1
    26   151   152    1
    27    63    57   am
    28   162   163    2
    29   162   161    1
    30   174   177    1
    31   137   138    1
    32    58    57    2
    33   152   153    1
    34   152   155    1
    35   161   164    1
    36   138   139    1
    37   138   141    1
    38   142   141    1
    39   154   153    2
    40    57    56    1
    41    49    47    1
    42   178   177    1
    43   140   139    2
    44   159   157   am
    45   139   143   am
    46    54    53    2
    47    46    45    2
    48    55    56    1
    49    53    52    1
    50    16    14    1
    51   155   156    1
    52   157   158    2
    53   157   156    1
    54   146   145    2
    55   145   144    1
    56    56    59    1
    57    45    44    1
    58    14    13    1
    59    47    48    1
    60    47    44    1
    61   143   144    1
    62    48    50    1
    63   144   147    1
    64    44    43    1
    65    52    51    1
    66     1     2    1
    67    59    61    1
    68    59    60    1
    69   130   131    1
    70   133   132    2
    71     9    10    1
    72    13    10    1
    73    13    15    1
    74   132   131    1
    75    10    11    1
    76   147   148    1
    77   192   191    1
    78   131   134    1
    79    43    37   am
    80   191   188    1
    81    60    62    1
    82     2     5    1
    83     2     3    1
    84   206   205    1
    85    38    37    2
    86    37    36    1
    87     5     6    1
    88     3     4    2
    89   148   150    1
    90   148   149    1
    91    11    12    2
    92   134   136    1
    93   134   135    1
    94   188   189    1
    95   188   187    1
    96   204   205    1
    97   204   201    1
    98   205   207    1
    99   190   189    2
   100    35    36    1
   101   198   197    1
   102     7     6    1
   103    36    39    1
   104     6     8    1
   105   187   181   am
   106   203   202    2
   107   197   199    1
   108   197   194    1
   109   202   201    1
   110    23    21    1
   111   201   200    1
   112    17    18    1
   113   195   196    2
   114   195   194    1
   115    39    40    1
   116    84    82    1
   117    32    30   ar
   118    32    34   ar
   119    30    29   ar
   120   107   105    1
   121    34    33   ar
   122   194   193    1
   123   181   182    2
   124   181   180    1
   125    18    21    1
   126    18    19    1
   127    83    82    1
   128    29    28    1
   129    29    31   ar
   130    28    25    1
   131    21    22    1
   132    33    31   ar
   133    90    89    1
   134    82    79    1
   135   183   180    1
   136   183   184    1
   137    40    42    1
   138    40    41    1
   139   105   104    1
   140   179   180    1
   141   129   127    1
   142   106   104    1
   143    24    25    1
   144    25    26    1
   145    19    20    2
   146   185   184    1
   147    91    89    1
   148    79    78    1
   149    79    80    1
   150    89    86    1
   151   104   101    1
   152   128   127    1
   153   184   186    1
   154    99    97   am
   155   121   119    1
   156   127   126    1
   157    81    80    2
   158    26    27    2
   159    88    87    2
   160   101   102    1
   161   101   100    1
   162    86    87    1
   163    86    85    1
   164    87    92   am
   165   120   119    1
   166   114   112    1
   167    92    93    1
   168    97    96    1
   169    97    98    2
   170   119   116    1
   171    93    96    1
   172    93    94    1
   173   126   123    1
   174   103   102    2
   175   116   115    1
   176   116   117    1
   177   112   113    1
   178   112   109    1
   179   115   110   am
   180    95    94    2
   181   123   124    1
   182   123   122    1
   183   111   110    2
   184   110   109    1
   185   124   125    2
   186   118   117    2
   187   109   108    1
