@<TRIPOS>MOLECULE
tmp/5ecfI00.pdb
 156 141 0 0 0
SMALL
GASTEIGER

@<TRIPOS>ATOM
      1  N         -2.2930   18.6410  -58.8930 N.3     5  PHE5       -0.1241
      2  CA        -1.1830   18.0890  -58.0830 C.3     5  PHE5        0.1605
      3  C         -1.7110   17.4150  -56.8480 C.2     5  PHE5        0.2264
      4  O         -1.2300   16.3580  -56.4450 O.2     5  PHE5       -0.2867
      5  CB        -0.2040   19.1780  -57.6730 C.3     5  PHE5        0.0534
      6  CG         0.6840   19.6240  -58.7770 C.ar    5  PHE5       -0.0203
      7  CD1        0.2560   20.5640  -59.6590 C.ar    5  PHE5       -0.0042
      8  CD2        1.9560   19.0710  -58.9500 C.ar    5  PHE5       -0.0042
      9  CE1        1.0700   20.9940  -60.6910 C.ar    5  PHE5       -0.0003
     10  CE2        2.7850   19.5070  -59.9690 C.ar    5  PHE5       -0.0003
     11  CZ         2.3370   20.4770  -60.8440 C.ar    5  PHE5       -0.0000
     12  N         -3.4200   13.8830  -57.9020 N.3     8  VAL8       -0.1231
     13  CA        -2.3900   12.8860  -58.1570 C.3     8  VAL8        0.1692
     14  C         -1.7860   12.3710  -56.8420 C.2     8  VAL8        0.2591
     15  O         -1.6980   11.1860  -56.6170 O.2     8  VAL8       -0.2718
     16  CB        -1.2550   13.4510  -59.0350 C.3     8  VAL8        0.0266
     17  CG1       -0.1330   12.4240  -59.1970 C.3     8  VAL8        0.0020
     18  CG2       -1.7880   13.8490  -60.3840 C.3     8  VAL8        0.0020
     19  N         -1.4300   13.2840  -55.9600 N.am    9  LEU9       -0.1980
     20  CA        -0.9380   12.9200  -54.6370 C.3     9  LEU9        0.1596
     21  C         -1.9560   12.0630  -53.8480 C.2     9  LEU9        0.2287
     22  O         -1.5990   11.0600  -53.2570 O.2     9  LEU9       -0.2864
     23  CB        -0.5920   14.1720  -53.8570 C.3     9  LEU9        0.0297
     24  CG         0.1130   13.9860  -52.4910 C.3     9  LEU9        0.0022
     25  CD1        1.5100   13.4750  -52.7220 C.3     9  LEU9        0.0001
     26  CD2        0.1240   15.2900  -51.7290 C.3     9  LEU9        0.0001
     27  N         -2.2630    8.6260  -55.3670 N.3    12  ILE12      -0.1245
     28  CA        -1.1240    7.7830  -55.0460 C.3    12  ILE12       0.1561
     29  C         -1.1800    7.3720  -53.5870 C.2    12  ILE12       0.2260
     30  O         -1.0080    6.2180  -53.2630 O.2    12  ILE12      -0.2867
     31  CB         0.1930    8.4930  -55.3460 C.3    12  ILE12       0.0252
     32  CG1        0.3190    8.7090  -56.8660 C.3    12  ILE12       0.0019
     33  CG2        1.3830    7.6830  -54.8230 C.3    12  ILE12       0.0019
     34  CD1        1.5640    9.4810  -57.2960 C.3    12  ILE12       0.0001
     35  N          0.5390   15.4330  -64.8990 N.3    52  LEU52      -0.1245
     36  CA         1.3740   16.5380  -64.4050 C.3    52  LEU52       0.1561
     37  C          2.3640   17.0270  -65.4550 C.2    52  LEU52       0.2260
     38  O          2.7000   18.1760  -65.4750 O.2    52  LEU52      -0.2867
     39  CB         2.1200   16.1140  -63.1530 C.3    52  LEU52       0.0270
     40  CG         1.2330   15.8000  -61.9430 C.3    52  LEU52       0.0019
     41  CD1        2.0870   15.4750  -60.7300 C.3    52  LEU52       0.0001
     42  CD2        0.2920   16.9540  -61.6400 C.3    52  LEU52       0.0001
     43  N          4.6400   25.3730  -60.4600 N.3    58  LEU58      -0.1245
     44  CA         3.9240   25.9310  -59.3310 C.3    58  LEU58       0.1561
     45  C          4.5290   27.2190  -58.8670 C.2    58  LEU58       0.2260
     46  O          5.7560   27.4400  -58.9840 O.2    58  LEU58      -0.2867
     47  CB         3.9110   24.9590  -58.1610 C.3    58  LEU58       0.0270
     48  CG         3.0880   23.7210  -58.3870 C.3    58  LEU58       0.0019
     49  CD1        3.6470   22.5790  -57.6110 C.3    58  LEU58       0.0001
     50  CD2        1.6380   23.9530  -58.0130 C.3    58  LEU58       0.0001
     51  N          3.4470   25.5130  -54.0680 N.3    63  ALA63      -0.1245
     52  CA         4.2610   24.3430  -53.7210 C.3    63  ALA63       0.1562
     53  C          4.3770   24.1740  -52.1960 C.2    63  ALA63       0.2260
     54  O          4.2580   23.0830  -51.6970 O.2    63  ALA63      -0.2867
     55  CB         5.6380   24.4630  -54.3430 C.3    63  ALA63       0.0290
     56  N          1.7440   22.2900  -50.4930 N.3    66  LEU66      -0.1231
     57  CA         1.7410   20.8560  -50.7870 C.3    66  LEU66       0.1693
     58  C          2.8240   20.1250  -50.0030 C.2    66  LEU66       0.2591
     59  O          2.7930   18.8970  -49.8880 O.2    66  LEU66      -0.2718
     60  CB         1.9650   20.6190  -52.2810 C.3    66  LEU66       0.0284
     61  CG         0.8360   21.0280  -53.2190 C.3    66  LEU66       0.0019
     62  CD1        1.3320   21.0520  -54.6630 C.3    66  LEU66       0.0001
     63  CD2       -0.3660   20.1050  -53.0830 C.3    66  LEU66       0.0001
     64  N          3.7540   20.8780  -49.4190 N.am   67  VAL67      -0.1980
     65  CA         4.8670   20.2830  -48.6700 C.3    67  VAL67       0.1595
     66  C          4.3780   19.3460  -47.5600 C.2    67  VAL67       0.2287
     67  O          4.7950   18.1980  -47.4890 O.2    67  VAL67      -0.2864
     68  CB         5.7710   21.3480  -48.0730 C.3    67  VAL67       0.0276
     69  CG1        6.8000   20.7340  -47.1260 C.3    67  VAL67       0.0022
     70  CG2        6.4620   22.1030  -49.1820 C.3    67  VAL67       0.0022
     71  N          2.7730   16.1070  -48.9660 N.3    70  VAL70      -0.1245
     72  CA         3.7870   15.2230  -49.5610 C.3    70  VAL70       0.1561
     73  C          4.5880   14.5040  -48.4850 C.2    70  VAL70       0.2260
     74  O          4.8430   13.3320  -48.5840 O.2    70  VAL70      -0.2867
     75  CB         4.7740   15.9880  -50.4420 C.3    70  VAL70       0.0252
     76  CG1        5.9020   15.0800  -50.8800 C.3    70  VAL70       0.0019
     77  CG2        4.0780   16.5480  -51.6620 C.3    70  VAL70       0.0019
     78  N          5.0010   10.5220  -47.8270 N.3    74  ASN74      -0.1240
     79  CA         6.3370    9.9710  -47.6920 C.3    74  ASN74       0.1653
     80  C          6.4280    9.0860  -46.5330 C.2    74  ASN74       0.2266
     81  O          7.0510    8.0190  -46.5770 O.2    74  ASN74      -0.2867
     82  CB         7.3140   11.0980  -47.4060 C.3    74  ASN74       0.1155
     83  CG         8.7480   10.7710  -47.8230 C.2    74  ASN74       0.2627
     84  OD1        9.5250   10.4590  -46.9860 O.2    74  ASN74      -0.2716
     85  ND2        9.0550   10.7530  -49.1060 N.am   74  ASN74      -0.0877
     86  N          8.8180   10.0200  -61.6790 N.3   114  LEU114     -0.1231
     87  CA         7.7600   10.9550  -61.3050 C.3   114  LEU114      0.1693
     88  C          8.3280   12.1190  -60.5210 C.2   114  LEU114      0.2592
     89  O          7.8600   13.2330  -60.6220 O.2   114  LEU114     -0.2718
     90  CB         6.6540   10.2600  -60.4840 C.3   114  LEU114      0.0284
     91  CG         5.5730   11.2040  -59.9080 C.3   114  LEU114      0.0019
     92  CD1        4.8030   11.9520  -60.9910 C.3   114  LEU114      0.0001
     93  CD2        4.6130   10.4370  -59.0190 C.3   114  LEU114      0.0001
     94  N          9.2770   11.8310  -59.6610 N.am  115  SER115     -0.1952
     95  CA         9.8290   12.8530  -58.8000 C.3   115  SER115      0.1924
     96  C         10.6680   13.8290  -59.6240 C.2   115  SER115      0.2314
     97  O         10.7940   14.9810  -59.2870 O.2   115  SER115     -0.2863
     98  CB        10.6260   12.2200  -57.6640 C.3   115  SER115      0.2116
     99  OG        11.6960   11.5250  -58.1630 O.3   115  SER115     -0.2180
    100  N          8.1510   16.0640  -61.3300 N.3   118  VAL118     -0.1245
    101  CA         7.6200   16.9620  -60.2850 C.3   118  VAL118      0.1561
    102  C          8.6250   18.0360  -59.9000 C.2   118  VAL118      0.2260
    103  O          8.2520   19.2010  -59.7100 O.2   118  VAL118     -0.2867
    104  CB         7.1880   16.1800  -59.0520 C.3   118  VAL118      0.0252
    105  CG1        6.8270   17.1180  -57.8960 C.3   118  VAL118      0.0019
    106  CG2        6.0020   15.3130  -59.3750 C.3   118  VAL118      0.0019
    107  N          8.5500   22.5950  -59.3620 N.3   122  VAL122     -0.1245
    108  CA         8.6650   23.3530  -58.1040 C.3   122  VAL122      0.1561
    109  C          9.7970   24.3690  -58.1820 C.2   122  VAL122      0.2260
    110  O         10.8150   24.1120  -58.8130 O.2   122  VAL122     -0.2867
    111  CB         8.8810   22.4300  -56.8670 C.3   122  VAL122      0.0252
    112  CG1        8.0330   21.1810  -56.9760 C.3   122  VAL122      0.0019
    113  CG2       10.3620   22.0660  -56.6830 C.3   122  VAL122      0.0019
    114  N         13.0850   25.3100  -53.3960 N.3   126  LEU126     -0.1245
    115  CA        12.5930   24.0760  -52.7820 C.3   126  LEU126      0.1561
    116  C         13.2180   22.8050  -53.3230 C.2   126  LEU126      0.2260
    117  O         13.0610   21.7410  -52.7350 O.2   126  LEU126     -0.2867
    118  CB        11.1080   23.9810  -52.9540 C.3   126  LEU126      0.0270
    119  CG        10.3560   24.8810  -51.9800 C.3   126  LEU126      0.0019
    120  CD1        8.8520   24.9260  -52.2670 C.3   126  LEU126      0.0001
    121  CD2       10.6080   24.4550  -50.5570 C.3   126  LEU126      0.0001
    122  N         14.7600   20.0830  -51.0350 N.3   129  ILE129     -0.1231
    123  CA        13.7850   19.3690  -50.2000 C.3   129  ILE129      0.1692
    124  C         13.0550   18.2550  -50.9860 C.2   129  ILE129      0.2592
    125  O         12.9230   17.1340  -50.5110 O.2   129  ILE129     -0.2718
    126  CB        12.7850   20.3580  -49.5480 C.3   129  ILE129      0.0266
    127  CG1       13.5890   21.3070  -48.5580 C.3   129  ILE129      0.0019
    128  CG2       11.5840   19.5900  -48.9550 C.3   129  ILE129      0.0020
    129  CD1       14.3190   20.6400  -47.4290 C.3   129  ILE129      0.0001
    130  N         12.5880   18.5800  -52.1830 N.am  130  SER130     -0.1952
    131  CA        12.0670   17.5500  -53.0540 C.3   130  SER130      0.1924
    132  C         13.0500   16.4260  -53.1450 C.2   130  SER130      0.2314
    133  O         12.7000   15.2880  -53.0630 O.2   130  SER130     -0.2863
    134  CB        11.7720   18.0830  -54.4600 C.3   130  SER130      0.2116
    135  OG        11.1700   19.3450  -54.4500 O.3   130  SER130     -0.2180
    136  N         13.2920   14.3040  -50.2540 N.3   133  LEU133     -0.1231
    137  CA        12.0660   13.5230  -50.1200 C.3   133  LEU133      0.1693
    138  C         12.1020   12.3560  -51.0610 C.2   133  LEU133      0.2592
    139  O         11.8590   11.2270  -50.6470 O.2   133  LEU133     -0.2718
    140  CB        10.8450   14.3820  -50.3800 C.3   133  LEU133      0.0284
    141  CG        10.4370   15.2750  -49.1960 C.3   133  LEU133      0.0019
    142  CD1        9.4210   16.3000  -49.6150 C.3   133  LEU133      0.0001
    143  CD2        9.8870   14.4730  -48.0210 C.3   133  LEU133      0.0001
    144  N         12.5390   12.6060  -52.2980 N.am  134  SER134     -0.1952
    145  CA        12.6330   11.5530  -53.3190 C.3   134  SER134      0.1924
    146  C         13.6220   10.4990  -52.9290 C.2   134  SER134      0.2314
    147  O         13.4170    9.3560  -53.2040 O.2   134  SER134     -0.2863
    148  CB        13.0510   12.1180  -54.6530 C.3   134  SER134      0.2116
    149  OG        12.3540   13.3120  -54.9090 O.3   134  SER134     -0.2180
    150  N         12.1930    7.9750  -50.4610 N.3   137  VAL137     -0.1245
    151  CA        11.3430    7.0240  -51.1610 C.3   137  VAL137      0.1561
    152  C         12.2300    6.0150  -51.9060 C.2   137  VAL137      0.2260
    153  O         12.0280    4.8600  -51.7920 O.2   137  VAL137     -0.2867
    154  CB        10.4020    7.7200  -52.1910 C.3   137  VAL137      0.0252
    155  CG1        9.5480    6.6950  -52.9280 C.3   137  VAL137      0.0019
    156  CG2        9.5170    8.7330  -51.4960 C.3   137  VAL137      0.0019
@<TRIPOS>BOND
     1    38    37    2
     2    37    36    1
     3    35    36    1
     4    36    39    1
     5    39    40    1
     6    40    42    1
     7    40    41    1
     8    86    87    1
     9   100   101    1
    10    87    88    1
    11    87    90    1
    12    92    91    1
    13    11     9   ar
    14    11    10   ar
    15     9     7   ar
    16    89    88    2
    17    88    94   am
    18    90    91    1
    19    43    44    1
    20    18    16    1
    21   101   102    1
    22   101   104    1
    23    10     8   ar
    24    91    93    1
    25   102   103    2
    26    94    95    1
    27     7     6   ar
    28    96    97    2
    29    96    95    1
    30   106   104    1
    31   107   108    1
    32    44    45    1
    33    44    47    1
    34    17    16    1
    35   104   105    1
    36    16    13    1
    37    46    45    2
    38     8     6   ar
    39     1     2    1
    40   110   109    2
    41    95    98    1
    42     6     5    1
    43    48    47    1
    44    48    50    1
    45    48    49    1
    46   109   108    1
    47    99    98    1
    48    13    12    1
    49    13    14    1
    50   108   111    1
    51     2     5    1
    52     2     3    1
    53    34    32    1
    54   112   111    1
    55   111   113    1
    56    32    31    1
    57     3     4    2
    58    14    15    2
    59    14    19   am
    60    19    20    1
    61    27    28    1
    62    31    28    1
    63    31    33    1
    64    28    29    1
    65   149   148    1
    66    62    61    1
    67   148   145    1
    68    20    23    1
    69    20    21    1
    70   134   135    1
    71   134   131    1
    72    55    52    1
    73    51    52    1
    74    23    24    1
    75    21    22    2
    76    52    53    1
    77    29    30    2
    78   114   115    1
    79   116   115    1
    80   116   117    2
    81   145   146    1
    82   145   144    1
    83    61    63    1
    84    61    60    1
    85   147   146    2
    86   132   133    2
    87   132   131    1
    88   131   130    1
    89   118   115    1
    90   118   119    1
    91   155   154    1
    92    25    24    1
    93    24    26    1
    94   144   138   am
    95    60    57    1
    96   120   119    1
    97    53    54    2
    98   154   156    1
    99   154   151    1
   100   130   124   am
   101   119   121    1
   102   152   153    2
   103   152   151    1
   104    77    75    1
   105   151   150    1
   106   138   139    2
   107   138   137    1
   108   122   123    1
   109   124   125    2
   110   124   123    1
   111    76    75    1
   112    57    56    1
   113    57    58    1
   114    75    72    1
   115   140   137    1
   116   140   141    1
   117   136   137    1
   118   123   126    1
   119    58    59    2
   120    58    64   am
   121   142   141    1
   122    72    71    1
   123    72    73    1
   124   126   128    1
   125   126   127    1
   126    64    65    1
   127   141   143    1
   128    70    68    1
   129    85    83   am
   130    65    68    1
   131    65    66    1
   132    74    73    2
   133   127   129    1
   134    68    69    1
   135    78    79    1
   136    83    82    1
   137    83    84    2
   138    79    82    1
   139    79    80    1
   140    66    67    2
   141    81    80    2
