@<TRIPOS>MOLECULE
tmp/5ecgC00.pdb
 138 133 0 0 0
SMALL
GASTEIGER

@<TRIPOS>ATOM
      1  N        -23.0600   41.0260   17.4570 N.3    24  THR24      -0.1203
      2  CA       -24.1680   41.9290   17.1900 C.3    24  THR24       0.1994
      3  C        -25.4670   41.2500   17.5980 C.2    24  THR24       0.2618
      4  O        -25.6060   40.0290   17.5030 O.2    24  THR24      -0.2717
      5  CB       -24.2250   42.3520   15.7120 C.3    24  THR24       0.1784
      6  OG1      -25.2550   43.3320   15.5320 O.3    24  THR24      -0.2211
      7  CG2      -24.4990   41.1570   14.8100 C.3    24  THR24       0.0376
      8  N        -26.4160   42.0560   18.0660 N.am   25  MET25      -0.1965
      9  CA       -27.6750   41.5610   18.6090 C.3    25  MET25       0.1736
     10  C        -28.8170   42.0400   17.7270 C.2    25  MET25       0.2616
     11  O        -28.9730   43.2460   17.5090 O.2    25  MET25      -0.2715
     12  CB       -27.8710   42.0350   20.0510 C.3    25  MET25       0.0427
     13  CG       -29.1300   41.5090   20.7270 C.3    25  MET25       0.0599
     14  SD       -29.3010   42.0990   22.4260 S.3    25  MET25      -0.1393
     15  CE       -31.0240   41.7320   22.7470 C.3    25  MET25       0.0692
     16  N        -29.6070   41.0980   17.2200 N.am   26  ALA26      -0.1963
     17  CA       -30.7860   41.4550   16.4450 C.3    26  ALA26       0.1728
     18  C        -31.8260   42.1090   17.3460 C.2    26  ALA26       0.2616
     19  O        -32.0300   41.6940   18.4900 O.2    26  ALA26      -0.2715
     20  CB       -31.3720   40.2180   15.7660 C.3    26  ALA26       0.0334
     21  N        -32.4830   43.1420   16.8220 N.am   27  THR27      -0.1951
     22  CA       -33.4380   43.9060   17.6160 C.3    27  THR27       0.1897
     23  C        -34.6290   43.0430   18.0100 C.2    27  THR27       0.2313
     24  O        -35.2880   42.4390   17.1580 O.2    27  THR27      -0.2863
     25  CB       -33.9080   45.1350   16.8350 C.3    27  THR27       0.1794
     26  OG1      -32.8560   46.1070   16.7930 O.3    27  THR27      -0.2208
     27  CG2      -35.1360   45.7520   17.4920 C.3    27  THR27       0.0378
     28  N        -25.4550   37.7040   24.9810 N.3    34  LYS34      -0.1245
     29  CA       -24.2890   38.4200   24.4720 C.3    34  LYS34       0.1561
     30  C        -23.1460   38.4150   25.4810 C.2    34  LYS34       0.2260
     31  O        -21.9960   38.1210   25.1330 O.2    34  LYS34      -0.2867
     32  CB       -24.6860   39.8510   24.1070 C.3    34  LYS34       0.0271
     33  CG       -23.8500   40.4840   23.0030 C.3    34  LYS34       0.0035
     34  CD       -24.4010   41.8520   22.6230 C.3    34  LYS34       0.0206
     35  CE       -23.9870   42.2510   21.2160 C.3    34  LYS34       0.1093
     36  NZ       -24.5950   43.5480   20.8110 N.3    34  LYS34      -0.1314
     37  N        -29.1110   39.7680   10.6250 N.3    71  CYS71      -0.1221
     38  CA       -29.7280   41.0140   11.0540 C.3    71  CYS71       0.1808
     39  C        -29.2450   42.1560   10.1700 C.2    71  CYS71       0.2601
     40  O        -28.2770   42.0270    9.4160 O.2    71  CYS71      -0.2717
     41  CB       -29.4390   41.2970   12.5340 C.3    71  CYS71       0.0970
     42  SG       -27.7180   41.0640   13.0130 S.3    71  CYS71      -0.0800
     43  N        -29.9400   43.2890   10.2810 N.am   72  ARG72      -0.1965
     44  CA       -29.7210   44.4450    9.4180 C.3    72  ARG72       0.1729
     45  C        -29.0710   45.5720   10.2120 C.2    72  ARG72       0.2617
     46  O        -29.4690   46.7340   10.0880 O.2    72  ARG72      -0.2715
     47  CB       -31.0660   44.8960    8.8390 C.3    72  ARG72       0.0348
     48  CG       -31.6810   43.8970    7.8650 C.3    72  ARG72       0.0492
     49  CD       -32.8980   44.4490    7.1280 C.3    72  ARG72       0.2205
     50  NE       -32.6520   45.6610    6.3570 N.pl3  72  ARG72      -0.0865
     51  CZ       -32.8140   45.7460    5.0410 C.cat  72  ARG72       0.5346
     52  NH1      -32.5790   46.8870    4.4130 N.pl3  72  ARG72       0.1354
     53  NH2      -33.2290   44.6920    4.3520 N.pl3  72  ARG72       0.1354
     54  N        -28.0530   45.2460   11.0050 N.am   73  THR73      -0.1937
     55  CA       -27.3410   46.2290   11.8030 C.3    73  THR73       0.2028
     56  C        -26.0610   46.6840   11.1100 C.2    73  THR73       0.2642
     57  O        -25.6770   46.1880   10.0500 O.2    73  THR73      -0.2714
     58  CB       -27.0160   45.6620   13.1860 C.3    73  THR73       0.1808
     59  OG1      -26.1040   44.5650   13.0480 O.3    73  THR73      -0.2208
     60  CG2      -28.2810   45.1840   13.8780 C.3    73  THR73       0.0379
     61  N        -25.3860   47.6420   11.7490 N.am   74  ARG74      -0.1963
     62  CA       -24.1590   48.2020   11.1930 C.3    74  ARG74       0.1729
     63  C        -23.0340   47.1720   11.1670 C.2    74  ARG74       0.2616
     64  O        -22.3110   47.0620   10.1710 O.2    74  ARG74      -0.2715
     65  CB       -23.7470   49.4350   11.9980 C.3    74  ARG74       0.0348
     66  CG       -22.3680   49.9780   11.6670 C.3    74  ARG74       0.0492
     67  CD       -21.9460   51.0350   12.6780 C.3    74  ARG74       0.2205
     68  NE       -20.5230   50.9510   12.9960 N.pl3  74  ARG74      -0.0865
     69  CZ       -19.5770   51.6530   12.3790 C.cat  74  ARG74       0.5346
     70  NH1      -19.9010   52.4990   11.4090 N.pl3  74  ARG74       0.1354
     71  NH2      -18.3050   51.5110   12.7330 N.pl3  74  ARG74       0.1354
     72  N        -22.8640   46.4150   12.2530 N.am   75  LYS75      -0.1977
     73  CA       -21.8000   45.4160   12.2970 C.3    75  LYS75       0.1596
     74  C        -22.0140   44.3410   11.2390 C.2    75  LYS75       0.2287
     75  O        -21.0620   43.9050   10.5750 O.2    75  LYS75      -0.2864
     76  CB       -21.7310   44.7930   13.6910 C.3    75  LYS75       0.0298
     77  CG       -21.4770   45.7970   14.8030 C.3    75  LYS75       0.0038
     78  CD       -21.3510   45.1160   16.1540 C.3    75  LYS75       0.0206
     79  CE       -20.9010   46.0970   17.2240 C.3    75  LYS75       0.1093
     80  NZ       -20.8340   45.4600   18.5690 N.3    75  LYS75      -0.1314
     81  N        -23.5960   44.6520    8.3570 N.3    77  PHE77      -0.1241
     82  CA       -23.2930   45.2090    7.0420 C.3    77  PHE77       0.1605
     83  C        -21.7910   45.3710    6.8410 C.2    77  PHE77       0.2264
     84  O        -21.2740   45.1130    5.7460 O.2    77  PHE77      -0.2867
     85  CB       -24.0080   46.5470    6.8630 C.3    77  PHE77       0.0534
     86  CG       -25.5000   46.4240    6.7450 C.ar   77  PHE77      -0.0203
     87  CD1      -26.0700   45.3350    6.1080 C.ar   77  PHE77      -0.0042
     88  CD2      -26.3330   47.3980    7.2710 C.ar   77  PHE77      -0.0042
     89  CE1      -27.4430   45.2180    6.0000 C.ar   77  PHE77      -0.0003
     90  CE2      -27.7070   47.2850    7.1680 C.ar   77  PHE77      -0.0003
     91  CZ       -28.2630   46.1940    6.5310 C.ar   77  PHE77      -0.0000
     92  N        -26.2530   58.4010   10.7320 N.3   144  ASN144     -0.1240
     93  CA       -26.8150   57.1440   10.2330 C.3   144  ASN144      0.1653
     94  C        -27.0660   57.1400    8.7310 C.2   144  ASN144      0.2266
     95  O        -28.0640   56.5760    8.2710 O.2   144  ASN144     -0.2867
     96  CB       -28.0920   56.8130   10.9980 C.3   144  ASN144      0.1155
     97  CG       -27.9480   57.0310   12.4890 C.2   144  ASN144      0.2627
     98  OD1      -26.9130   56.7110   13.0760 O.2   144  ASN144     -0.2716
     99  ND2      -28.9870   57.5750   13.1120 N.am  144  ASN144     -0.0877
    100  N        -22.4840   56.2630    8.0260 N.3   148  LEU148     -0.1231
    101  CA       -22.7580   54.8320    7.9750 C.3   148  LEU148      0.1693
    102  C        -22.4270   54.2550    6.6040 C.2   148  LEU148      0.2592
    103  O        -21.5630   53.3790    6.4720 O.2   148  LEU148     -0.2718
    104  CB       -24.2250   54.5840    8.3290 C.3   148  LEU148      0.0284
    105  CG       -24.7200   53.1390    8.3410 C.3   148  LEU148      0.0019
    106  CD1      -24.1050   52.3740    9.5030 C.3   148  LEU148      0.0001
    107  CD2      -26.2400   53.1070    8.4090 C.3   148  LEU148      0.0001
    108  N        -23.1040   54.7460    5.5650 N.am  149  TRP149     -0.1976
    109  CA       -22.8960   54.2080    4.2290 C.3   149  TRP149      0.1640
    110  C        -21.5350   54.5820    3.6600 C.2   149  TRP149      0.2290
    111  O        -21.0410   53.8890    2.7660 O.2   149  TRP149     -0.2864
    112  CB       -24.0100   54.6760    3.2960 C.3   149  TRP149      0.0576
    113  CG       -25.3740   54.3220    3.7970 C.ar  149  TRP149      0.0006
    114  CD1      -26.4080   55.1810    4.0340 C.ar  149  TRP149      0.0946
    115  CD2      -25.8490   53.0160    4.1510 C.ar  149  TRP149      0.0152
    116  NE1      -27.5020   54.4890    4.4970 N.ar  149  TRP149     -0.2442
    117  CE2      -27.1840   53.1590    4.5800 C.ar  149  TRP149      0.0810
    118  CE3      -25.2770   51.7390    4.1400 C.ar  149  TRP149      0.0012
    119  CZ2      -27.9540   52.0750    4.9940 C.ar  149  TRP149      0.0191
    120  CZ3      -26.0440   50.6670    4.5510 C.ar  149  TRP149      0.0001
    121  CH2      -27.3660   50.8410    4.9730 C.ar  149  TRP149      0.0015
    122  N        -30.7930   53.3300   -0.1510 N.3   201  GLN201     -0.1245
    123  CA       -29.9140   52.4730    0.6380 C.3   201  GLN201      0.1566
    124  C        -30.2310   50.9970    0.4550 C.2   201  GLN201      0.2260
    125  O        -29.3510   50.1540    0.6680 O.2   201  GLN201     -0.2867
    126  CB       -30.0090   52.8380    2.1200 C.3   201  GLN201      0.0367
    127  CG       -31.3650   52.5390    2.7460 C.3   201  GLN201      0.0905
    128  CD       -31.3850   52.7800    4.2420 C.2   201  GLN201      0.2608
    129  OE1      -30.6470   53.6190    4.7570 O.2   201  GLN201     -0.2717
    130  NE2      -32.2400   52.0480    4.9490 N.am  201  GLN201     -0.0878
    131  N        -27.7660   47.7100    0.5950 N.3   205  ILE205     -0.1245
    132  CA       -27.9860   46.6040    1.5230 C.3   205  ILE205      0.1561
    133  C        -28.1890   45.3010    0.7600 C.2   205  ILE205      0.2260
    134  O        -27.6060   44.2630    1.0980 O.2   205  ILE205     -0.2867
    135  CB       -29.1760   46.9170    2.4450 C.3   205  ILE205      0.0252
    136  CG1      -28.8090   48.0700    3.3780 C.3   205  ILE205      0.0019
    137  CG2      -29.6040   45.6750    3.2180 C.3   205  ILE205      0.0019
    138  CD1      -29.9720   48.6460    4.1230 C.3   205  ILE205      0.0001
@<TRIPOS>BOND
     1   122   123    1
     2   124   123    1
     3   124   125    2
     4   131   132    1
     5   123   126    1
     6   133   134    2
     7   133   132    1
     8   132   135    1
     9   126   127    1
    10   135   137    1
    11   135   136    1
    12   127   128    1
    13   111   110    2
    14   112   113    1
    15   112   109    1
    16   136   138    1
    17   110   109    1
    18   113   114   ar
    19   113   115   ar
    20   114   116   ar
    21   118   115   ar
    22   118   120   ar
    23   115   117   ar
    24   109   108    1
    25   128   129    2
    26   128   130   am
    27    53    51    1
    28    52    51    1
    29   116   117   ar
    30   120   121   ar
    31   117   119   ar
    32   121   119   ar
    33    51    50    2
    34   108   102   am
    35    84    83    2
    36    89    87   ar
    37    89    91   ar
    38    87    86   ar
    39    50    49    1
    40   103   102    2
    41    91    90   ar
    42   102   101    1
    43    86    85    1
    44    86    88   ar
    45    83    82    1
    46    85    82    1
    47    82    81    1
    48    49    48    1
    49    90    88   ar
    50    48    47    1
    51   101   100    1
    52   101   104    1
    53    95    94    2
    54   104   105    1
    55   105   107    1
    56   105   106    1
    57    94    93    1
    58    47    44    1
    59    40    39    2
    60    44    45    1
    61    44    43    1
    62    57    56    2
    63    46    45    2
    64    39    43   am
    65    39    38    1
    66    64    63    2
    67    45    54   am
    68    93    92    1
    69    93    96    1
    70    75    74    2
    71    37    38    1
    72    96    97    1
    73    54    55    1
    74    38    41    1
    75    56    61   am
    76    56    55    1
    77    63    62    1
    78    63    72   am
    79    62    61    1
    80    62    65    1
    81    74    73    1
    82    70    69    1
    83    66    65    1
    84    66    67    1
    85    55    58    1
    86    72    73    1
    87    73    76    1
    88    69    71    1
    89    69    68    2
    90    97    98    2
    91    97    99   am
    92    41    42    1
    93    67    68    1
    94    59    58    1
    95    58    60    1
    96    76    77    1
    97    77    78    1
    98     7     5    1
    99     6     5    1
   100     5     2    1
   101    20    17    1
   102    78    79    1
   103    17    16    1
   104    17    18    1
   105    26    25    1
   106    21    18   am
   107    21    22    1
   108    25    27    1
   109    25    22    1
   110    24    23    2
   111     2     1    1
   112     2     3    1
   113    16    10   am
   114    79    80    1
   115    18    19    2
   116     4     3    2
   117    11    10    2
   118     3     8   am
   119    22    23    1
   120    10     9    1
   121     8     9    1
   122     9    12    1
   123    12    13    1
   124    13    14    1
   125    36    35    1
   126    35    34    1
   127    14    15    1
   128    34    33    1
   129    33    32    1
   130    32    29    1
   131    29    28    1
   132    29    30    1
   133    31    30    2
