@<TRIPOS>MOLECULE
tmp/5eckA00.pdb
 150 147 0 0 0
SMALL
GASTEIGER

@<TRIPOS>ATOM
      1  N         12.6370   34.1880   41.5000 N.3   115  THR115     -0.1218
      2  CA        12.7230   34.9980   42.7100 C.3   115  THR115      0.1862
      3  C         12.2720   36.4440   42.4990 C.2   115  THR115      0.2287
      4  O         11.3230   36.9390   43.1400 O.2   115  THR115     -0.2866
      5  CB        14.1500   35.0540   43.2080 C.3   115  THR115      0.1770
      6  OG1       14.5910   33.7320   43.5090 O.3   115  THR115     -0.2211
      7  CG2       14.2490   35.9570   44.4540 C.3   115  THR115      0.0375
      8  N          8.7280   37.8850   43.7940 N.3   119  PHE119     -0.1241
      9  CA         8.7220   38.9570   44.7560 C.3   119  PHE119      0.1605
     10  C          8.1920   40.2340   44.1350 C.2   119  PHE119      0.2264
     11  O          7.6180   41.0800   44.8340 O.2   119  PHE119     -0.2867
     12  CB        10.1030   39.2660   45.3450 C.3   119  PHE119      0.0534
     13  CG        10.2150   38.9450   46.8020 C.ar  119  PHE119     -0.0203
     14  CD1        9.0790   38.6950   47.5560 C.ar  119  PHE119     -0.0042
     15  CD2       11.4330   39.1360   47.4590 C.ar  119  PHE119     -0.0042
     16  CE1        9.1820   38.4270   48.9090 C.ar  119  PHE119     -0.0003
     17  CE2       11.5470   38.9240   48.8260 C.ar  119  PHE119     -0.0003
     18  CZ        10.4170   38.5630   49.5600 C.ar  119  PHE119     -0.0000
     19  N         17.0160   39.9420   57.3910 N.3   142  ILE142     -0.1231
     20  CA        17.4880   39.0490   56.3570 C.3   142  ILE142      0.1692
     21  C         18.9920   39.0070   56.4120 C.2   142  ILE142      0.2592
     22  O         19.6720   40.0010   56.6580 O.2   142  ILE142     -0.2718
     23  CB        16.9760   39.4990   54.9700 C.3   142  ILE142      0.0266
     24  CG1       17.7590   40.6790   54.4040 C.3   142  ILE142      0.0019
     25  CG2       15.5140   39.8800   55.0480 C.3   142  ILE142      0.0020
     26  CD1       17.4580   40.9100   52.9570 C.3   142  ILE142      0.0001
     27  N         19.5150   37.8110   56.1530 N.am  143  PHE143     -0.1976
     28  CA        20.9340   37.5560   56.2340 C.3   143  PHE143      0.1639
     29  C         21.3620   36.5380   55.1990 C.2   143  PHE143      0.2290
     30  O         20.5730   35.7150   54.7650 O.2   143  PHE143     -0.2864
     31  CB        21.3100   37.0670   57.6290 C.3   143  PHE143      0.0560
     32  CG        21.3940   38.1610   58.6290 C.ar  143  PHE143     -0.0200
     33  CD1       22.3230   39.1750   58.4830 C.ar  143  PHE143     -0.0042
     34  CD2       20.5190   38.1750   59.7090 C.ar  143  PHE143     -0.0042
     35  CE1       22.3940   40.1850   59.4160 C.ar  143  PHE143     -0.0003
     36  CE2       20.5700   39.1920   60.6370 C.ar  143  PHE143     -0.0003
     37  CZ        21.5030   40.1970   60.4800 C.ar  143  PHE143     -0.0000
     38  N         19.4510   29.2660   49.4580 N.3   159  ALA159     -0.1231
     39  CA        18.5340   30.0980   48.7250 C.3   159  ALA159      0.1694
     40  C         18.7230   31.5510   49.1720 C.2   159  ALA159      0.2592
     41  O         18.7860   32.4320   48.3270 O.2   159  ALA159     -0.2718
     42  CB        17.0950   29.6170   48.9080 C.3   159  ALA159      0.0304
     43  N         18.8560   31.7870   50.4860 N.am  160  THR160     -0.1953
     44  CA        19.2050   33.1140   51.0190 C.3   160  THR160      0.1897
     45  C         20.4070   33.7560   50.3350 C.2   160  THR160      0.2313
     46  O         20.3170   34.8100   49.7520 O.2   160  THR160     -0.2863
     47  CB        19.6430   33.0720   52.4780 C.3   160  THR160      0.1794
     48  OG1       20.8400   32.2940   52.5440 O.3   160  THR160     -0.2208
     49  CG2       18.6170   32.4800   53.3730 C.3   160  THR160      0.0378
     50  N         20.5220   34.5600   46.5110 N.3   163  VAL163     -0.1231
     51  CA        19.7830   35.7340   46.0350 C.3   163  VAL163      0.1692
     52  C         20.6890   36.9050   46.2710 C.2   163  VAL163      0.2592
     53  O         21.0370   37.6260   45.3550 O.2   163  VAL163     -0.2718
     54  CB        18.4580   36.0800   46.7680 C.3   163  VAL163      0.0266
     55  CG1       17.4150   36.5420   45.7820 C.3   163  VAL163      0.0020
     56  CG2       17.9420   35.0110   47.6480 C.3   163  VAL163      0.0020
     57  N         21.0760   37.0280   47.5350 N.am  164  TYR164     -0.1976
     58  CA        21.6390   38.2250   48.1210 C.3   164  TYR164      0.1639
     59  C         23.0190   38.5860   47.5980 C.2   164  TYR164      0.2290
     60  O         23.3110   39.7670   47.4330 O.2   164  TYR164     -0.2864
     61  CB        21.6980   38.0620   49.6430 C.3   164  TYR164      0.0560
     62  CG        20.3300   37.9780   50.3150 C.ar  164  TYR164     -0.0198
     63  CD1       19.1690   38.0300   49.5720 C.ar  164  TYR164     -0.0009
     64  CD2       20.2090   37.8710   51.6900 C.ar  164  TYR164     -0.0009
     65  CE1       17.9400   37.9860   50.1560 C.ar  164  TYR164      0.0417
     66  CE2       18.9690   37.8050   52.2990 C.ar  164  TYR164      0.0417
     67  CZ        17.8330   37.8590   51.5210 C.ar  164  TYR164      0.1957
     68  OH        16.5700   37.8360   52.0890 O.3   164  TYR164     -0.2866
     69  N         21.0310   40.8280   42.4490 N.3   169  PHE169     -0.1241
     70  CA        20.1770   40.9940   43.6110 C.3   169  PHE169      0.1605
     71  C         19.7740   42.4360   43.7990 C.2   169  PHE169      0.2264
     72  O         18.5770   42.7390   43.8340 O.2   169  PHE169     -0.2867
     73  CB        20.8820   40.5100   44.8670 C.3   169  PHE169      0.0534
     74  CG        20.0410   40.6130   46.0930 C.ar  169  PHE169     -0.0203
     75  CD1       18.8460   39.9040   46.1850 C.ar  169  PHE169     -0.0042
     76  CD2       20.4250   41.4340   47.1370 C.ar  169  PHE169     -0.0042
     77  CE1       18.0570   40.0040   47.3010 C.ar  169  PHE169     -0.0003
     78  CE2       19.6530   41.5250   48.2600 C.ar  169  PHE169     -0.0003
     79  CZ        18.4680   40.8140   48.3550 C.ar  169  PHE169     -0.0000
     80  N          9.9940   42.5630   58.8000 N.3   214  PHE214     -0.1241
     81  CA        10.0540   41.3300   58.0410 C.3   214  PHE214      0.1605
     82  C         10.9710   40.2630   58.6300 C.2   214  PHE214      0.2264
     83  O         12.0030   40.5450   59.2550 O.2   214  PHE214     -0.2867
     84  CB        10.4860   41.6160   56.5890 C.3   214  PHE214      0.0534
     85  CG        10.6350   40.3770   55.7620 C.ar  214  PHE214     -0.0203
     86  CD1        9.5170   39.7480   55.2190 C.ar  214  PHE214     -0.0042
     87  CD2       11.8860   39.8120   55.5710 C.ar  214  PHE214     -0.0042
     88  CE1        9.6580   38.5840   54.4840 C.ar  214  PHE214     -0.0003
     89  CE2       12.0330   38.6570   54.8330 C.ar  214  PHE214     -0.0003
     90  CZ        10.9220   38.0460   54.2970 C.ar  214  PHE214     -0.0000
     91  N         11.4220   35.9070   57.0470 N.3   216  VAL216     -0.1245
     92  CA        10.7460   34.8980   56.2880 C.3   216  VAL216      0.1561
     93  C          9.7370   34.2440   57.2130 C.2   216  VAL216      0.2260
     94  O          8.6340   33.8990   56.8180 O.2   216  VAL216     -0.2867
     95  CB        11.7370   33.8970   55.7560 C.3   216  VAL216      0.0252
     96  CG1       11.0460   32.6880   55.1370 C.3   216  VAL216      0.0019
     97  CG2       12.7210   34.6050   54.8480 C.3   216  VAL216      0.0019
     98  N          9.9190   27.2760   42.9220 N.3   330  TRP330     -0.1241
     99  CA         8.8280   28.0640   43.4590 C.3   330  TRP330      0.1605
    100  C          7.4660   27.4630   43.1100 C.2   330  TRP330      0.2264
    101  O          7.2860   26.8920   42.0320 O.2   330  TRP330     -0.2867
    102  CB         8.9030   29.4640   42.9300 C.3   330  TRP330      0.0550
    103  CG         9.9650   30.3060   43.5250 C.ar  330  TRP330      0.0003
    104  CD1       11.1700   30.6050   42.9720 C.ar  330  TRP330      0.0946
    105  CD2        9.9220   30.9790   44.7860 C.ar  330  TRP330      0.0152
    106  NE1       11.8660   31.4560   43.7900 N.ar  330  TRP330     -0.2442
    107  CE2       11.1310   31.6870   44.9190 C.ar  330  TRP330      0.0810
    108  CE3        8.9640   31.0820   45.8020 C.ar  330  TRP330      0.0012
    109  CZ2       11.4080   32.4770   46.0260 C.ar  330  TRP330      0.0191
    110  CZ3        9.2390   31.8550   46.8850 C.ar  330  TRP330      0.0001
    111  CH2       10.4570   32.5350   47.0030 C.ar  330  TRP330      0.0015
    112  N         18.0480   29.3060   61.3220 N.3   523  ARG523     -0.1231
    113  CA        16.8360   30.0730   61.0370 C.3   523  ARG523      0.1694
    114  C         16.7910   30.3400   59.5380 C.2   523  ARG523      0.2591
    115  O         15.7250   30.3320   58.9560 O.2   523  ARG523     -0.2718
    116  CB        16.8130   31.3960   61.8370 C.3   523  ARG523      0.0321
    117  CG        15.6750   32.4030   61.5040 C.3   523  ARG523      0.0489
    118  CD        16.0620   33.8360   61.8750 C.3   523  ARG523      0.2205
    119  NE        16.4740   34.6060   60.6960 N.pl3 523  ARG523     -0.0865
    120  CZ        15.6390   35.3370   59.9530 C.cat 523  ARG523      0.5346
    121  NH1       14.3420   35.3980   60.2520 N.pl3 523  ARG523      0.1354
    122  NH2       16.0970   35.9890   58.8860 N.pl3 523  ARG523      0.1354
    123  N         17.9540   30.6150   58.9320 N.am  524  LYS524     -0.1980
    124  CA        18.0550   30.7490   57.4730 C.3   524  LYS524      0.1596
    125  C         17.6020   29.4470   56.8490 C.2   524  LYS524      0.2287
    126  O         16.9690   29.4300   55.7980 O.2   524  LYS524     -0.2864
    127  CB        19.4920   31.0770   57.0270 C.3   524  LYS524      0.0298
    128  CG        20.0610   32.4000   57.5260 C.3   524  LYS524      0.0038
    129  CD        21.5560   32.4200   57.2970 C.3   524  LYS524      0.0206
    130  CE        22.1630   33.8020   57.5120 C.3   524  LYS524      0.1093
    131  NZ        21.9850   34.1600   58.9490 N.3   524  LYS524     -0.1314
    132  N         13.8270   29.0220   57.5400 N.3   527  GLU527     -0.1231
    133  CA        13.1060   29.9750   56.7070 C.3   527  GLU527      0.1699
    134  C         13.0680   29.5650   55.2280 C.2   527  GLU527      0.2592
    135  O         12.0280   29.6810   54.5580 O.2   527  GLU527     -0.2718
    136  CB        13.7080   31.3680   56.8870 C.3   527  GLU527      0.0402
    137  CG        13.3440   32.0000   58.2640 C.3   527  GLU527      0.1161
    138  CD        13.5780   33.4850   58.2960 C.2   527  GLU527      0.3649
    139  OE1       14.3740   34.0000   57.4800 O.co2 527  GLU527     -0.2457
    140  OE2       12.9490   34.1560   59.1280 O.co2 527  GLU527     -0.2457
    141  N         14.1660   29.0280   54.7140 N.am  528  HIS528     -0.1976
    142  CA        14.1810   28.6640   53.3140 C.3   528  HIS528      0.1656
    143  C         13.3500   27.4070   53.1040 C.2   528  HIS528      0.2291
    144  O         12.7100   27.2500   52.0660 O.2   528  HIS528     -0.2864
    145  CB        15.6140   28.4450   52.8220 C.3   528  HIS528      0.0771
    146  CG        16.1780   27.0980   53.1710 C.ar  528  HIS528      0.0820
    147  ND1       17.2260   26.9500   54.0450 N.ar  528  HIS528     -0.2267
    148  CD2       15.8720   25.8470   52.7340 C.ar  528  HIS528      0.1154
    149  CE1       17.5180   25.6640   54.1750 C.ar  528  HIS528      0.1986
    150  NE2       16.7170   24.9790   53.3790 N.ar  528  HIS528     -0.2212
@<TRIPOS>BOND
     1     1     2    1
     2   101   100    2
     3    69    70    1
     4     3     2    1
     5     3     4    2
     6     2     5    1
     7    98    99    1
     8   102    99    1
     9   102   103    1
    10   104   103   ar
    11   104   106   ar
    12   100    99    1
    13     5     6    1
    14     5     7    1
    15   103   105   ar
    16    70    71    1
    17    70    73    1
    18   106   107   ar
    19     8     9    1
    20    71    72    2
    21    10     9    1
    22    10    11    2
    23     9    12    1
    24   105   107   ar
    25   105   108   ar
    26    73    74    1
    27   107   109   ar
    28    12    13    1
    29    53    52    2
    30    55    54    1
    31   108   110   ar
    32   109   111   ar
    33    51    52    1
    34    51    50    1
    35    51    54    1
    36    74    75   ar
    37    74    76   ar
    38    75    77   ar
    39    52    57   am
    40    54    56    1
    41    13    15   ar
    42    13    14   ar
    43   110   111   ar
    44    76    78   ar
    45    77    79   ar
    46    60    59    2
    47    15    17   ar
    48    57    58    1
    49    14    16   ar
    50    59    58    1
    51    58    61    1
    52    78    79   ar
    53    41    40    2
    54    39    42    1
    55    39    40    1
    56    39    38    1
    57    17    18   ar
    58    16    18   ar
    59    40    43   am
    60    63    65   ar
    61    63    62   ar
    62    61    62    1
    63    46    45    2
    64    65    67   ar
    65    62    64   ar
    66    45    44    1
    67    43    44    1
    68    44    47    1
    69    67    68    1
    70    67    66   ar
    71    64    66   ar
    72   144   143    2
    73    47    48    1
    74    47    49    1
    75   148   146   ar
    76   148   150   ar
    77   145   146    1
    78   145   142    1
    79    26    24    1
    80   143   142    1
    81   146   147   ar
    82   142   141    1
    83   150   149   ar
    84   147   149   ar
    85    90    88   ar
    86    90    89   ar
    87    24    23    1
    88    88    86   ar
    89   135   134    2
    90   141   134   am
    91    30    29    2
    92    89    87   ar
    93    97    95    1
    94    23    25    1
    95    23    20    1
    96    96    95    1
    97    29    28    1
    98    86    85   ar
    99   134   133    1
   100    87    85   ar
   101    95    92    1
   102    85    84    1
   103   126   125    2
   104    27    28    1
   105    27    21   am
   106    28    31    1
   107    92    91    1
   108    92    93    1
   109    20    21    1
   110    20    19    1
   111    21    22    2
   112    84    81    1
   113   133   136    1
   114   133   132    1
   115    94    93    2
   116   125   124    1
   117   136   137    1
   118   127   124    1
   119   127   128    1
   120   129   130    1
   121   129   128    1
   122   124   123    1
   123   139   138   ar
   124   130   131    1
   125    31    32    1
   126    81    82    1
   127    81    80    1
   128   137   138    1
   129   138   140   ar
   130    33    32   ar
   131    33    35   ar
   132    32    34   ar
   133    82    83    2
   134   122   120    1
   135   123   114   am
   136   115   114    2
   137    35    37   ar
   138   114   113    1
   139    34    36   ar
   140   120   121    1
   141   120   119    2
   142    37    36   ar
   143   119   118    1
   144   113   112    1
   145   113   116    1
   146   117   116    1
   147   117   118    1
