@<TRIPOS>MOLECULE
tmp/5ecnD01.pdb
 131 123 0 0 0
SMALL
GASTEIGER

@<TRIPOS>ATOM
      1  N        -25.9040   25.2510  138.3360 N.3   115  THR115     -0.1218
      2  CA       -25.9300   26.0100  139.5720 C.3   115  THR115      0.1862
      3  C        -26.3050   27.4600  139.3680 C.2   115  THR115      0.2287
      4  O        -27.1710   27.9750  140.0580 O.2   115  THR115     -0.2866
      5  CB       -24.5740   25.9170  140.2050 C.3   115  THR115      0.1770
      6  OG1      -24.2490   24.5450  140.2740 O.3   115  THR115     -0.2211
      7  CG2      -24.5390   26.4700  141.5690 C.3   115  THR115      0.0375
      8  N        -30.1090   28.9310  140.5110 N.3   119  PHE119     -0.1241
      9  CA       -30.1920   30.0020  141.4900 C.3   119  PHE119      0.1605
     10  C        -30.8200   31.2180  140.8710 C.2   119  PHE119      0.2264
     11  O        -31.6020   31.8940  141.5090 O.2   119  PHE119     -0.2867
     12  CB       -28.8230   30.3510  142.0660 C.3   119  PHE119      0.0534
     13  CG       -28.6780   29.9780  143.5090 C.ar  119  PHE119     -0.0203
     14  CD1      -29.5760   29.1070  144.1030 C.ar  119  PHE119     -0.0042
     15  CD2      -27.6490   30.4950  144.2720 C.ar  119  PHE119     -0.0042
     16  CE1      -29.4110   28.7470  145.4270 C.ar  119  PHE119     -0.0003
     17  CE2      -27.4970   30.1500  145.5940 C.ar  119  PHE119     -0.0003
     18  CZ       -28.3840   29.2740  146.1770 C.ar  119  PHE119     -0.0000
     19  N        -22.2590   30.4230  154.4490 N.3   142  ILE142     -0.1245
     20  CA       -21.7730   29.5630  153.3770 C.3   142  ILE142      0.1561
     21  C        -20.2480   29.5620  153.3530 C.2   142  ILE142      0.2260
     22  O        -19.6100   30.6140  153.5170 O.2   142  ILE142     -0.2867
     23  CB       -22.2880   30.0340  152.0160 C.3   142  ILE142      0.0252
     24  CG1      -21.8920   31.4980  151.7960 C.3   142  ILE142      0.0019
     25  CG2      -23.8020   29.8720  151.9420 C.3   142  ILE142      0.0019
     26  CD1      -22.0240   31.9600  150.3760 C.3   142  ILE142      0.0001
     27  N        -16.0070   18.9670  146.9530 N.3   158  THR158     -0.1203
     28  CA       -17.3670   19.1880  147.4260 C.3   158  THR158      0.1994
     29  C        -18.1460   20.0660  146.4720 C.2   158  THR158      0.2618
     30  O        -17.5750   20.8290  145.6870 O.2   158  THR158     -0.2717
     31  CB       -17.4330   19.8950  148.8080 C.3   158  THR158      0.1784
     32  OG1      -16.4330   20.9100  148.8810 O.3   158  THR158     -0.2211
     33  CG2      -17.2620   18.9350  149.9560 C.3   158  THR158      0.0376
     34  N        -19.4600   19.9600  146.5970 N.am  159  ALA159     -0.1965
     35  CA       -20.4160   20.7830  145.8850 C.3   159  ALA159      0.1728
     36  C        -20.1820   22.2290  146.2140 C.2   159  ALA159      0.2616
     37  O        -20.0980   23.0710  145.3250 O.2   159  ALA159     -0.2715
     38  CB       -21.8120   20.3920  146.2640 C.3   159  ALA159      0.0334
     39  N        -20.0950   22.5020  147.5090 N.am  160  THR160     -0.1951
     40  CA       -19.8940   23.8530  147.9990 C.3   160  THR160      0.1897
     41  C        -18.6400   24.5100  147.4360 C.2   160  THR160      0.2313
     42  O        -18.6840   25.6180  146.8880 O.2   160  THR160     -0.2863
     43  CB       -19.7600   23.8860  149.5270 C.3   160  THR160      0.1794
     44  OG1      -20.9870   23.4970  150.1490 O.3   160  THR160     -0.2208
     45  CG2      -19.5050   25.2690  149.9150 C.3   160  THR160      0.0378
     46  N        -18.6070   25.1650  143.4720 N.3   163  VAL163     -0.1231
     47  CA       -19.3350   26.4170  143.1300 C.3   163  VAL163      0.1692
     48  C        -18.4880   27.6380  143.3470 C.2   163  VAL163      0.2592
     49  O        -18.2280   28.4130  142.4440 O.2   163  VAL163     -0.2718
     50  CB       -20.5940   26.7250  143.9930 C.3   163  VAL163      0.0266
     51  CG1      -21.4770   27.7560  143.2970 C.3   163  VAL163      0.0020
     52  CG2      -21.4000   25.5530  144.3130 C.3   163  VAL163      0.0020
     53  N        -18.0960   27.8080  144.5980 N.am  164  TYR164     -0.1976
     54  CA       -17.5180   29.0610  145.0500 C.3   164  TYR164      0.1639
     55  C        -16.0840   29.2470  144.5740 C.2   164  TYR164      0.2290
     56  O        -15.6200   30.3740  144.4460 O.2   164  TYR164     -0.2864
     57  CB       -17.5710   29.1390  146.5680 C.3   164  TYR164      0.0560
     58  CG       -18.9620   29.1130  147.1710 C.ar  164  TYR164     -0.0198
     59  CD1      -20.0850   29.1710  146.3710 C.ar  164  TYR164     -0.0009
     60  CD2      -19.1460   29.0320  148.5410 C.ar  164  TYR164     -0.0009
     61  CE1      -21.3460   29.1600  146.9040 C.ar  164  TYR164      0.0417
     62  CE2      -20.4100   29.0170  149.0860 C.ar  164  TYR164      0.0417
     63  CZ       -21.5030   29.0800  148.2620 C.ar  164  TYR164      0.1957
     64  OH       -22.7730   29.0750  148.7860 O.3   164  TYR164     -0.2866
     65  N        -29.2900   33.6700  155.3160 N.3   214  PHE214     -0.1241
     66  CA       -29.2200   32.4230  154.5760 C.3   214  PHE214      0.1605
     67  C        -28.1350   31.4850  155.1050 C.2   214  PHE214      0.2264
     68  O        -27.0080   31.8870  155.3520 O.2   214  PHE214     -0.2867
     69  CB       -28.9940   32.7330  153.0970 C.3   214  PHE214      0.0534
     70  CG       -28.7120   31.5200  152.2550 C.ar  214  PHE214     -0.0203
     71  CD1      -29.7090   30.6110  151.9710 C.ar  214  PHE214     -0.0042
     72  CD2      -27.4470   31.3010  151.7540 C.ar  214  PHE214     -0.0042
     73  CE1      -29.4500   29.5060  151.1990 C.ar  214  PHE214     -0.0003
     74  CE2      -27.1770   30.2100  150.9680 C.ar  214  PHE214     -0.0003
     75  CZ       -28.1780   29.3080  150.7030 C.ar  214  PHE214     -0.0000
     76  N        -27.4090   27.0410  154.2670 N.3   216  VAL216     -0.1245
     77  CA       -28.0090   25.9530  153.5330 C.3   216  VAL216      0.1561
     78  C        -28.9620   25.1900  154.4370 C.2   216  VAL216      0.2260
     79  O        -30.0570   24.8050  154.0110 O.2   216  VAL216     -0.2867
     80  CB       -26.9570   25.0170  152.9740 C.3   216  VAL216      0.0252
     81  CG1      -27.6090   23.7900  152.3760 C.3   216  VAL216      0.0019
     82  CG2      -26.1520   25.7490  151.9540 C.3   216  VAL216      0.0019
     83  N        -33.0040   24.8250  152.6590 N.3   298  ILE298     -0.1245
     84  CA       -33.8590   23.6530  152.4580 C.3   298  ILE298      0.1561
     85  C        -34.3840   23.1920  153.8050 C.2   298  ILE298      0.2260
     86  O        -33.6230   22.6900  154.6270 O.2   298  ILE298     -0.2867
     87  CB       -33.1220   22.4690  151.8150 C.3   298  ILE298      0.0252
     88  CG1      -32.0490   22.9490  150.8310 C.3   298  ILE298      0.0019
     89  CG2      -34.1250   21.5010  151.1660 C.3   298  ILE298      0.0019
     90  CD1      -30.6680   22.3660  151.1630 C.3   298  ILE298      0.0001
     91  N        -21.3070   21.3500  156.1550 N.3   524  LYS524     -0.1245
     92  CA       -21.1900   21.5800  154.7090 C.3   524  LYS524      0.1561
     93  C        -21.5720   20.3340  153.9360 C.2   524  LYS524      0.2260
     94  O        -22.2270   20.3900  152.9050 O.2   524  LYS524     -0.2867
     95  CB       -19.7720   21.9920  154.3280 C.3   524  LYS524      0.0271
     96  CG       -19.2890   23.2410  154.9960 C.3   524  LYS524      0.0035
     97  CD       -17.9210   23.5930  154.4740 C.3   524  LYS524      0.0206
     98  CE       -17.0760   24.2520  155.5570 C.3   524  LYS524      0.1093
     99  NZ       -15.8650   24.8380  154.9230 N.3   524  LYS524     -0.1314
    100  N        -25.5330   19.7140  154.5190 N.3   527  GLU527     -0.1231
    101  CA       -26.1170   20.7970  153.7570 C.3   527  GLU527      0.1699
    102  C        -26.2100   20.3710  152.3180 C.2   527  GLU527      0.2592
    103  O        -27.2300   20.5230  151.6550 O.2   527  GLU527     -0.2718
    104  CB       -25.2540   22.0390  153.8680 C.3   527  GLU527      0.0402
    105  CG       -25.4380   22.8630  155.1300 C.3   527  GLU527      0.1161
    106  CD       -24.5110   24.0510  155.1110 C.2   527  GLU527      0.3649
    107  OE1      -24.0380   24.3990  154.0200 O.co2 527  GLU527     -0.2457
    108  OE2      -24.2010   24.6120  156.1780 O.co2 527  GLU527     -0.2457
    109  N        -25.1050   19.7960  151.8710 N.am  528  HIS528     -0.1976
    110  CA       -24.9860   19.2550  150.5370 C.3   528  HIS528      0.1656
    111  C        -25.9250   18.0820  150.3150 C.2   528  HIS528      0.2291
    112  O        -26.6250   18.0090  149.3040 O.2   528  HIS528     -0.2864
    113  CB       -23.5370   18.8350  150.2970 C.3   528  HIS528      0.0771
    114  CG       -23.3900   17.7780  149.2640 C.ar  528  HIS528      0.0820
    115  ND1      -23.0290   16.4770  149.5660 N.ar  528  HIS528     -0.2267
    116  CD2      -23.5680   17.8140  147.9260 C.ar  528  HIS528      0.1154
    117  CE1      -22.9890   15.7660  148.4570 C.ar  528  HIS528      0.1986
    118  NE2      -23.2990   16.5580  147.4420 N.ar  528  HIS528     -0.2212
    119  N        -29.4210   18.7800  150.2520 N.3   531  GLY531     -0.1225
    120  CA       -29.3150   19.5180  149.0170 C.3   531  GLY531      0.1811
    121  C        -29.1880   18.6440  147.7650 C.2   531  GLY531      0.2280
    122  O        -29.2750   19.1730  146.6700 O.2   531  GLY531     -0.2866
    123  N        -16.4530   14.1510  149.1760 N.3   551  LYS551     -0.1245
    124  CA       -17.0720   15.3280  149.7810 C.3   551  LYS551      0.1561
    125  C        -16.2560   15.6710  150.9940 C.2   551  LYS551      0.2260
    126  O        -15.6760   16.7400  151.1020 O.2   551  LYS551     -0.2867
    127  CB       -18.5330   15.0700  150.1840 C.3   551  LYS551      0.0271
    128  CG       -19.4550   14.7690  149.0230 C.3   551  LYS551      0.0035
    129  CD       -19.4030   15.8730  147.9880 C.3   551  LYS551      0.0206
    130  CE       -20.0400   17.1140  148.5550 C.3   551  LYS551      0.1093
    131  NZ       -20.6520   17.8730  147.4470 N.3   551  LYS551     -0.1314
@<TRIPOS>BOND
     1     1     2    1
     2     3     2    1
     3     3     4    2
     4     2     5    1
     5     5     6    1
     6     5     7    1
     7     8     9    1
     8    10     9    1
     9    10    11    2
    10     9    12    1
    11    12    13    1
    12    49    48    2
    13    47    48    1
    14    47    46    1
    15    47    50    1
    16    51    50    1
    17    48    53   am
    18    13    14   ar
    19    13    15   ar
    20    50    52    1
    21    14    16   ar
    22    15    17   ar
    23    56    55    2
    24    55    54    1
    25    53    54    1
    26    54    57    1
    27    37    36    2
    28    16    18   ar
    29    17    18   ar
    30    30    29    2
    31    35    36    1
    32    35    38    1
    33    35    34    1
    34    36    39   am
    35    59    61   ar
    36    59    58   ar
    37    29    34   am
    38    29    28    1
    39    57    58    1
    40   122   121    2
    41    42    41    2
    42    61    63   ar
    43    27    28    1
    44    58    60   ar
    45    28    31    1
    46    41    40    1
    47   118   116   ar
    48   118   117   ar
    49   131   130    1
    50    39    40    1
    51   121   120    1
    52   116   114   ar
    53   129   130    1
    54   129   128    1
    55    40    43    1
    56    63    64    1
    57    63    62   ar
    58   117   115   ar
    59    60    62   ar
    60    31    32    1
    61    31    33    1
    62   120   119    1
    63   128   127    1
    64   123   124    1
    65   114   115   ar
    66   114   113    1
    67   112   111    2
    68    43    45    1
    69    43    44    1
    70   124   127    1
    71   124   125    1
    72   113   110    1
    73   111   110    1
    74    26    24    1
    75   110   109    1
    76    75    74   ar
    77    75    73   ar
    78    88    90    1
    79    88    87    1
    80    74    72   ar
    81   125   126    2
    82    89    87    1
    83    73    71   ar
    84   103   102    2
    85    72    70   ar
    86    24    23    1
    87    87    84    1
    88   109   102   am
    89    25    23    1
    90    82    80    1
    91    71    70   ar
    92    23    20    1
    93    70    69    1
    94   102   101    1
    95    81    80    1
    96    84    83    1
    97    84    85    1
    98    94    93    2
    99    80    77    1
   100    69    66    1
   101    21    20    1
   102    21    22    2
   103    20    19    1
   104    77    76    1
   105    77    78    1
   106   101   104    1
   107   101   100    1
   108    85    86    2
   109   104   105    1
   110    93    92    1
   111    79    78    2
   112   107   106   ar
   113    95    92    1
   114    95    96    1
   115    97    96    1
   116    97    98    1
   117    66    67    1
   118    66    65    1
   119    92    91    1
   120    99    98    1
   121    67    68    2
   122   106   105    1
   123   106   108   ar
