@<TRIPOS>MOLECULE
tmp/5ecnD00.pdb
 140 135 0 0 0
SMALL
GASTEIGER

@<TRIPOS>ATOM
      1  N        -25.9040   25.2510  138.3360 N.3   115  THR115     -0.1218
      2  CA       -25.9300   26.0100  139.5720 C.3   115  THR115      0.1862
      3  C        -26.3050   27.4600  139.3680 C.2   115  THR115      0.2287
      4  O        -27.1710   27.9750  140.0580 O.2   115  THR115     -0.2866
      5  CB       -24.5740   25.9170  140.2050 C.3   115  THR115      0.1770
      6  OG1      -24.2490   24.5450  140.2740 O.3   115  THR115     -0.2211
      7  CG2      -24.5390   26.4700  141.5690 C.3   115  THR115      0.0375
      8  N        -30.1090   28.9310  140.5110 N.3   119  PHE119     -0.1241
      9  CA       -30.1920   30.0020  141.4900 C.3   119  PHE119      0.1605
     10  C        -30.8200   31.2180  140.8710 C.2   119  PHE119      0.2264
     11  O        -31.6020   31.8940  141.5090 O.2   119  PHE119     -0.2867
     12  CB       -28.8230   30.3510  142.0660 C.3   119  PHE119      0.0534
     13  CG       -28.6780   29.9780  143.5090 C.ar  119  PHE119     -0.0203
     14  CD1      -29.5760   29.1070  144.1030 C.ar  119  PHE119     -0.0042
     15  CD2      -27.6490   30.4950  144.2720 C.ar  119  PHE119     -0.0042
     16  CE1      -29.4110   28.7470  145.4270 C.ar  119  PHE119     -0.0003
     17  CE2      -27.4970   30.1500  145.5940 C.ar  119  PHE119     -0.0003
     18  CZ       -28.3840   29.2740  146.1770 C.ar  119  PHE119     -0.0000
     19  N        -18.6070   25.1650  143.4720 N.3   163  VAL163     -0.1231
     20  CA       -19.3350   26.4170  143.1300 C.3   163  VAL163      0.1692
     21  C        -18.4880   27.6380  143.3470 C.2   163  VAL163      0.2592
     22  O        -18.2280   28.4130  142.4440 O.2   163  VAL163     -0.2718
     23  CB       -20.5940   26.7250  143.9930 C.3   163  VAL163      0.0266
     24  CG1      -21.4770   27.7560  143.2970 C.3   163  VAL163      0.0020
     25  CG2      -21.4000   25.5530  144.3130 C.3   163  VAL163      0.0020
     26  N        -18.0960   27.8080  144.5980 N.am  164  TYR164     -0.1976
     27  CA       -17.5180   29.0610  145.0500 C.3   164  TYR164      0.1639
     28  C        -16.0840   29.2470  144.5740 C.2   164  TYR164      0.2290
     29  O        -15.6200   30.3740  144.4460 O.2   164  TYR164     -0.2864
     30  CB       -17.5710   29.1390  146.5680 C.3   164  TYR164      0.0560
     31  CG       -18.9620   29.1130  147.1710 C.ar  164  TYR164     -0.0198
     32  CD1      -20.0850   29.1710  146.3710 C.ar  164  TYR164     -0.0009
     33  CD2      -19.1460   29.0320  148.5410 C.ar  164  TYR164     -0.0009
     34  CE1      -21.3460   29.1600  146.9040 C.ar  164  TYR164      0.0417
     35  CE2      -20.4100   29.0170  149.0860 C.ar  164  TYR164      0.0417
     36  CZ       -21.5030   29.0800  148.2620 C.ar  164  TYR164      0.1957
     37  OH       -22.7730   29.0750  148.7860 O.3   164  TYR164     -0.2866
     38  N        -22.6580   35.3160  140.2770 N.3   173  MET173     -0.1245
     39  CA       -23.5250   35.5250  141.4280 C.3   173  MET173      0.1570
     40  C        -23.8870   36.9820  141.6820 C.2   173  MET173      0.2261
     41  O        -24.8240   37.2560  142.4150 O.2   173  MET173     -0.2867
     42  CB       -22.8850   34.9370  142.6850 C.3   173  MET173      0.0387
     43  CG       -23.1370   33.4550  142.8260 C.3   173  MET173      0.0595
     44  SD       -24.8310   32.9810  143.2100 S.3   173  MET173     -0.1393
     45  CE       -24.6890   31.2160  142.9170 C.3   173  MET173      0.0692
     46  N        -29.2900   33.6700  155.3160 N.3   214  PHE214     -0.1241
     47  CA       -29.2200   32.4230  154.5760 C.3   214  PHE214      0.1605
     48  C        -28.1350   31.4850  155.1050 C.2   214  PHE214      0.2264
     49  O        -27.0080   31.8870  155.3520 O.2   214  PHE214     -0.2867
     50  CB       -28.9940   32.7330  153.0970 C.3   214  PHE214      0.0534
     51  CG       -28.7120   31.5200  152.2550 C.ar  214  PHE214     -0.0203
     52  CD1      -29.7090   30.6110  151.9710 C.ar  214  PHE214     -0.0042
     53  CD2      -27.4470   31.3010  151.7540 C.ar  214  PHE214     -0.0042
     54  CE1      -29.4500   29.5060  151.1990 C.ar  214  PHE214     -0.0003
     55  CE2      -27.1770   30.2100  150.9680 C.ar  214  PHE214     -0.0003
     56  CZ       -28.1780   29.3080  150.7030 C.ar  214  PHE214     -0.0000
     57  N        -27.4090   27.0410  154.2670 N.3   216  VAL216     -0.1245
     58  CA       -28.0090   25.9530  153.5330 C.3   216  VAL216      0.1561
     59  C        -28.9620   25.1900  154.4370 C.2   216  VAL216      0.2260
     60  O        -30.0570   24.8050  154.0110 O.2   216  VAL216     -0.2867
     61  CB       -26.9570   25.0170  152.9740 C.3   216  VAL216      0.0252
     62  CG1      -27.6090   23.7900  152.3760 C.3   216  VAL216      0.0019
     63  CG2      -26.1520   25.7490  151.9540 C.3   216  VAL216      0.0019
     64  N        -33.3750   28.3810  153.2860 N.3   297  GLY297     -0.1210
     65  CA       -32.5970   27.1590  153.2150 C.3   297  GLY297      0.1956
     66  C        -33.5280   26.0430  152.8110 C.2   297  GLY297      0.2611
     67  O        -34.7080   26.3070  152.6090 O.2   297  GLY297     -0.2717
     68  N        -33.0040   24.8250  152.6590 N.am  298  ILE298     -0.1979
     69  CA       -33.8590   23.6530  152.4580 C.3   298  ILE298      0.1595
     70  C        -34.3840   23.1920  153.8050 C.2   298  ILE298      0.2287
     71  O        -33.6230   22.6900  154.6270 O.2   298  ILE298     -0.2864
     72  CB       -33.1220   22.4690  151.8150 C.3   298  ILE298      0.0276
     73  CG1      -32.0490   22.9490  150.8310 C.3   298  ILE298      0.0022
     74  CG2      -34.1250   21.5010  151.1660 C.3   298  ILE298      0.0022
     75  CD1      -30.6680   22.3660  151.1630 C.3   298  ILE298      0.0001
     76  N        -35.5520   25.8890  150.2920 N.3   322  HIS322     -0.1226
     77  CA       -34.7540   26.0130  149.0650 C.3   322  HIS322      0.1752
     78  C        -34.9620   24.8700  148.0480 C.2   322  HIS322      0.2596
     79  O        -35.7030   23.9160  148.3130 O.2   322  HIS322     -0.2718
     80  CB       -33.2610   26.1410  149.4070 C.3   322  HIS322      0.0759
     81  CG       -32.3960   26.3230  148.1990 C.ar  322  HIS322      0.0818
     82  ND1      -32.5890   27.3520  147.3040 N.ar  322  HIS322     -0.2268
     83  CD2      -31.4290   25.5490  147.6690 C.ar  322  HIS322      0.1154
     84  CE1      -31.7380   27.2330  146.3070 C.ar  322  HIS322      0.1986
     85  NE2      -31.0030   26.1510  146.5110 N.ar  322  HIS322     -0.2212
     86  N        -34.2920   24.9980  146.8950 N.am  323  ASP323     -0.1974
     87  CA       -34.3210   24.0770  145.7510 C.3   323  ASP323      0.1709
     88  C        -33.8800   22.6660  146.0750 C.2   323  ASP323      0.2293
     89  O        -33.3540   22.3890  147.1420 O.2   323  ASP323     -0.2864
     90  CB       -33.4280   24.6050  144.6200 C.3   323  ASP323      0.1436
     91  CG       -33.8620   25.9540  144.1320 C.2   323  ASP323      0.3671
     92  OD1      -34.7260   26.5560  144.8090 O.co2 323  ASP323     -0.2456
     93  OD2      -33.3430   26.4180  143.0900 O.co2 323  ASP323     -0.2456
     94  N        -31.7960   19.8100  144.2490 N.3   325  GLY325     -0.1210
     95  CA       -30.9050   19.1180  143.3220 C.3   325  GLY325      0.1956
     96  C        -29.4200   19.3130  143.5890 C.2   325  GLY325      0.2612
     97  O        -29.0630   20.2350  144.2790 O.2   325  GLY325     -0.2717
     98  N        -28.5530   18.4430  143.0650 N.am  326  SER326     -0.1952
     99  CA       -27.1110   18.5140  143.3860 C.3   326  SER326      0.1924
    100  C        -26.2510   18.4130  142.1460 C.2   326  SER326      0.2314
    101  O        -26.7680   18.4360  141.0330 O.2   326  SER326     -0.2863
    102  CB       -26.7030   17.3990  144.3550 C.3   326  SER326      0.2116
    103  OG       -26.9580   16.1240  143.7840 O.3   326  SER326     -0.2180
    104  N        -29.3410   18.1660  139.4510 N.3   330  TRP330     -0.1241
    105  CA       -30.3820   18.9910  140.0460 C.3   330  TRP330      0.1605
    106  C        -31.7510   18.4970  139.6570 C.2   330  TRP330      0.2264
    107  O        -31.9920   18.1950  138.4960 O.2   330  TRP330     -0.2867
    108  CB       -30.3140   20.4350  139.6110 C.3   330  TRP330      0.0550
    109  CG       -29.2440   21.2910  140.1370 C.ar  330  TRP330      0.0003
    110  CD1      -28.0360   21.5270  139.5540 C.ar  330  TRP330      0.0946
    111  CD2      -29.3000   22.1130  141.3080 C.ar  330  TRP330      0.0152
    112  NE1      -27.3220   22.4270  140.3000 N.ar  330  TRP330     -0.2442
    113  CE2      -28.0750   22.8080  141.3820 C.ar  330  TRP330      0.0810
    114  CE3      -30.2590   22.3260  142.3050 C.ar  330  TRP330      0.0012
    115  CZ2      -27.7730   23.6830  142.4220 C.ar  330  TRP330      0.0191
    116  CZ3      -29.9570   23.2090  143.3440 C.ar  330  TRP330      0.0001
    117  CH2      -28.7260   23.8820  143.3800 C.ar  330  TRP330      0.0015
    118  N        -25.5330   19.7140  154.5190 N.3   527  GLU527     -0.1231
    119  CA       -26.1170   20.7970  153.7570 C.3   527  GLU527      0.1699
    120  C        -26.2100   20.3710  152.3180 C.2   527  GLU527      0.2592
    121  O        -27.2300   20.5230  151.6550 O.2   527  GLU527     -0.2718
    122  CB       -25.2540   22.0390  153.8680 C.3   527  GLU527      0.0402
    123  CG       -25.4380   22.8630  155.1300 C.3   527  GLU527      0.1161
    124  CD       -24.5110   24.0510  155.1110 C.2   527  GLU527      0.3649
    125  OE1      -24.0380   24.3990  154.0200 O.co2 527  GLU527     -0.2457
    126  OE2      -24.2010   24.6120  156.1780 O.co2 527  GLU527     -0.2457
    127  N        -25.1050   19.7960  151.8710 N.am  528  HIS528     -0.1976
    128  CA       -24.9860   19.2550  150.5370 C.3   528  HIS528      0.1656
    129  C        -25.9250   18.0820  150.3150 C.2   528  HIS528      0.2291
    130  O        -26.6250   18.0090  149.3040 O.2   528  HIS528     -0.2864
    131  CB       -23.5370   18.8350  150.2970 C.3   528  HIS528      0.0771
    132  CG       -23.3900   17.7780  149.2640 C.ar  528  HIS528      0.0820
    133  ND1      -23.0290   16.4770  149.5660 N.ar  528  HIS528     -0.2267
    134  CD2      -23.5680   17.8140  147.9260 C.ar  528  HIS528      0.1154
    135  CE1      -22.9890   15.7660  148.4570 C.ar  528  HIS528      0.1986
    136  NE2      -23.2990   16.5580  147.4420 N.ar  528  HIS528     -0.2212
    137  N        -29.4210   18.7800  150.2520 N.3   531  GLY531     -0.1225
    138  CA       -29.3150   19.5180  149.0170 C.3   531  GLY531      0.1811
    139  C        -29.1880   18.6440  147.7650 C.2   531  GLY531      0.2280
    140  O        -29.2750   19.1730  146.6700 O.2   531  GLY531     -0.2866
@<TRIPOS>BOND
     1     1     2    1
     2   107   106    2
     3     3     2    1
     4     3     4    2
     5   104   105    1
     6   110   109   ar
     7   110   112   ar
     8     2     5    1
     9   108   105    1
    10   108   109    1
    11   106   105    1
    12   109   111   ar
    13     5     6    1
    14     5     7    1
    15    38    39    1
    16   112   113   ar
    17     8     9    1
    18    10     9    1
    19    10    11    2
    20   101   100    2
    21   111   113   ar
    22   111   114   ar
    23   113   115   ar
    24    39    40    1
    25    39    42    1
    26     9    12    1
    27    40    41    2
    28    12    13    1
    29   100    99    1
    30   114   116   ar
    31   115   117   ar
    32    22    21    2
    33    42    43    1
    34    43    44    1
    35    45    44    1
    36    98    99    1
    37    98    96   am
    38    93    91   ar
    39    20    21    1
    40    20    19    1
    41    20    23    1
    42    24    23    1
    43    95    96    1
    44    95    94    1
    45   116   117   ar
    46    21    26   am
    47    99   102    1
    48    13    14   ar
    49    13    15   ar
    50    96    97    2
    51   103   102    1
    52    23    25    1
    53    14    16   ar
    54    91    90    1
    55    91    92   ar
    56    15    17   ar
    57    29    28    2
    58    28    27    1
    59    26    27    1
    60    90    87    1
    61    27    30    1
    62    16    18   ar
    63    17    18   ar
    64    87    88    1
    65    87    86    1
    66    88    89    2
    67    84    85   ar
    68    84    82   ar
    69    32    34   ar
    70    32    31   ar
    71    85    83   ar
    72    30    31    1
    73   140   139    2
    74    86    78   am
    75    34    36   ar
    76    31    33   ar
    77    82    81   ar
    78   136   134   ar
    79   136   135   ar
    80    83    81   ar
    81   139   138    1
    82   134   132   ar
    83    78    79    2
    84    78    77    1
    85    81    80    1
    86    36    37    1
    87    36    35   ar
    88   135   133   ar
    89    33    35   ar
    90   138   137    1
    91    77    80    1
    92    77    76    1
    93   132   133   ar
    94   132   131    1
    95   130   129    2
    96   131   128    1
    97   129   128    1
    98   128   127    1
    99    56    55   ar
   100    56    54   ar
   101    73    75    1
   102    73    72    1
   103    55    53   ar
   104    74    72    1
   105    54    52   ar
   106   121   120    2
   107    53    51   ar
   108    72    69    1
   109   127   120   am
   110    63    61    1
   111    52    51   ar
   112    51    50    1
   113   120   119    1
   114    62    61    1
   115    69    68    1
   116    69    70    1
   117    67    66    2
   118    68    66   am
   119    66    65    1
   120    61    58    1
   121    50    47    1
   122    65    64    1
   123    58    57    1
   124    58    59    1
   125   119   122    1
   126   119   118    1
   127    70    71    2
   128   122   123    1
   129    60    59    2
   130   125   124   ar
   131    47    48    1
   132    47    46    1
   133    48    49    2
   134   124   123    1
   135   124   126   ar
