@<TRIPOS>MOLECULE
tmp/5ecnD02.pdb
 168 162 0 0 0
SMALL
GASTEIGER

@<TRIPOS>ATOM
      1  N        -13.2600   17.9540  139.1410 N.3    90  ALA90      -0.1231
      2  CA       -13.5210   17.5420  140.5290 C.3    90  ALA90       0.1694
      3  C        -14.3630   16.2780  140.6640 C.2    90  ALA90       0.2592
      4  O        -14.8730   15.7300  139.6810 O.2    90  ALA90      -0.2718
      5  CB       -14.1810   18.6650  141.3140 C.3    90  ALA90       0.0304
      6  N        -14.4480   15.7720  141.8960 N.am   91  ILE91      -0.1966
      7  CA       -15.1880   14.5450  142.1440 C.3    91  ILE91       0.1727
      8  C        -15.8440   14.5340  143.5660 C.2    91  ILE91       0.2616
      9  O        -15.3630   15.1850  144.4970 O.2    91  ILE91      -0.2715
     10  CB       -14.2670   13.3050  141.9370 C.3    91  ILE91       0.0290
     11  CG1      -13.4780   13.0480  143.1760 C.3    91  ILE91       0.0022
     12  CG2      -13.1540   13.5120  140.9030 C.3    91  ILE91       0.0023
     13  CD1      -13.9930   11.9880  143.8360 C.3    91  ILE91       0.0001
     14  N        -16.9290   13.7760  143.7320 N.am   92  SER92      -0.1950
     15  CA       -17.7350   13.8290  144.9640 C.3    92  SER92       0.1924
     16  C        -18.0380   12.4990  145.6680 C.2    92  SER92       0.2314
     17  O        -17.6780   11.4320  145.2020 O.2    92  SER92      -0.2863
     18  CB       -19.0740   14.5000  144.6790 C.3    92  SER92       0.2116
     19  OG       -19.4890   14.3510  143.3220 O.3    92  SER92      -0.2180
     20  N        -18.2700   10.4410  142.6010 N.3   105  ILE105     -0.1231
     21  CA       -19.1260   10.9730  141.5140 C.3   105  ILE105      0.1678
     22  C        -18.4190   12.0930  140.6880 C.2   105  ILE105      0.2434
     23  O        -17.8320   13.0010  141.2540 O.2   105  ILE105     -0.2733
     24  CB       -20.4720   11.5010  142.0920 C.3   105  ILE105      0.0265
     25  CG1      -21.2370   10.3660  142.7770 C.3   105  ILE105      0.0019
     26  CG2      -21.3570   12.0840  140.9750 C.3   105  ILE105      0.0020
     27  CD1      -21.7460   10.6690  144.1830 C.3   105  ILE105      0.0001
     28  N        -18.4760   12.0200  139.3420 N.am  106  PRO106     -0.2718
     29  CA       -17.7970   12.9730  138.4290 C.3   106  PRO106      0.1535
     30  C        -18.2630   14.4650  138.4570 C.2   106  PRO106      0.2598
     31  O        -19.4110   14.7500  138.7800 O.2   106  PRO106     -0.2715
     32  CB       -18.0690   12.3640  137.0450 C.3   106  PRO106      0.0310
     33  CG       -18.3020   10.8860  137.3110 C.3   106  PRO106      0.0237
     34  CD       -19.0330   10.8560  138.6170 C.3   106  PRO106      0.0939
     35  N        -17.3650   15.4050  138.1430 N.am  107  PHE107     -0.1974
     36  CA       -17.7210   16.8370  138.0860 C.3   107  PHE107      0.1639
     37  C        -17.3110   17.5360  136.7770 C.2   107  PHE107      0.2290
     38  O        -16.2640   17.2640  136.2020 O.2   107  PHE107     -0.2864
     39  CB       -17.1140   17.6030  139.2860 C.3   107  PHE107      0.0560
     40  CG       -17.0610   19.1040  139.0890 C.ar  107  PHE107     -0.0200
     41  CD1      -18.1860   19.8820  139.2910 C.ar  107  PHE107     -0.0042
     42  CD2      -15.8940   19.7250  138.6760 C.ar  107  PHE107     -0.0042
     43  CE1      -18.1390   21.2680  139.0950 C.ar  107  PHE107     -0.0003
     44  CE2      -15.8420   21.0930  138.4890 C.ar  107  PHE107     -0.0003
     45  CZ       -16.9680   21.8650  138.6960 C.ar  107  PHE107     -0.0000
     46  N        -22.2300   21.2710  135.1660 N.3   111  LEU111     -0.1231
     47  CA       -22.8000   21.3770  136.4930 C.3   111  LEU111      0.1693
     48  C        -22.7850   22.8280  136.9750 C.2   111  LEU111      0.2591
     49  O        -23.7350   23.2750  137.6160 O.2   111  LEU111     -0.2718
     50  CB       -22.0500   20.4620  137.4590 C.3   111  LEU111      0.0284
     51  CG       -22.2420   18.9890  137.0830 C.3   111  LEU111      0.0019
     52  CD1      -21.5210   18.1080  138.0830 C.3   111  LEU111      0.0001
     53  CD2      -23.7360   18.6390  137.0150 C.3   111  LEU111      0.0001
     54  N        -21.7340   23.5810  136.6460 N.am  112  MET112     -0.1979
     55  CA       -21.6890   24.9960  137.0480 C.3   112  MET112      0.1605
     56  C        -22.7450   25.8310  136.3200 C.2   112  MET112      0.2287
     57  O        -23.3360   26.7550  136.8990 O.2   112  MET112     -0.2864
     58  CB       -20.2990   25.5920  136.7960 C.3   112  MET112      0.0413
     59  CG       -20.1230   26.9890  137.3830 C.3   112  MET112      0.0598
     60  SD       -20.1900   26.9390  139.1840 S.3   112  MET112     -0.1393
     61  CE       -20.3680   28.6830  139.5790 C.3   112  MET112      0.0692
     62  N        -25.9040   25.2510  138.3360 N.3   115  THR115     -0.1218
     63  CA       -25.9300   26.0100  139.5720 C.3   115  THR115      0.1862
     64  C        -26.3050   27.4600  139.3680 C.2   115  THR115      0.2287
     65  O        -27.1710   27.9750  140.0580 O.2   115  THR115     -0.2866
     66  CB       -24.5740   25.9170  140.2050 C.3   115  THR115      0.1770
     67  OG1      -24.2490   24.5450  140.2740 O.3   115  THR115     -0.2211
     68  CG2      -24.5390   26.4700  141.5690 C.3   115  THR115      0.0375
     69  N        -13.5590   17.1410  144.8300 N.3   157  GLY157     -0.1210
     70  CA       -14.2770   18.2450  145.4380 C.3   157  GLY157      0.1956
     71  C        -15.7190   18.1850  145.9110 C.2   157  GLY157      0.2613
     72  O        -16.5440   17.4740  145.3520 O.2   157  GLY157     -0.2717
     73  N        -16.0070   18.9670  146.9530 N.am  158  THR158     -0.1938
     74  CA       -17.3670   19.1880  147.4260 C.3   158  THR158      0.2028
     75  C        -18.1460   20.0660  146.4720 C.2   158  THR158      0.2642
     76  O        -17.5750   20.8290  145.6870 O.2   158  THR158     -0.2714
     77  CB       -17.4330   19.8950  148.8080 C.3   158  THR158      0.1808
     78  OG1      -16.4330   20.9100  148.8810 O.3   158  THR158     -0.2208
     79  CG2      -17.2620   18.9350  149.9560 C.3   158  THR158      0.0379
     80  N        -19.4600   19.9600  146.5970 N.am  159  ALA159     -0.1963
     81  CA       -20.4160   20.7830  145.8850 C.3   159  ALA159      0.1728
     82  C        -20.1820   22.2290  146.2140 C.2   159  ALA159      0.2616
     83  O        -20.0980   23.0710  145.3250 O.2   159  ALA159     -0.2715
     84  CB       -21.8120   20.3920  146.2640 C.3   159  ALA159      0.0334
     85  N        -20.0950   22.5020  147.5090 N.am  160  THR160     -0.1951
     86  CA       -19.8940   23.8530  147.9990 C.3   160  THR160      0.1897
     87  C        -18.6400   24.5100  147.4360 C.2   160  THR160      0.2313
     88  O        -18.6840   25.6180  146.8880 O.2   160  THR160     -0.2863
     89  CB       -19.7600   23.8860  149.5270 C.3   160  THR160      0.1794
     90  OG1      -20.9870   23.4970  150.1490 O.3   160  THR160     -0.2208
     91  CG2      -19.5050   25.2690  149.9150 C.3   160  THR160      0.0378
     92  N        -16.6420   23.7170  144.9380 N.3   162  ASN162     -0.1225
     93  CA       -16.5700   23.7630  143.4880 C.3   162  ASN162      0.1785
     94  C        -17.4490   24.8610  142.8740 C.2   162  ASN162      0.2597
     95  O        -17.0410   25.4710  141.8890 O.2   162  ASN162     -0.2718
     96  CB       -16.8680   22.3320  143.0930 C.3   162  ASN162      0.1169
     97  CG       -15.6150   21.5470  142.8570 C.2   162  ASN162      0.2627
     98  OD1      -14.7680   21.9190  142.0560 O.2   162  ASN162     -0.2716
     99  ND2      -15.2820   20.8340  143.8920 N.am  162  ASN162     -0.0877
    100  N        -18.6070   25.1650  143.4720 N.am  163  VAL163     -0.1980
    101  CA       -19.3350   26.4170  143.1300 C.3   163  VAL163      0.1595
    102  C        -18.4880   27.6380  143.3470 C.2   163  VAL163      0.2287
    103  O        -18.2280   28.4130  142.4440 O.2   163  VAL163     -0.2864
    104  CB       -20.5940   26.7250  143.9930 C.3   163  VAL163      0.0276
    105  CG1      -21.4770   27.7560  143.2970 C.3   163  VAL163      0.0022
    106  CG2      -21.4000   25.5530  144.3130 C.3   163  VAL163      0.0022
    107  N        -31.7960   19.8100  144.2490 N.3   325  GLY325     -0.1210
    108  CA       -30.9050   19.1180  143.3220 C.3   325  GLY325      0.1956
    109  C        -29.4200   19.3130  143.5890 C.2   325  GLY325      0.2613
    110  O        -29.0630   20.2350  144.2790 O.2   325  GLY325     -0.2717
    111  N        -28.5530   18.4430  143.0650 N.am  326  SER326     -0.1938
    112  CA       -27.1110   18.5140  143.3860 C.3   326  SER326      0.2055
    113  C        -26.2510   18.4130  142.1460 C.2   326  SER326      0.2644
    114  O        -26.7680   18.4360  141.0330 O.2   326  SER326     -0.2714
    115  CB       -26.7030   17.3990  144.3550 C.3   326  SER326      0.2130
    116  OG       -26.9580   16.1240  143.7840 O.3   326  SER326     -0.2179
    117  N        -24.9330   18.3060  142.3150 N.am  327  SER327     -0.1935
    118  CA       -24.1070   18.1070  141.1290 C.3   327  SER327      0.2055
    119  C        -24.2820   16.7020  140.6150 C.2   327  SER327      0.2642
    120  O        -24.0270   16.4550  139.4460 O.2   327  SER327     -0.2714
    121  CB       -22.6310   18.3530  141.3680 C.3   327  SER327      0.2130
    122  OG       -22.3880   19.4830  142.1750 O.3   327  SER327     -0.2179
    123  N        -24.7230   15.7880  141.4800 N.am  328  GLU328     -0.1976
    124  CA       -25.1040   14.4480  141.0280 C.3   328  GLU328      0.1602
    125  C        -26.3120   14.5700  140.1200 C.2   328  GLU328      0.2287
    126  O        -26.6630   13.6370  139.3990 O.2   328  GLU328     -0.2864
    127  CB       -25.4240   13.5140  142.2040 C.3   328  GLU328      0.0415
    128  CG       -24.2100   12.9780  142.9610 C.3   328  GLU328      0.1163
    129  CD       -23.9860   13.7050  144.2680 C.2   328  GLU328      0.3649
    130  OE1      -24.8040   14.5800  144.5800 O.co2 328  GLU328     -0.2457
    131  OE2      -23.0050   13.4100  144.9840 O.co2 328  GLU328     -0.2457
    132  N        -29.3410   18.1660  139.4510 N.3   330  TRP330     -0.1241
    133  CA       -30.3820   18.9910  140.0460 C.3   330  TRP330      0.1605
    134  C        -31.7510   18.4970  139.6570 C.2   330  TRP330      0.2264
    135  O        -31.9920   18.1950  138.4960 O.2   330  TRP330     -0.2867
    136  CB       -30.3140   20.4350  139.6110 C.3   330  TRP330      0.0550
    137  CG       -29.2440   21.2910  140.1370 C.ar  330  TRP330      0.0003
    138  CD1      -28.0360   21.5270  139.5540 C.ar  330  TRP330      0.0946
    139  CD2      -29.3000   22.1130  141.3080 C.ar  330  TRP330      0.0152
    140  NE1      -27.3220   22.4270  140.3000 N.ar  330  TRP330     -0.2442
    141  CE2      -28.0750   22.8080  141.3820 C.ar  330  TRP330      0.0810
    142  CE3      -30.2590   22.3260  142.3050 C.ar  330  TRP330      0.0012
    143  CZ2      -27.7730   23.6830  142.4220 C.ar  330  TRP330      0.0191
    144  CZ3      -29.9570   23.2090  143.3440 C.ar  330  TRP330      0.0001
    145  CH2      -28.7260   23.8820  143.3800 C.ar  330  TRP330      0.0015
    146  N        -25.1050   19.7960  151.8710 N.3   528  HIS528     -0.1241
    147  CA       -24.9860   19.2550  150.5370 C.3   528  HIS528      0.1621
    148  C        -25.9250   18.0820  150.3150 C.2   528  HIS528      0.2264
    149  O        -26.6250   18.0090  149.3040 O.2   528  HIS528     -0.2867
    150  CB       -23.5370   18.8350  150.2970 C.3   528  HIS528      0.0745
    151  CG       -23.3900   17.7780  149.2640 C.ar  528  HIS528      0.0817
    152  ND1      -23.0290   16.4770  149.5660 N.ar  528  HIS528     -0.2268
    153  CD2      -23.5680   17.8140  147.9260 C.ar  528  HIS528      0.1154
    154  CE1      -22.9890   15.7660  148.4570 C.ar  528  HIS528      0.1986
    155  NE2      -23.2990   16.5580  147.4420 N.ar  528  HIS528     -0.2212
    156  N        -29.4210   18.7800  150.2520 N.3   531  GLY531     -0.1225
    157  CA       -29.3150   19.5180  149.0170 C.3   531  GLY531      0.1811
    158  C        -29.1880   18.6440  147.7650 C.2   531  GLY531      0.2280
    159  O        -29.2750   19.1730  146.6700 O.2   531  GLY531     -0.2866
    160  N        -16.4530   14.1510  149.1760 N.3   551  LYS551     -0.1245
    161  CA       -17.0720   15.3280  149.7810 C.3   551  LYS551      0.1561
    162  C        -16.2560   15.6710  150.9940 C.2   551  LYS551      0.2260
    163  O        -15.6760   16.7400  151.1020 O.2   551  LYS551     -0.2867
    164  CB       -18.5330   15.0700  150.1840 C.3   551  LYS551      0.0271
    165  CG       -19.4550   14.7690  149.0230 C.3   551  LYS551      0.0035
    166  CD       -19.4030   15.8730  147.9880 C.3   551  LYS551      0.0206
    167  CE       -20.0400   17.1140  148.5550 C.3   551  LYS551      0.1093
    168  NZ       -20.6520   17.8730  147.4470 N.3   551  LYS551     -0.1314
@<TRIPOS>BOND
     1    46    47    1
     2    38    37    2
     3    56    57    2
     4    56    55    1
     5    47    48    1
     6    47    50    1
     7    54    48   am
     8    54    55    1
     9    37    36    1
    10    58    55    1
    11    58    59    1
    12    48    49    2
    13    53    51    1
    14    32    33    1
    15    32    29    1
    16    51    50    1
    17    51    52    1
    18    33    34    1
    19    59    60    1
    20    36    35    1
    21    36    39    1
    22    35    30   am
    23    62    63    1
    24    29    30    1
    25    29    28    1
    26    30    31    2
    27    44    42   ar
    28    44    45   ar
    29   135   134    2
    30    34    28    1
    31    42    40   ar
    32    45    43   ar
    33    40    39    1
    34    40    41   ar
    35    43    41   ar
    36     1     2    1
    37    60    61    1
    38    28    22   am
    39    64    63    1
    40    64    65    2
    41   126   125    2
    42   120   119    2
    43   132   133    1
    44   138   137   ar
    45   138   140   ar
    46    63    66    1
    47   136   133    1
    48   136   137    1
    49   134   133    1
    50     4     3    2
    51   125   124    1
    52   137   139   ar
    53    66    67    1
    54    66    68    1
    55   140   141   ar
    56     2     3    1
    57     2     5    1
    58   119   118    1
    59   119   123   am
    60     3     6   am
    61    22    23    2
    62    22    21    1
    63    12    10    1
    64    26    24    1
    65   124   123    1
    66   124   127    1
    67   114   113    2
    68   118   121    1
    69   118   117    1
    70   139   141   ar
    71   139   142   ar
    72   121   122    1
    73   141   143   ar
    74    21    24    1
    75    21    20    1
    76    95    94    2
    77     6     7    1
    78    10     7    1
    79    10    11    1
    80    98    97    2
    81    24    25    1
    82     7     8    1
    83   113   117   am
    84   113   112    1
    85   127   128    1
    86   142   144   ar
    87   143   145   ar
    88   103   102    2
    89    25    27    1
    90    97    96    1
    91    97    99   am
    92    94   100   am
    93    94    93    1
    94   128   129    1
    95   111   112    1
    96   111   109   am
    97    96    93    1
    98   101   102    1
    99   101   100    1
   100   101   104    1
   101    11    13    1
   102   105   104    1
   103    19    18    1
   104   108   109    1
   105   108   107    1
   106   144   145   ar
   107   112   115    1
   108    93    92    1
   109     8    14   am
   110     8     9    2
   111   109   110    2
   112    14    15    1
   113   116   115    1
   114   104   106    1
   115   129   130   ar
   116   129   131   ar
   117    18    15    1
   118    69    70    1
   119    15    16    1
   120    17    16    2
   121    83    82    2
   122    72    71    2
   123    70    71    1
   124    76    75    2
   125    81    82    1
   126    81    84    1
   127    81    80    1
   128    71    73   am
   129    82    85   am
   130    75    80   am
   131    75    74    1
   132   159   158    2
   133    88    87    2
   134    73    74    1
   135    74    77    1
   136    87    86    1
   137   155   153   ar
   138   155   154   ar
   139   168   167    1
   140    85    86    1
   141   158   157    1
   142   153   151   ar
   143   166   167    1
   144   166   165    1
   145    86    89    1
   146   154   152   ar
   147    77    78    1
   148    77    79    1
   149   157   156    1
   150   165   164    1
   151   160   161    1
   152   151   152   ar
   153   151   150    1
   154   149   148    2
   155    89    91    1
   156    89    90    1
   157   161   164    1
   158   161   162    1
   159   150   147    1
   160   148   147    1
   161   147   146    1
   162   162   163    2
