@<TRIPOS>MOLECULE
tmp/5ecpD01.pdb
 112 106 0 0 0
SMALL
GASTEIGER

@<TRIPOS>ATOM
      1  N         56.1830    7.5210  152.3000 N.3   115  THR115     -0.1218
      2  CA        56.8780    7.7100  151.0300 C.3   115  THR115      0.1862
      3  C         58.3420    8.0360  151.2430 C.2   115  THR115      0.2287
      4  O         59.2180    7.4460  150.5810 O.2   115  THR115     -0.2866
      5  CB        56.2220    8.8110  150.2060 C.3   115  THR115      0.1770
      6  OG1       55.4040    9.6260  151.0470 O.3   115  THR115     -0.2211
      7  CG2       55.3370    8.1670  149.2230 C.3   115  THR115      0.0375
      8  N         60.9420    5.0840  149.9430 N.3   119  PHE119     -0.1241
      9  CA        61.9200    5.6020  148.9760 C.3   119  PHE119      0.1605
     10  C         63.3350    5.5420  149.5590 C.2   119  PHE119      0.2264
     11  O         64.2720    5.0740  148.9020 O.2   119  PHE119     -0.2867
     12  CB        61.5910    7.0400  148.5640 C.3   119  PHE119      0.0534
     13  CG        62.0100    7.3670  147.1520 C.ar  119  PHE119     -0.0203
     14  CD1       61.7080    6.4890  146.1200 C.ar  119  PHE119     -0.0042
     15  CD2       62.7480    8.5110  146.8620 C.ar  119  PHE119     -0.0042
     16  CE1       62.1020    6.7400  144.8290 C.ar  119  PHE119     -0.0003
     17  CE2       63.1440    8.7640  145.5590 C.ar  119  PHE119     -0.0003
     18  CZ        62.8050    7.8790  144.5330 C.ar  119  PHE119     -0.0000
     19  N         65.1490   11.6810  135.6140 N.3   140  GLN140     -0.1245
     20  CA        63.8230   11.2910  136.0720 C.3   140  GLN140      0.1566
     21  C         62.7630   12.2440  135.5220 C.2   140  GLN140      0.2260
     22  O         62.8710   13.4640  135.6810 O.2   140  GLN140     -0.2867
     23  CB        63.7650   11.2160  137.6220 C.3   140  GLN140      0.0367
     24  CG        63.9670   12.5120  138.4180 C.3   140  GLN140      0.0905
     25  CD        63.3670   12.4520  139.8390 C.2   140  GLN140      0.2608
     26  OE1       62.9040   11.3940  140.2860 O.2   140  GLN140     -0.2717
     27  NE2       63.3740   13.6130  140.5540 N.am  140  GLN140     -0.0878
     28  N         59.4990   13.4680  136.1860 N.3   142  ILE142     -0.1245
     29  CA        58.5100   13.6090  137.2310 C.3   142  ILE142      0.1561
     30  C         57.7290   14.9000  137.0500 C.2   142  ILE142      0.2260
     31  O         58.2860   15.9270  136.6340 O.2   142  ILE142     -0.2867
     32  CB        59.1490   13.5880  138.6540 C.3   142  ILE142      0.0252
     33  CG1       59.9990   14.8490  138.8930 C.3   142  ILE142      0.0019
     34  CG2       59.9340   12.2840  138.8680 C.3   142  ILE142      0.0019
     35  CD1       60.4240   15.0360  140.3390 C.3   142  ILE142      0.0001
     36  N         48.7220   12.1720  144.0810 N.3   159  ALA159     -0.1231
     37  CA        49.9890   11.6070  144.5140 C.3   159  ALA159      0.1694
     38  C         51.2080   12.4280  144.0880 C.2   159  ALA159      0.2592
     39  O         51.9490   12.9160  144.9350 O.2   159  ALA159     -0.2718
     40  CB        50.1000   10.1970  143.9920 C.3   159  ALA159      0.0304
     41  N         51.4000   12.5460  142.7730 N.am  160  THR160     -0.1953
     42  CA        52.5690   13.2050  142.1670 C.3   160  THR160      0.1897
     43  C         52.7840   14.6080  142.6790 C.2   160  THR160      0.2313
     44  O         53.8950   15.0060  143.0400 O.2   160  THR160     -0.2863
     45  CB        52.4100   13.3290  140.6730 C.3   160  THR160      0.1794
     46  OG1       51.1870   14.0450  140.4230 O.3   160  THR160     -0.2208
     47  CG2       52.3270   11.9620  140.0270 C.3   160  THR160      0.0378
     48  N         53.2110   15.2550  147.0630 N.3   163  VAL163     -0.1231
     49  CA        54.5400   14.8990  147.5680 C.3   163  VAL163      0.1692
     50  C         55.5780   15.9600  147.2070 C.2   163  VAL163      0.2592
     51  O         56.3710   16.3650  148.0580 O.2   163  VAL163     -0.2718
     52  CB        54.9860   13.5090  147.0190 C.3   163  VAL163      0.0266
     53  CG1       55.0110   13.5260  145.5250 C.3   163  VAL163      0.0020
     54  CG2       56.3600   13.0740  147.5560 C.3   163  VAL163      0.0020
     55  N         55.5570   16.4270  145.9590 N.am  164  TYR164     -0.1976
     56  CA        56.6080   17.3280  145.4890 C.3   164  TYR164      0.1639
     57  C         56.3850   18.7530  146.0110 C.2   164  TYR164      0.2290
     58  O         57.3370   19.4310  146.3900 O.2   164  TYR164     -0.2864
     59  CB        56.6800   17.3460  143.9600 C.3   164  TYR164      0.0560
     60  CG        56.9610   16.0080  143.2890 C.ar  164  TYR164     -0.0198
     61  CD1       57.5420   14.9570  143.9740 C.ar  164  TYR164     -0.0009
     62  CD2       56.6480   15.8060  141.9550 C.ar  164  TYR164     -0.0009
     63  CE1       57.7880   13.7600  143.3400 C.ar  164  TYR164      0.0417
     64  CE2       56.8850   14.6290  141.3270 C.ar  164  TYR164      0.0417
     65  CZ        57.4500   13.6150  142.0150 C.ar  164  TYR164      0.1957
     66  OH        57.6820   12.4680  141.3210 O.3   164  TYR164     -0.2866
     67  N         64.6820    7.4720  134.9680 N.3   214  PHE214     -0.1241
     68  CA        63.5340    7.0760  135.7890 C.3   214  PHE214      0.1605
     69  C         62.1830    7.5200  135.2390 C.2   214  PHE214      0.2264
     70  O         61.9460    8.6980  134.9460 O.2   214  PHE214     -0.2867
     71  CB        63.6940    7.6190  137.2170 C.3   214  PHE214      0.0534
     72  CG        62.4500    7.5480  138.0470 C.ar  214  PHE214     -0.0203
     73  CD1       62.0460    6.3480  138.6090 C.ar  214  PHE214     -0.0042
     74  CD2       61.6930    8.6840  138.2900 C.ar  214  PHE214     -0.0042
     75  CE1       60.9150    6.2760  139.3840 C.ar  214  PHE214     -0.0003
     76  CE2       60.5460    8.6280  139.0690 C.ar  214  PHE214     -0.0003
     77  CZ        60.1550    7.4320  139.6250 C.ar  214  PHE214     -0.0000
     78  N         58.1100    6.1290  136.6560 N.3   216  VAL216     -0.1245
     79  CA        57.4390    5.1890  137.5300 C.3   216  VAL216      0.1561
     80  C         57.2340    3.8820  136.7870 C.2   216  VAL216      0.2260
     81  O         57.3530    2.7870  137.3500 O.2   216  VAL216     -0.2867
     82  CB        56.1120    5.7650  138.0050 C.3   216  VAL216      0.0252
     83  CG1       55.3400    4.7560  138.8460 C.3   216  VAL216      0.0019
     84  CG2       56.3820    7.0720  138.7490 C.3   216  VAL216      0.0019
     85  N         50.7380    9.9890  134.5120 N.3   524  LYS524     -0.1245
     86  CA        50.7330   10.1500  135.9600 C.3   524  LYS524      0.1561
     87  C         49.6950    9.2900  136.6020 C.2   524  LYS524      0.2260
     88  O         49.9010    8.7450  137.6960 O.2   524  LYS524     -0.2867
     89  CB        50.4630   11.6070  136.3450 C.3   524  LYS524      0.0271
     90  CG        51.6660   12.5370  136.2270 C.3   524  LYS524      0.0035
     91  CD        51.2320   14.0070  136.0600 C.3   524  LYS524      0.0206
     92  CE        51.0760   14.7360  137.3970 C.3   524  LYS524      0.1093
     93  NZ        51.2180   16.2230  137.2910 N.3   524  LYS524     -0.1314
     94  N         50.5970    5.7360  136.0940 N.3   527  GLU527     -0.1231
     95  CA        51.8080    5.3200  136.8090 C.3   527  GLU527      0.1699
     96  C         51.5980    5.0240  138.2970 C.2   527  GLU527      0.2592
     97  O         52.2020    4.1020  138.8490 O.2   527  GLU527     -0.2718
     98  CB        52.9080    6.3430  136.6270 C.3   527  GLU527      0.0402
     99  CG        53.5260    6.2170  135.2530 C.3   527  GLU527      0.1161
    100  CD        54.8630    6.8700  135.1390 C.2   527  GLU527      0.3649
    101  OE1       55.0630    7.9110  135.8040 O.co2 527  GLU527     -0.2457
    102  OE2       55.7070    6.3350  134.3840 O.co2 527  GLU527     -0.2457
    103  N         50.7450    5.7940  138.9580 N.am  528  HIS528     -0.1976
    104  CA        50.6120    5.5790  140.3870 C.3   528  HIS528      0.1656
    105  C         49.7340    4.3650  140.6580 C.2   528  HIS528      0.2291
    106  O         49.8310    3.7630  141.7160 O.2   528  HIS528     -0.2864
    107  CB        50.0640    6.8290  141.1010 C.3   528  HIS528      0.0771
    108  CG        48.7810    7.3570  140.5290 C.ar  528  HIS528      0.0820
    109  ND1       48.5480    8.7150  140.3730 N.ar  528  HIS528     -0.2267
    110  CD2       47.6580    6.7310  140.1310 C.ar  528  HIS528      0.1154
    111  CE1       47.3390    8.8910  139.8880 C.ar  528  HIS528      0.1986
    112  NE2       46.7680    7.7030  139.7300 N.ar  528  HIS528     -0.2212
@<TRIPOS>BOND
     1   102   100   ar
     2    85    86    1
     3    70    69    2
     4    67    68    1
     5   100    99    1
     6   100   101   ar
     7    69    68    1
     8    99    98    1
     9    21    22    2
    10    21    20    1
    11    19    20    1
    12    68    71    1
    13    86    89    1
    14    86    87    1
    15    91    90    1
    16    91    92    1
    17    20    23    1
    18    94    95    1
    19    28    29    1
    20    90    89    1
    21    87    88    2
    22    98    95    1
    23    31    30    2
    24    78    79    1
    25    80    81    2
    26    80    79    1
    27    95    96    1
    28    30    29    1
    29    71    72    1
    30    29    32    1
    31    93    92    1
    32    79    82    1
    33    23    24    1
    34    82    84    1
    35    82    83    1
    36    72    74   ar
    37    72    73   ar
    38    74    76   ar
    39    96    97    2
    40    96   103   am
    41    24    25    1
    42    73    75   ar
    43    32    34    1
    44    32    33    1
    45    33    35    1
    46   103   104    1
    47    76    77   ar
    48    75    77   ar
    49   112   111   ar
    50   112   110   ar
    51    25    26    2
    52    25    27   am
    53   111   109   ar
    54    47    45    1
    55   110   108   ar
    56   109   108   ar
    57   104   105    1
    58   104   107    1
    59    46    45    1
    60   108   107    1
    61   105   106    2
    62    45    42    1
    63    66    65    1
    64    64    62   ar
    65    64    65   ar
    66    62    60   ar
    67    65    63   ar
    68    42    43    1
    69    42    41    1
    70    43    44    2
    71    41    38   am
    72    60    59    1
    73    60    61   ar
    74    63    61   ar
    75    59    56    1
    76    40    37    1
    77    36    37    1
    78    38    37    1
    79    38    39    2
    80    18    16   ar
    81    18    17   ar
    82    16    14   ar
    83    56    55    1
    84    56    57    1
    85    53    52    1
    86    17    15   ar
    87    55    50   am
    88    57    58    2
    89    14    13   ar
    90    15    13   ar
    91    52    54    1
    92    52    49    1
    93    48    49    1
    94    13    12    1
    95    50    49    1
    96    50    51    2
    97    12     9    1
    98    11    10    2
    99     9    10    1
   100     9     8    1
   101     7     5    1
   102     5     2    1
   103     5     6    1
   104     4     3    2
   105     2     3    1
   106     2     1    1
