@<TRIPOS>MOLECULE
tmp/5ecqD01.pdb
 132 130 0 0 0
SMALL
GASTEIGER

@<TRIPOS>ATOM
      1  N        -30.4050   27.9350  140.5480 N.3   119  PHE119     -0.1241
      2  CA       -30.4200   29.0170  141.5240 C.3   119  PHE119      0.1605
      3  C        -31.0150   30.2950  140.9360 C.2   119  PHE119      0.2264
      4  O        -31.7140   31.0330  141.6300 O.2   119  PHE119     -0.2867
      5  CB       -29.0380   29.2350  142.1150 C.3   119  PHE119      0.0534
      6  CG       -29.0260   29.0040  143.5910 C.ar  119  PHE119     -0.0203
      7  CD1      -28.1760   29.6810  144.4300 C.ar  119  PHE119     -0.0042
      8  CD2      -30.0000   28.2290  144.1560 C.ar  119  PHE119     -0.0042
      9  CE1      -28.2240   29.4610  145.8190 C.ar  119  PHE119     -0.0003
     10  CE2      -30.0490   28.0380  145.5100 C.ar  119  PHE119     -0.0003
     11  CZ       -29.1610   28.6360  146.3290 C.ar  119  PHE119     -0.0000
     12  N        -21.9470   29.9090  154.3890 N.3   142  ILE142     -0.1231
     13  CA       -21.4010   29.0160  153.3780 C.3   142  ILE142      0.1692
     14  C        -19.8850   29.0300  153.3310 C.2   142  ILE142      0.2592
     15  O        -19.2510   30.0860  153.4010 O.2   142  ILE142     -0.2718
     16  CB       -21.9480   29.3620  151.9730 C.3   142  ILE142      0.0266
     17  CG1      -21.5990   30.8030  151.5780 C.3   142  ILE142      0.0019
     18  CG2      -23.4530   29.1220  151.9130 C.3   142  ILE142      0.0020
     19  CD1      -21.4170   31.0040  150.0850 C.3   142  ILE142      0.0001
     20  N        -19.3070   27.8400  153.2360 N.am  143  PHE143     -0.1976
     21  CA       -17.8650   27.7120  153.1350 C.3   143  PHE143      0.1639
     22  C        -17.4900   26.5940  152.2000 C.2   143  PHE143      0.2290
     23  O        -18.2370   25.6340  152.0110 O.2   143  PHE143     -0.2864
     24  CB       -17.2460   27.4170  154.4970 C.3   143  PHE143      0.0560
     25  CG       -17.5720   28.4230  155.5330 C.ar  143  PHE143     -0.0200
     26  CD1      -16.8020   29.5610  155.6810 C.ar  143  PHE143     -0.0042
     27  CD2      -18.6700   28.2410  156.3520 C.ar  143  PHE143     -0.0042
     28  CE1      -17.1100   30.4800  156.6390 C.ar  143  PHE143     -0.0003
     29  CE2      -18.9860   29.1630  157.3030 C.ar  143  PHE143     -0.0003
     30  CZ       -18.2070   30.2820  157.4390 C.ar  143  PHE143     -0.0000
     31  N        -19.5150   19.4900  146.5500 N.3   159  ALA159     -0.1231
     32  CA       -20.4610   20.3200  145.8580 C.3   159  ALA159      0.1694
     33  C        -20.0590   21.7300  146.1720 C.2   159  ALA159      0.2592
     34  O        -19.9960   22.5710  145.2940 O.2   159  ALA159     -0.2718
     35  CB       -21.8550   20.0560  146.3320 C.3   159  ALA159      0.0304
     36  N        -19.7600   21.9660  147.4450 N.am  160  THR160     -0.1953
     37  CA       -19.4110   23.2960  147.9110 C.3   160  THR160      0.1897
     38  C        -18.1630   23.9490  147.3410 C.2   160  THR160      0.2313
     39  O        -18.2370   25.0700  146.8400 O.2   160  THR160     -0.2863
     40  CB       -19.1560   23.2820  149.4330 C.3   160  THR160      0.1794
     41  OG1      -18.2530   22.2150  149.7540 O.3   160  THR160     -0.2208
     42  CG2      -20.4200   23.0850  150.2010 C.3   160  THR160      0.0378
     43  N        -18.7280   24.5760  143.7380 N.3   163  VAL163     -0.1231
     44  CA       -19.6110   25.6740  143.3710 C.3   163  VAL163      0.1692
     45  C        -18.8220   26.9520  143.5570 C.2   163  VAL163      0.2592
     46  O        -18.5970   27.7360  142.6400 O.2   163  VAL163     -0.2718
     47  CB       -20.8590   25.9160  144.2760 C.3   163  VAL163      0.0266
     48  CG1      -21.6550   27.0820  143.8060 C.3   163  VAL163      0.0020
     49  CG2      -21.8140   24.8080  144.6010 C.3   163  VAL163      0.0020
     50  N        -18.3650   27.1150  144.7890 N.am  164  TYR164     -0.1976
     51  CA       -17.6580   28.3070  145.2310 C.3   164  TYR164      0.1639
     52  C        -16.2900   28.6020  144.5950 C.2   164  TYR164      0.2290
     53  O        -15.9860   29.7600  144.3110 O.2   164  TYR164     -0.2864
     54  CB       -17.5600   28.2800  146.7580 C.3   164  TYR164      0.0560
     55  CG       -18.9120   28.1410  147.4320 C.ar  164  TYR164     -0.0198
     56  CD1      -20.0620   28.5170  146.7670 C.ar  164  TYR164     -0.0009
     57  CD2      -19.0360   27.7020  148.7410 C.ar  164  TYR164     -0.0009
     58  CE1      -21.2940   28.4290  147.3450 C.ar  164  TYR164      0.0417
     59  CE2      -20.2830   27.6080  149.3400 C.ar  164  TYR164      0.0417
     60  CZ       -21.4060   27.9750  148.6270 C.ar  164  TYR164      0.1957
     61  OH       -22.6560   27.9050  149.1840 O.3   164  TYR164     -0.2866
     62  N        -29.4000   32.2810  155.7690 N.3   214  PHE214     -0.1241
     63  CA       -29.3490   31.0130  155.0860 C.3   214  PHE214      0.1605
     64  C        -28.2490   30.0550  155.5020 C.2   214  PHE214      0.2264
     65  O        -27.1270   30.4300  155.8420 O.2   214  PHE214     -0.2867
     66  CB       -29.2490   31.2690  153.5750 C.3   214  PHE214      0.0534
     67  CG       -28.9690   30.0370  152.7740 C.ar  214  PHE214     -0.0203
     68  CD1      -29.9870   29.1710  152.4370 C.ar  214  PHE214     -0.0042
     69  CD2      -27.6840   29.7520  152.3460 C.ar  214  PHE214     -0.0042
     70  CE1      -29.7330   28.0360  151.7050 C.ar  214  PHE214     -0.0003
     71  CE2      -27.4230   28.6200  151.6130 C.ar  214  PHE214     -0.0003
     72  CZ       -28.4490   27.7620  151.2940 C.ar  214  PHE214     -0.0000
     73  N        -27.8720   25.7390  154.0930 N.3   216  VAL216     -0.1245
     74  CA       -28.5490   24.7610  153.2650 C.3   216  VAL216      0.1561
     75  C        -29.5160   23.9970  154.1570 C.2   216  VAL216      0.2260
     76  O        -30.6340   23.6590  153.7690 O.2   216  VAL216     -0.2867
     77  CB       -27.5630   23.7920  152.5950 C.3   216  VAL216      0.0252
     78  CG1      -28.2410   22.6560  151.9130 C.3   216  VAL216      0.0019
     79  CG2      -26.6660   24.5600  151.6700 C.3   216  VAL216      0.0019
     80  N        -29.2060   17.1820  139.5610 N.3   330  TRP330     -0.1241
     81  CA       -30.0880   18.1320  140.2030 C.3   330  TRP330      0.1605
     82  C        -31.4740   17.6040  139.8980 C.2   330  TRP330      0.2264
     83  O        -31.6860   17.0540  138.8220 O.2   330  TRP330     -0.2867
     84  CB       -29.9100   19.5220  139.6030 C.3   330  TRP330      0.0550
     85  CG       -28.9000   20.3190  140.2800 C.ar  330  TRP330      0.0003
     86  CD1      -27.6120   20.5220  139.9000 C.ar  330  TRP330      0.0946
     87  CD2      -29.0800   21.0120  141.5010 C.ar  330  TRP330      0.0152
     88  NE1      -26.9730   21.3210  140.8200 N.ar  330  TRP330     -0.2442
     89  CE2      -27.8630   21.6310  141.8160 C.ar  330  TRP330      0.0810
     90  CE3      -30.1650   21.1830  142.3590 C.ar  330  TRP330      0.0012
     91  CZ2      -27.7070   22.4020  142.9520 C.ar  330  TRP330      0.0191
     92  CZ3      -30.0040   21.9290  143.4890 C.ar  330  TRP330      0.0001
     93  CH2      -28.7900   22.5390  143.7730 C.ar  330  TRP330      0.0015
     94  N        -21.2350   19.1340  158.2500 N.3   523  ARG523     -0.1231
     95  CA       -22.4350   19.8850  157.9570 C.3   523  ARG523      0.1694
     96  C        -22.5020   20.1860  156.4680 C.2   523  ARG523      0.2591
     97  O        -23.5630   20.0940  155.8560 O.2   523  ARG523     -0.2718
     98  CB       -22.4210   21.1840  158.7400 C.3   523  ARG523      0.0321
     99  CG       -23.2350   22.2450  158.1020 C.3   523  ARG523      0.0489
    100  CD       -22.8650   23.5620  158.6840 C.3   523  ARG523      0.2205
    101  NE       -22.3440   24.4180  157.6080 N.pl3 523  ARG523     -0.0865
    102  CZ       -23.0760   25.1540  156.7880 C.cat 523  ARG523      0.5346
    103  NH1      -24.4030   25.1530  156.8840 N.pl3 523  ARG523      0.1354
    104  NH2      -22.4880   25.8520  155.8270 N.pl3 523  ARG523      0.1354
    105  N        -21.3510   20.5040  155.8860 N.am  524  LYS524     -0.1980
    106  CA       -21.2790   20.7880  154.4600 C.3   524  LYS524      0.1596
    107  C        -21.7180   19.5120  153.7860 C.2   524  LYS524      0.2287
    108  O        -22.4230   19.5200  152.7760 O.2   524  LYS524     -0.2864
    109  CB       -19.8610   21.1560  154.0100 C.3   524  LYS524      0.0298
    110  CG       -19.2800   22.4460  154.5720 C.3   524  LYS524      0.0038
    111  CD       -17.8490   22.6040  154.0690 C.3   524  LYS524      0.0206
    112  CE       -17.2200   23.9180  154.4730 C.3   524  LYS524      0.1093
    113  NZ       -16.6050   23.8430  155.8260 N.3   524  LYS524     -0.1314
    114  N        -25.5430   18.7760  154.2460 N.3   527  GLU527     -0.1231
    115  CA       -26.2020   19.7990  153.4370 C.3   527  GLU527      0.1699
    116  C        -26.1410   19.4940  151.9600 C.2   527  GLU527      0.2592
    117  O        -27.1180   19.6670  151.2350 O.2   527  GLU527     -0.2718
    118  CB       -25.5970   21.1600  153.7240 C.3   527  GLU527      0.0402
    119  CG       -25.9640   21.6700  155.1000 C.3   527  GLU527      0.1161
    120  CD       -25.5670   23.1060  155.3120 C.2   527  GLU527      0.3649
    121  OE1      -24.8630   23.6620  154.4450 O.co2 527  GLU527     -0.2457
    122  OE2      -25.9720   23.6800  156.3430 O.co2 527  GLU527     -0.2457
    123  N        -24.9880   19.0340  151.5150 N.am  528  HIS528     -0.1976
    124  CA       -24.8890   18.6540  150.1310 C.3   528  HIS528      0.1656
    125  C        -25.7300   17.4010  149.8740 C.2   528  HIS528      0.2291
    126  O        -26.2900   17.2380  148.7870 O.2   528  HIS528     -0.2864
    127  CB       -23.4230   18.4860  149.7410 C.3   528  HIS528      0.0771
    128  CG       -22.9020   17.1010  149.9080 C.ar  528  HIS528      0.0820
    129  ND1      -23.4090   16.0260  149.2160 N.ar  528  HIS528     -0.2267
    130  CD2      -21.8430   16.6320  150.6100 C.ar  528  HIS528      0.1154
    131  CE1      -22.7280   14.9450  149.5350 C.ar  528  HIS528      0.1986
    132  NE2      -21.7760   15.2820  150.3830 N.ar  528  HIS528     -0.2212
@<TRIPOS>BOND
     1    83    82    2
     2    80    81    1
     3    84    81    1
     4    84    85    1
     5    82    81    1
     6    86    85   ar
     7    86    88   ar
     8    85    87   ar
     9     1     2    1
    10    88    89   ar
    11     3     2    1
    12     3     4    2
    13    87    89   ar
    14    87    90   ar
    15     2     5    1
    16    89    91   ar
    17     5     6    1
    18    90    92   ar
    19    46    45    2
    20    91    93   ar
    21    44    45    1
    22    44    43    1
    23    44    47    1
    24    92    93   ar
    25    45    50   am
    26     6     8   ar
    27     6     7   ar
    28    48    47    1
    29     8    10   ar
    30    47    49    1
    31    53    52    2
    32     7     9   ar
    33    52    51    1
    34    50    51    1
    35    51    54    1
    36    34    33    2
    37    10    11   ar
    38     9    11   ar
    39    32    33    1
    40    32    35    1
    41    32    31    1
    42    33    36   am
    43    54    55    1
    44    56    58   ar
    45    56    55   ar
    46    39    38    2
    47    38    37    1
    48    58    60   ar
    49    55    57   ar
    50    36    37    1
    51    37    40    1
    52    60    61    1
    53    60    59   ar
    54    57    59   ar
    55   126   125    2
    56   129   131   ar
    57   129   128   ar
    58    40    41    1
    59    40    42    1
    60   131   132   ar
    61   127   128    1
    62   127   124    1
    63   125   124    1
    64   128   130   ar
    65    19    17    1
    66   124   123    1
    67   132   130   ar
    68   117   116    2
    69    72    71   ar
    70    72    70   ar
    71   123   116   am
    72    17    16    1
    73    71    69   ar
    74    79    77    1
    75    70    68   ar
    76    18    16    1
    77    78    77    1
    78   116   115    1
    79    16    13    1
    80    23    22    2
    81    22    21    1
    82    69    67   ar
    83    68    67   ar
    84    77    74    1
    85    67    66    1
    86   108   107    2
    87    21    20    1
    88    21    24    1
    89    20    14   am
    90    74    73    1
    91    74    75    1
    92    14    13    1
    93    14    15    2
    94    13    12    1
    95   115   118    1
    96   115   114    1
    97    66    63    1
    98   118   119    1
    99    76    75    2
   100   107   106    1
   101   109   106    1
   102   109   110    1
   103   111   112    1
   104   111   110    1
   105   121   120   ar
   106   106   105    1
   107   112   113    1
   108    24    25    1
   109    63    64    1
   110    63    62    1
   111   119   120    1
   112   120   122   ar
   113    64    65    2
   114    25    26   ar
   115    25    27   ar
   116    26    28   ar
   117   104   102    1
   118    97    96    2
   119   105    96   am
   120    27    29   ar
   121    96    95    1
   122    28    30   ar
   123   102   103    1
   124   102   101    2
   125    29    30   ar
   126   101   100    1
   127    95    94    1
   128    95    98    1
   129    99   100    1
   130    99    98    1
