@<TRIPOS>MOLECULE
tmp/5ecvA00.pdb
 186 176 0 0 0
SMALL
GASTEIGER

@<TRIPOS>ATOM
      1  N         26.5270   79.4110   60.6910 N.3   117  VAL117     -0.1245
      2  CA        27.4800   79.2460   59.5980 C.3   117  VAL117      0.1561
      3  C         27.2940   77.8780   58.9740 C.2   117  VAL117      0.2260
      4  O         27.3480   76.8730   59.6810 O.2   117  VAL117     -0.2867
      5  CB        28.9450   79.3780   60.0770 C.3   117  VAL117      0.0252
      6  CG1       29.8920   79.4680   58.8790 C.3   117  VAL117      0.0019
      7  CG2       29.1040   80.6100   60.9570 C.3   117  VAL117      0.0019
      8  N         27.9740   75.3550   55.1630 N.3   119  PRO119     -0.2116
      9  CA        28.6350   75.1650   53.8670 C.3   119  PRO119      0.1372
     10  C         27.7130   75.5300   52.7010 C.2   119  PRO119      0.2244
     11  O         26.6170   74.9690   52.5780 O.2   119  PRO119     -0.2868
     12  CB        28.9200   73.6560   53.8400 C.3   119  PRO119      0.0268
     13  CG        27.9890   73.0570   54.8200 C.3   119  PRO119      0.0207
     14  CD        27.8460   74.0860   55.9010 C.3   119  PRO119      0.0892
     15  N         29.2850   79.7100   53.7180 N.3   270  ASP270     -0.1239
     16  CA        30.7280   79.5020   53.7900 C.3   270  ASP270      0.1674
     17  C         31.3090   78.8720   52.5190 C.2   270  ASP270      0.2266
     18  O         30.8890   77.7900   52.1170 O.2   270  ASP270     -0.2867
     19  CB        31.0330   78.6140   54.9920 C.3   270  ASP270      0.1410
     20  CG        32.5010   78.6010   55.3610 C.2   270  ASP270      0.3668
     21  OD1       33.2540   79.5000   54.9130 O.co2 270  ASP270     -0.2456
     22  OD2       32.8970   77.6850   56.1120 O.co2 270  ASP270     -0.2456
     23  N         34.7380   78.6730   52.6360 N.3   272  GLU272     -0.1231
     24  CA        36.0630   78.3340   53.1670 C.3   272  GLU272      0.1699
     25  C         36.0730   77.0000   53.9370 C.2   272  GLU272      0.2592
     26  O         35.8190   75.9460   53.3550 O.2   272  GLU272     -0.2718
     27  CB        36.6070   79.4650   54.0470 C.3   272  GLU272      0.0402
     28  CG        38.1040   79.3940   54.2890 C.3   272  GLU272      0.1161
     29  CD        38.4620   79.7380   55.7230 C.2   272  GLU272      0.3649
     30  OE1       37.5790   79.6170   56.5970 O.co2 272  GLU272     -0.2457
     31  OE2       39.6210   80.1210   55.9780 O.co2 272  GLU272     -0.2457
     32  N         36.3380   77.0520   55.2420 N.am  273  ASP273     -0.1960
     33  CA        36.7040   75.8360   55.9960 C.3   273  ASP273      0.1840
     34  C         35.6350   74.7360   56.1290 C.2   273  ASP273      0.2622
     35  O         35.9510   73.5970   56.4800 O.2   273  ASP273     -0.2715
     36  CB        37.2910   76.1920   57.3720 C.3   273  ASP273      0.1450
     37  CG        38.7810   76.5740   57.2940 C.2   273  ASP273      0.3671
     38  OD1       39.3800   76.4450   56.2040 O.co2 273  ASP273     -0.2456
     39  OD2       39.3700   76.9760   58.3270 O.co2 273  ASP273     -0.2456
     40  N         34.3760   75.0560   55.8610 N.am  274  SER274     -0.1950
     41  CA        33.3720   74.0110   55.9460 C.3   274  SER274      0.1924
     42  C         33.0040   73.3850   54.5920 C.2   274  SER274      0.2314
     43  O         32.1250   72.5280   54.5370 O.2   274  SER274     -0.2863
     44  CB        32.1200   74.5080   56.6690 C.3   274  SER274      0.2116
     45  OG        31.3040   75.2460   55.7870 O.3   274  SER274     -0.2180
     46  N         31.3680   83.9030   53.3630 N.3   328  ARG328     -0.1245
     47  CA        32.7720   83.8430   53.7500 C.3   328  ARG328      0.1563
     48  C         33.6100   83.3960   52.5650 C.2   328  ARG328      0.2260
     49  O         33.4320   82.2880   52.0680 O.2   328  ARG328     -0.2867
     50  CB        32.9970   82.9330   54.9680 C.3   328  ARG328      0.0307
     51  CG        34.4590   82.8800   55.4040 C.3   328  ARG328      0.0489
     52  CD        34.6080   82.3990   56.8410 C.3   328  ARG328      0.2205
     53  NE        34.3710   80.9680   56.9710 N.pl3 328  ARG328     -0.0865
     54  CZ        34.7010   80.2510   58.0480 C.cat 328  ARG328      0.5346
     55  NH1       35.3150   80.8250   59.0860 N.pl3 328  ARG328      0.1354
     56  NH2       34.4480   78.9530   58.0720 N.pl3 328  ARG328      0.1354
     57  N         37.9300   88.0150   60.5680 N.3   421  MET421     -0.1245
     58  CA        38.1940   86.9300   61.4770 C.3   421  MET421      0.1570
     59  C         39.4880   87.2850   62.1950 C.2   421  MET421      0.2261
     60  O         40.4980   87.5680   61.5430 O.2   421  MET421     -0.2867
     61  CB        38.3660   85.6100   60.7210 C.3   421  MET421      0.0387
     62  CG        37.1140   85.1070   60.0070 C.3   421  MET421      0.0595
     63  SD        35.6790   84.8680   61.0610 S.3   421  MET421     -0.1393
     64  CE        36.3430   83.7520   62.3050 C.3   421  MET421      0.0692
     65  N         41.8070   85.2990   63.9630 N.3   423  GLU423     -0.1245
     66  CA        42.0670   83.8690   64.1100 C.3   423  GLU423      0.1567
     67  C         43.4990   83.5080   63.7020 C.2   423  GLU423      0.2260
     68  O         43.8060   82.3470   63.4380 O.2   423  GLU423     -0.2867
     69  CB        41.0490   83.0430   63.3110 C.3   423  GLU423      0.0388
     70  CG        41.1210   83.2270   61.7890 C.3   423  GLU423      0.1160
     71  CD        40.0460   82.4480   61.0330 C.2   423  GLU423      0.3649
     72  OE1       39.9060   82.6790   59.8210 O.co2 423  GLU423     -0.2457
     73  OE2       39.3360   81.6140   61.6290 O.co2 423  GLU423     -0.2457
     74  N         37.8610   83.4840   65.7490 N.3   448  GLY448     -0.1210
     75  CA        37.9170   82.1430   65.2040 C.3   448  GLY448      0.1956
     76  C         38.9370   81.3570   66.0090 C.2   448  GLY448      0.2612
     77  O         40.0650   81.1440   65.5630 O.2   448  GLY448     -0.2717
     78  N         38.5300   80.9210   67.1950 N.am  449  PHE449     -0.1962
     79  CA        39.4540   80.3530   68.1730 C.3   449  PHE449      0.1771
     80  C         40.0930   79.0260   67.7520 C.2   449  PHE449      0.2619
     81  O         41.1650   78.6760   68.2320 O.2   449  PHE449     -0.2715
     82  CB        38.7420   80.1960   69.5240 C.3   449  PHE449      0.0574
     83  CG        37.8340   79.0020   69.6030 C.ar  449  PHE449     -0.0200
     84  CD1       36.5820   79.0140   68.9860 C.ar  449  PHE449     -0.0042
     85  CD2       38.2230   77.8660   70.3070 C.ar  449  PHE449     -0.0042
     86  CE1       35.7380   77.9050   69.0640 C.ar  449  PHE449     -0.0003
     87  CE2       37.3820   76.7550   70.4010 C.ar  449  PHE449     -0.0003
     88  CZ        36.1400   76.7720   69.7770 C.ar  449  PHE449     -0.0000
     89  N         39.4360   78.2770   66.8720 N.am  450  LEU450     -0.1963
     90  CA        40.0160   77.0200   66.4130 C.3   450  LEU450      0.1728
     91  C         41.2040   77.2710   65.4950 C.2   450  LEU450      0.2616
     92  O         42.2650   76.6940   65.6980 O.2   450  LEU450     -0.2715
     93  CB        38.9740   76.1250   65.7530 C.3   450  LEU450      0.0311
     94  CG        37.8510   75.7210   66.7130 C.3   450  LEU450      0.0022
     95  CD1       36.6350   75.2960   65.9330 C.3   450  LEU450      0.0001
     96  CD2       38.2940   74.6010   67.6620 C.3   450  LEU450      0.0001
     97  N         41.0420   78.1280   64.4900 N.am  451  ASP451     -0.1971
     98  CA        42.1900   78.4810   63.6520 C.3   451  ASP451      0.1709
     99  C         43.2320   79.1940   64.4910 C.2   451  ASP451      0.2293
    100  O         44.4310   79.0490   64.2610 O.2   451  ASP451     -0.2864
    101  CB        41.7840   79.3960   62.4950 C.3   451  ASP451      0.1436
    102  CG        41.4620   78.6250   61.2260 C.2   451  ASP451      0.3671
    103  OD1       42.2570   77.7480   60.8350 O.co2 451  ASP451     -0.2456
    104  OD2       40.4030   78.8970   60.6330 O.co2 451  ASP451     -0.2456
    105  N         33.1100   82.3530   68.9080 N.3   503  GLY503     -0.1210
    106  CA        33.2650   81.1840   68.0480 C.3   503  GLY503      0.1956
    107  C         32.2030   80.1020   68.1110 C.2   503  GLY503      0.2611
    108  O         31.2030   80.2360   68.8110 O.2   503  GLY503     -0.2717
    109  N         32.4760   79.0120   67.3920 N.am  504  MET504     -0.1979
    110  CA        31.5370   77.9380   67.0920 C.3   504  MET504      0.1605
    111  C         31.4140   76.9210   68.2170 C.2   504  MET504      0.2287
    112  O         32.4220   76.5300   68.8260 O.2   504  MET504     -0.2864
    113  CB        32.0210   77.2090   65.8320 C.3   504  MET504      0.0413
    114  CG        31.1130   76.1080   65.3550 C.3   504  MET504      0.0598
    115  SD        29.4910   76.7640   64.9220 S.3   504  MET504     -0.1393
    116  CE        29.7150   77.2800   63.2240 C.3   504  MET504      0.0692
    117  N         30.7380   73.1510   68.7230 N.3   506  THR506     -0.1218
    118  CA        30.8860   72.0500   67.7740 C.3   506  THR506      0.1862
    119  C         30.2550   70.7400   68.2320 C.2   506  THR506      0.2287
    120  O         30.1550   69.7930   67.4550 O.2   506  THR506     -0.2866
    121  CB        32.3760   71.8070   67.4720 C.3   506  THR506      0.1770
    122  OG1       33.0590   71.4780   68.6910 O.3   506  THR506     -0.2211
    123  CG2       32.9880   73.0650   66.8860 C.3   506  THR506      0.0375
    124  N         28.8250   81.9410   67.1060 N.3   530  TRP530     -0.1241
    125  CA        28.5250   80.9990   66.0260 C.3   530  TRP530      0.1605
    126  C         27.8940   79.7080   66.5120 C.2   530  TRP530      0.2264
    127  O         28.2960   79.1540   67.5410 O.2   530  TRP530     -0.2867
    128  CB        29.7770   80.6610   65.2000 C.3   530  TRP530      0.0550
    129  CG        30.2400   81.7550   64.2920 C.ar  530  TRP530      0.0003
    130  CD1       29.7510   83.0200   64.2260 C.ar  530  TRP530      0.0946
    131  CD2       31.3010   81.6810   63.3210 C.ar  530  TRP530      0.0152
    132  NE1       30.4330   83.7390   63.2780 N.ar  530  TRP530     -0.2442
    133  CE2       31.3920   82.9420   62.7100 C.ar  530  TRP530      0.0810
    134  CE3       32.1720   80.6670   62.9060 C.ar  530  TRP530      0.0012
    135  CZ2       32.3240   83.2240   61.7070 C.ar  530  TRP530      0.0191
    136  CZ3       33.1000   80.9470   61.9140 C.ar  530  TRP530      0.0001
    137  CH2       33.1640   82.2150   61.3220 C.ar  530  TRP530      0.0015
    138  N         26.1900   75.8870   64.5920 N.3   532  PRO532     -0.2116
    139  CA        26.3040   75.1320   63.3350 C.3   532  PRO532      0.1372
    140  C         24.9870   74.6310   62.7600 C.2   532  PRO532      0.2244
    141  O         25.0070   74.0190   61.6910 O.2   532  PRO532     -0.2868
    142  CB        27.1500   73.9320   63.7460 C.3   532  PRO532      0.0268
    143  CG        26.7380   73.6810   65.1760 C.3   532  PRO532      0.0207
    144  CD        26.3950   75.0250   65.7740 C.3   532  PRO532      0.0892
    145  N         32.3500   69.4920   56.0360 N.3   608  ALA608     -0.1245
    146  CA        31.9210   69.5190   57.4330 C.3   608  ALA608      0.1562
    147  C         30.9160   68.4160   57.6820 C.2   608  ALA608      0.2260
    148  O         29.9270   68.2940   56.9700 O.2   608  ALA608     -0.2867
    149  CB        31.3240   70.8660   57.8110 C.3   608  ALA608      0.0290
    150  N         30.5940   68.2610   65.1460 N.3   620  MET620     -0.1230
    151  CA        30.4850   68.8410   63.8080 C.3   620  MET620      0.1702
    152  C         31.6690   69.7530   63.5430 C.2   620  MET620      0.2592
    153  O         31.6230   70.9480   63.8110 O.2   620  MET620     -0.2718
    154  CB        29.1770   69.6080   63.6130 C.3   620  MET620      0.0401
    155  CG        28.1710   68.9060   62.6890 C.3   620  MET620      0.0596
    156  SD        27.4300   70.0270   61.4710 S.3   620  MET620     -0.1393
    157  CE        26.4440   68.8930   60.4810 C.3   620  MET620      0.0692
    158  N         32.7300   69.1730   63.0060 N.am  621  GLU621     -0.1966
    159  CA        33.9770   69.8880   62.8220 C.3   621  GLU621      0.1733
    160  C         34.2710   70.2320   61.3680 C.2   621  GLU621      0.2616
    161  O         33.7330   69.6170   60.4400 O.2   621  GLU621     -0.2715
    162  CB        35.1190   69.0390   63.3490 C.3   621  GLU621      0.0429
    163  CG        35.2480   67.6870   62.6540 C.3   621  GLU621      0.1163
    164  CD        35.8610   66.6400   63.5680 C.2   621  GLU621      0.3649
    165  OE1       36.1560   66.9760   64.7490 O.co2 621  GLU621     -0.2457
    166  OE2       36.0420   65.4870   63.1120 O.co2 621  GLU621     -0.2457
    167  N         35.1460   71.2180   61.1870 N.am  622  ASP622     -0.1971
    168  CA        35.6230   71.5800   59.8650 C.3   622  ASP622      0.1709
    169  C         37.1520   71.6570   59.7950 C.2   622  ASP622      0.2293
    170  O         37.8430   71.0780   60.6470 O.2   622  ASP622     -0.2864
    171  CB        34.8940   72.8230   59.3290 C.3   622  ASP622      0.1436
    172  CG        35.3750   74.1390   59.9340 C.2   622  ASP622      0.3671
    173  OD1       36.2060   74.1690   60.8750 O.co2 622  ASP622     -0.2456
    174  OD2       34.8930   75.1750   59.4230 O.co2 622  ASP622     -0.2456
    175  N         39.3620   73.8390   60.4450 N.3   624  ALA624     -0.1231
    176  CA        40.0890   74.4450   61.5580 C.3   624  ALA624      0.1694
    177  C         40.4380   73.4120   62.6280 C.2   624  ALA624      0.2592
    178  O         41.5510   73.4170   63.1550 O.2   624  ALA624     -0.2718
    179  CB        39.3080   75.6060   62.1560 C.3   624  ALA624      0.0304
    180  N         39.5040   72.5240   62.9600 N.am  625  THR625     -0.1953
    181  CA        39.8150   71.4940   63.9610 C.3   625  THR625      0.1897
    182  C         40.8860   70.5180   63.4220 C.2   625  THR625      0.2313
    183  O         41.7550   70.0530   64.1580 O.2   625  THR625     -0.2863
    184  CB        38.5590   70.7430   64.4290 C.3   625  THR625      0.1794
    185  OG1       37.9520   70.0950   63.3090 O.3   625  THR625     -0.2208
    186  CG2       37.5550   71.7200   65.0180 C.3   625  THR625      0.0378
@<TRIPOS>BOND
     1    49    48    2
     2    18    17    2
     3    17    16    1
     4    48    47    1
     5    11    10    2
     6    23    24    1
     7    10     9    1
     8    24    25    1
     9    24    27    1
    10    26    25    2
    11    46    47    1
    12    15    16    1
    13    47    50    1
    14    16    19    1
    15    12     9    1
    16    12    13    1
    17     9     8    1
    18    25    32   am
    19    27    28    1
    20    28    29    1
    21    43    42    2
    22    42    41    1
    23    13    14    1
    24    21    20   ar
    25    50    51    1
    26    19    20    1
    27     8    14    1
    28    32    33    1
    29    20    22   ar
    30    51    52    1
    31    29    31   ar
    32    29    30   ar
    33    45    44    1
    34    40    41    1
    35    40    34   am
    36    41    44    1
    37    33    34    1
    38    33    36    1
    39   145   146    1
    40    34    35    2
    41    38    37   ar
    42    52    53    1
    43   148   147    2
    44    53    54    2
    45    37    36    1
    46    37    39   ar
    47   146   147    1
    48   146   149    1
    49    54    56    1
    50    54    55    1
    51     6     5    1
    52     3     2    1
    53     3     4    2
    54   171   168    1
    55   171   172    1
    56   174   172   ar
    57     2     5    1
    58     2     1    1
    59   169   168    1
    60   169   170    2
    61    72    71   ar
    62   168   167    1
    63   172   173   ar
    64    62    61    1
    65    62    63    1
    66     5     7    1
    67   161   160    2
    68   175   176    1
    69   157   156    1
    70    57    58    1
    71   104   102   ar
    72    61    58    1
    73   103   102   ar
    74    71    73   ar
    75    71    70    1
    76    63    64    1
    77   167   160   am
    78   102   101    1
    79   137   135   ar
    80   137   136   ar
    81   160   159    1
    82   156   155    1
    83    58    59    1
    84    60    59    2
    85   176   179    1
    86   176   177    1
    87   141   140    2
    88   135   133   ar
    89    70    69    1
    90   136   134   ar
    91   101    98    1
    92   177   180   am
    93   177   178    2
    94   163   162    1
    95   163   164    1
    96   155   154    1
    97   133   132   ar
    98   133   131   ar
    99   140   139    1
   100   159   158    1
   101   159   162    1
   102   134   131   ar
   103   180   181    1
   104   158   152   am
   105   166   164   ar
   106   116   115    1
   107   132   130   ar
   108   185   184    1
   109    69    66    1
   110   131   129   ar
   111   139   142    1
   112   139   138    1
   113   182   181    1
   114   182   183    2
   115    68    67    2
   116   152   151    1
   117   152   153    2
   118   164   165   ar
   119   154   151    1
   120    98    97    1
   121    98    99    1
   122    67    66    1
   123   142   143    1
   124   151   150    1
   125   181   184    1
   126    65    66    1
   127   130   129   ar
   128   100    99    2
   129   129   128    1
   130   184   186    1
   131    97    91   am
   132   138   144    1
   133   115   114    1
   134   143   144    1
   135   128   125    1
   136    75    74    1
   137    75    76    1
   138   114   113    1
   139    91    92    2
   140    91    90    1
   141    77    76    2
   142    93    90    1
   143    93    94    1
   144   113   110    1
   145    95    94    1
   146    76    78   am
   147   125   126    1
   148   125   124    1
   149    90    89    1
   150   126   127    2
   151    94    96    1
   152    89    80   am
   153   123   121    1
   154   110   109    1
   155   110   111    1
   156    78    79    1
   157   109   107   am
   158   120   119    2
   159   121   118    1
   160   121   122    1
   161    80    79    1
   162    80    81    2
   163   118   119    1
   164   118   117    1
   165   106   107    1
   166   106   105    1
   167   107   108    2
   168    79    82    1
   169   111   112    2
   170    84    86   ar
   171    84    83   ar
   172    86    88   ar
   173    82    83    1
   174    83    85   ar
   175    88    87   ar
   176    85    87   ar
