@<TRIPOS>MOLECULE
tmp/5ecxB01.pdb
 155 148 0 0 0
SMALL
GASTEIGER

@<TRIPOS>ATOM
      1  N         39.8760  -33.3150   -1.8220 N.3     6  MET6       -0.1230
      2  CA        38.6040  -33.3820   -1.1070 C.3     6  MET6        0.1702
      3  C         38.3120  -34.8090   -0.6710 C.2     6  MET6        0.2592
      4  O         38.4520  -35.7680   -1.4480 O.2     6  MET6       -0.2718
      5  CB        37.4590  -32.8290   -1.9660 C.3     6  MET6        0.0401
      6  CG        36.1340  -32.7040   -1.2180 C.3     6  MET6        0.0596
      7  SD        35.0480  -31.5290   -2.0590 S.3     6  MET6       -0.1393
      8  CE        33.9730  -30.9730   -0.7200 C.3     6  MET6        0.0692
      9  N         37.9190  -34.9320    0.5930 N.am    7  VAL7       -0.1966
     10  CA        37.7300  -36.2230    1.2350 C.3     7  VAL7        0.1727
     11  C         36.7180  -36.1430    2.3810 C.2     7  VAL7        0.2616
     12  O         36.5510  -35.0980    3.0090 O.2     7  VAL7       -0.2715
     13  CB        39.0640  -36.7540    1.7760 C.3     7  VAL7        0.0290
     14  CG1       39.5850  -35.8240    2.8970 C.3     7  VAL7        0.0023
     15  CG2       38.9250  -38.2050    2.2390 C.3     7  VAL7        0.0023
     16  N         36.0460  -37.2590    2.6400 N.am    8  ALA8       -0.1977
     17  CA        35.2350  -37.4200    3.8360 C.3     8  ALA8        0.1597
     18  C         35.8630  -38.5030    4.7330 C.2     8  ALA8        0.2287
     19  O         35.9590  -39.6670    4.3320 O.2     8  ALA8       -0.2864
     20  CB        33.8200  -37.7780    3.4570 C.3     8  ALA8        0.0319
     21  N         35.4950  -51.5560   -1.8380 N.3    19  PRO19      -0.2102
     22  CA        35.1840  -50.4860   -2.7890 C.3    19  PRO19       0.1504
     23  C         34.2500  -49.4170   -2.2190 C.2    19  PRO19       0.2576
     24  O         34.0660  -48.3840   -2.8560 O.2    19  PRO19      -0.2718
     25  CB        34.4980  -51.2370   -3.9230 C.3    19  PRO19       0.0282
     26  CG        33.7880  -52.3360   -3.2200 C.3    19  PRO19       0.0208
     27  CD        34.6480  -52.7420   -2.0580 C.3    19  PRO19       0.0893
     28  N         33.6940  -49.6500   -1.0340 N.am   20  ASP20      -0.1960
     29  CA        32.6020  -48.8140   -0.5140 C.3    20  ASP20       0.1840
     30  C         33.0100  -47.8190    0.5660 C.2    20  ASP20       0.2621
     31  O         33.8430  -48.1070    1.4140 O.2    20  ASP20      -0.2715
     32  CB        31.4910  -49.7010    0.0510 C.3    20  ASP20       0.1450
     33  CG        30.9700  -50.6970   -0.9590 C.2    20  ASP20       0.3671
     34  OD1       30.8090  -50.3190   -2.1390 O.co2  20  ASP20      -0.2456
     35  OD2       30.7360  -51.8580   -0.5660 O.co2  20  ASP20      -0.2456
     36  N         32.4000  -46.6410    0.5350 N.am   21  ILE21      -0.1977
     37  CA        32.4650  -45.7320    1.6690 C.3    21  ILE21       0.1596
     38  C         31.4640  -46.2450    2.7190 C.2    21  ILE21       0.2287
     39  O         30.2680  -46.3150    2.4590 O.2    21  ILE21      -0.2864
     40  CB        32.1570  -44.2880    1.2270 C.3    21  ILE21       0.0276
     41  CG1       33.1910  -43.8210    0.1930 C.3    21  ILE21       0.0022
     42  CG2       32.1710  -43.3630    2.4000 C.3    21  ILE21       0.0022
     43  CD1       32.7820  -42.5940   -0.6200 C.3    21  ILE21       0.0001
     44  N         29.5270  -45.4580    5.0250 N.3    23  TRP23      -0.1241
     45  CA        28.5040  -44.6460    5.6860 C.3    23  TRP23       0.1605
     46  C         27.6750  -43.9370    4.6320 C.2    23  TRP23       0.2264
     47  O         28.0620  -43.8830    3.4580 O.2    23  TRP23      -0.2867
     48  CB        29.1190  -43.6080    6.6370 C.3    23  TRP23       0.0550
     49  CG        30.0230  -42.6190    5.9410 C.ar   23  TRP23       0.0003
     50  CD1       29.6460  -41.5330    5.1830 C.ar   23  TRP23       0.0946
     51  CD2       31.4540  -42.6240    5.9440 C.ar   23  TRP23       0.0152
     52  NE1       30.7680  -40.8730    4.7030 N.ar   23  TRP23      -0.2442
     53  CE2       31.8870  -41.5240    5.1600 C.ar   23  TRP23       0.0810
     54  CE3       32.4200  -43.4600    6.5240 C.ar   23  TRP23       0.0012
     55  CZ2       33.2330  -41.2430    4.9520 C.ar   23  TRP23       0.0191
     56  CZ3       33.7540  -43.1780    6.3200 C.ar   23  TRP23       0.0001
     57  CH2       34.1520  -42.0780    5.5390 C.ar   23  TRP23       0.0015
     58  N         25.9830  -34.5140    3.0210 N.3    28  GLU28      -0.1231
     59  CA        27.4250  -34.2970    2.8890 C.3    28  GLU28       0.1699
     60  C         27.8440  -34.2810    1.4310 C.2    28  GLU28       0.2592
     61  O         28.6930  -33.4990    1.0410 O.2    28  GLU28      -0.2718
     62  CB        28.2210  -35.3530    3.6510 C.3    28  GLU28       0.0402
     63  CG        29.6830  -34.9090    3.9340 C.3    28  GLU28       0.1161
     64  CD        30.6140  -35.0330    2.7270 C.2    28  GLU28       0.3649
     65  OE1       30.5350  -36.0530    2.0280 O.co2  28  GLU28      -0.2457
     66  OE2       31.4440  -34.1230    2.4810 O.co2  28  GLU28      -0.2457
     67  N         27.2220  -35.1410    0.6310 N.am   29  GLN29      -0.1979
     68  CA        27.5170  -35.2190   -0.7940 C.3    29  GLN29       0.1601
     69  C         27.4220  -33.8530   -1.4700 C.2    29  GLN29       0.2287
     70  O         28.2230  -33.5320   -2.3470 O.2    29  GLN29      -0.2864
     71  CB        26.5760  -36.2110   -1.4810 C.3    29  GLN29       0.0394
     72  CG        27.2320  -37.0280   -2.5820 C.3    29  GLN29       0.0908
     73  CD        26.2780  -38.0180   -3.2200 C.2    29  GLN29       0.2608
     74  OE1       25.2550  -37.6350   -3.7890 O.2    29  GLN29      -0.2717
     75  NE2       26.6080  -39.3010   -3.1280 N.am   29  GLN29      -0.0878
     76  N         30.6350  -32.1310   -1.8260 N.3    32  PHE32      -0.1227
     77  CA        31.4110  -32.7310   -2.9160 C.3    32  PHE32       0.1736
     78  C         30.9170  -32.2750   -4.2880 C.2    32  PHE32       0.2595
     79  O         31.7190  -31.8530   -5.1340 O.2    32  PHE32      -0.2718
     80  CB        31.3680  -34.2530   -2.8140 C.3    32  PHE32       0.0547
     81  CG        32.1810  -34.9490   -3.8810 C.ar   32  PHE32      -0.0202
     82  CD1       33.5620  -34.9870   -3.7980 C.ar   32  PHE32      -0.0042
     83  CD2       31.5580  -35.5480   -4.9590 C.ar   32  PHE32      -0.0042
     84  CE1       34.3230  -35.6130   -4.7790 C.ar   32  PHE32      -0.0003
     85  CE2       32.3030  -36.1750   -5.9550 C.ar   32  PHE32      -0.0003
     86  CZ        33.6860  -36.2090   -5.8670 C.ar   32  PHE32      -0.0000
     87  N         29.6010  -32.3390   -4.5000 N.am   33  LYS33      -0.1980
     88  CA        29.0070  -31.8870   -5.7540 C.3    33  LYS33       0.1596
     89  C         29.2900  -30.4140   -6.0210 C.2    33  LYS33       0.2287
     90  O         29.7320  -30.0520   -7.1160 O.2    33  LYS33      -0.2864
     91  CB        27.4950  -32.1260   -5.7630 C.3    33  LYS33       0.0298
     92  CG        27.0780  -33.5750   -5.9140 C.3    33  LYS33       0.0038
     93  CD        25.5540  -33.6580   -6.0960 C.3    33  LYS33       0.0206
     94  CE        25.0710  -35.0950   -6.1210 C.3    33  LYS33       0.1093
     95  NZ        25.8450  -35.8960   -7.1040 N.3    33  LYS33      -0.1314
     96  N         41.7080  -39.0830   -9.8250 N.3    43  VAL43      -0.1245
     97  CA        41.2860  -40.2640   -9.0820 C.3    43  VAL43       0.1561
     98  C         42.0460  -41.5200   -9.5040 C.2    43  VAL43       0.2260
     99  O         42.5450  -41.6140  -10.6220 O.2    43  VAL43      -0.2867
    100  CB        39.7700  -40.5510   -9.2620 C.3    43  VAL43       0.0252
    101  CG1       38.9340  -39.5590   -8.4660 C.3    43  VAL43       0.0019
    102  CG2       39.3880  -40.5150  -10.7380 C.3    43  VAL43       0.0019
    103  N         38.5670  -46.1230   -7.2560 N.3    47  THR47      -0.1218
    104  CA        37.5450  -45.1370   -6.9470 C.3    47  THR47       0.1862
    105  C         36.7200  -44.7980   -8.1910 C.2    47  THR47       0.2287
    106  O         35.4880  -44.7300   -8.1220 O.2    47  THR47      -0.2866
    107  CB        38.1460  -43.8470   -6.3650 C.3    47  THR47       0.1770
    108  OG1       38.7820  -44.1260   -5.1040 O.3    47  THR47      -0.2211
    109  CG2       37.0370  -42.8320   -6.1200 C.3    47  THR47       0.0375
    110  N         34.1630  -47.4140   -8.9060 N.3    50  SER50      -0.1202
    111  CA        33.1790  -47.4850   -7.8460 C.3    50  SER50       0.2020
    112  C         32.1400  -46.3690   -7.9360 C.2    50  SER50       0.2618
    113  O         30.9770  -46.5740   -7.5940 O.2    50  SER50      -0.2717
    114  CB        33.8760  -47.4420   -6.4910 C.3    50  SER50       0.2103
    115  OG        32.9370  -47.6440   -5.4540 O.3    50  SER50      -0.2182
    116  N         32.5650  -45.1890   -8.3870 N.am   51  MET51      -0.1979
    117  CA        31.6660  -44.0430   -8.5050 C.3    51  MET51       0.1605
    118  C         31.0960  -43.9030   -9.9130 C.2    51  MET51       0.2287
    119  O         29.9350  -43.5340  -10.0790 O.2    51  MET51      -0.2864
    120  CB        32.3850  -42.7420   -8.1020 C.3    51  MET51       0.0413
    121  CG        33.3410  -42.1510   -9.1400 C.3    51  MET51       0.0598
    122  SD        33.7900  -40.4150   -8.8630 S.3    51  MET51      -0.1393
    123  CE        32.2290  -39.6870   -8.4370 C.3    51  MET51       0.0692
    124  N         30.1200  -39.4640  -13.0260 N.3    54  LEU54      -0.1245
    125  CA        28.9500  -38.6200  -12.7780 C.3    54  LEU54       0.1561
    126  C         29.1030  -37.3560  -13.6360 C.2    54  LEU54       0.2260
    127  O         30.2250  -36.9620  -13.9690 O.2    54  LEU54      -0.2867
    128  CB        28.8110  -38.2990  -11.2810 C.3    54  LEU54       0.0270
    129  CG        29.5380  -37.1600  -10.5480 C.3    54  LEU54       0.0019
    130  CD1       28.8870  -35.8020  -10.7810 C.3    54  LEU54       0.0001
    131  CD2       29.6330  -37.4310   -9.0550 C.3    54  LEU54       0.0001
    132  N         40.6290  -36.5080   -5.6450 N.3    97  SER97      -0.1217
    133  CA        39.3750  -37.0150   -5.0670 C.3    97  SER97       0.1889
    134  C         39.4010  -38.4940   -4.6890 C.2    97  SER97       0.2288
    135  O         38.3440  -39.1190   -4.5810 O.2    97  SER97      -0.2866
    136  CB        38.1970  -36.7860   -6.0320 C.3    97  SER97       0.2089
    137  OG        38.1130  -35.4250   -6.4310 O.3    97  SER97      -0.2183
    138  N         45.4570  -40.4660   -2.4130 N.3   103  TYR103     -0.1241
    139  CA        45.5720  -39.4790   -1.3560 C.3   103  TYR103      0.1605
    140  C         46.9760  -39.5150   -0.7630 C.2   103  TYR103      0.2264
    141  O         47.6240  -38.4810   -0.6130 O.2   103  TYR103     -0.2867
    142  CB        44.5370  -39.7390   -0.2620 C.3   103  TYR103      0.0534
    143  CG        43.1110  -39.3290   -0.5770 C.ar  103  TYR103     -0.0201
    144  CD1       42.8230  -38.1450   -1.2540 C.ar  103  TYR103     -0.0009
    145  CD2       42.0450  -40.1210   -0.1650 C.ar  103  TYR103     -0.0009
    146  CE1       41.4840  -37.7630   -1.5060 C.ar  103  TYR103      0.0417
    147  CE2       40.7230  -39.7550   -0.4100 C.ar  103  TYR103      0.0417
    148  CZ        40.4540  -38.5880   -1.0830 C.ar  103  TYR103      0.1957
    149  OH        39.1510  -38.2480   -1.3250 O.3   103  TYR103     -0.2866
    150  N         35.6590  -33.3230    5.2020 N.3   116  SER116     -0.1217
    151  CA        34.4340  -33.5120    5.9830 C.3   116  SER116      0.1889
    152  C         34.6600  -34.6180    6.9980 C.2   116  SER116      0.2288
    153  O         34.8970  -35.7680    6.6270 O.2   116  SER116     -0.2866
    154  CB        33.2410  -33.8440    5.0850 C.3   116  SER116      0.2089
    155  OG        33.0620  -32.8230    4.1100 O.3   116  SER116     -0.2183
@<TRIPOS>BOND
     1   127   126    2
     2   126   125    1
     3   124   125    1
     4   125   128    1
     5   128   129    1
     6   130   129    1
     7   102   100    1
     8    99    98    2
     9   129   131    1
    10   119   118    2
    11   118   117    1
    12    96    97    1
    13    98    97    1
    14   100    97    1
    15   100   101    1
    16   121   122    1
    17   121   120    1
    18   110   111    1
    19   122   123    1
    20   117   116    1
    21   117   120    1
    22   116   112   am
    23   105   106    2
    24   105   104    1
    25   112   111    1
    26   112   113    2
    27   111   114    1
    28   103   104    1
    29    90    89    2
    30    95    94    1
    31   104   107    1
    32   114   115    1
    33   137   136    1
    34   107   109    1
    35   107   108    1
    36    94    93    1
    37    93    92    1
    38   136   133    1
    39    89    88    1
    40    85    86   ar
    41    85    83   ar
    42    92    91    1
    43    86    84   ar
    44    91    88    1
    45    88    87    1
    46   132   133    1
    47    79    78    2
    48   133   134    1
    49    83    81   ar
    50    84    82   ar
    51   134   135    2
    52    87    78   am
    53    78    77    1
    54    25    26    1
    55    25    22    1
    56    81    82   ar
    57    81    80    1
    58    74    73    2
    59    26    27    1
    60    73    75   am
    61    73    72    1
    62    77    80    1
    63    77    76    1
    64    24    23    2
    65    22    23    1
    66    22    21    1
    67    72    71    1
    68   138   139    1
    69    70    69    2
    70    23    28   am
    71    34    33   ar
    72     7     6    1
    73     7     8    1
    74    27    21    1
    75     5     6    1
    76     5     2    1
    77     1     2    1
    78   146   144   ar
    79   146   148   ar
    80    71    68    1
    81    69    68    1
    82     4     3    2
    83   139   140    1
    84   139   142    1
    85   149   148    1
    86   144   143   ar
    87     2     3    1
    88   148   147   ar
    89    28    29    1
    90    33    35   ar
    91    33    32    1
    92    68    67    1
    93   140   141    2
    94     3     9   am
    95    43    41    1
    96   143   142    1
    97   143   145   ar
    98    29    32    1
    99    29    30    1
   100   147   145   ar
   101    41    40    1
   102    36    30   am
   103    36    37    1
   104    30    31    2
   105     9    10    1
   106    67    60   am
   107    61    60    2
   108    40    37    1
   109    40    42    1
   110    10    13    1
   111    10    11    1
   112    60    59    1
   113    37    38    1
   114    13    15    1
   115    13    14    1
   116    65    64   ar
   117    11    16   am
   118    11    12    2
   119    39    38    2
   120    66    64   ar
   121    16    17    1
   122    64    63    1
   123    59    58    1
   124    59    62    1
   125    20    17    1
   126    47    46    2
   127    62    63    1
   128    17    18    1
   129   155   154    1
   130    19    18    2
   131    46    45    1
   132    52    53   ar
   133    52    50   ar
   134    55    53   ar
   135    55    57   ar
   136    44    45    1
   137   154   151    1
   138    53    51   ar
   139    50    49   ar
   140   150   151    1
   141    57    56   ar
   142    45    48    1
   143    49    51   ar
   144    49    48    1
   145    51    54   ar
   146   151   152    1
   147    56    54   ar
   148   153   152    2
