@<TRIPOS>MOLECULE
tmp/5ed1D00.pdb
 257 248 0 0 0
SMALL
GASTEIGER

@<TRIPOS>ATOM
      1  N        -15.9460  -46.5990   13.0220 N.3    88  ASN88      -0.1225
      2  CA       -15.6720  -47.8910   13.6020 C.3    88  ASN88       0.1785
      3  C        -14.4450  -48.5790   13.0430 C.2    88  ASN88       0.2597
      4  O        -13.7920  -49.3700   13.7330 O.2    88  ASN88      -0.2718
      5  CB       -16.8980  -48.7740   13.4540 C.3    88  ASN88       0.1169
      6  CG       -18.0660  -48.2080   14.1810 C.2    88  ASN88       0.2627
      7  OD1      -17.8940  -47.5280   15.1870 O.2    88  ASN88      -0.2716
      8  ND2      -19.2620  -48.4860   13.7030 N.am   88  ASN88      -0.0877
      9  N        -14.1190  -48.2750   11.8000 N.am   89  ASP89      -0.1974
     10  CA       -13.0200  -48.9570   11.1270 C.3    89  ASP89       0.1709
     11  C        -12.2200  -47.9140   10.3350 C.2    89  ASP89       0.2293
     12  O        -12.7740  -47.2130    9.5040 O.2    89  ASP89      -0.2864
     13  CB       -13.5900  -50.0740   10.2410 C.3    89  ASP89       0.1436
     14  CG       -12.5310  -50.8640    9.4970 C.2    89  ASP89       0.3671
     15  OD1      -11.4510  -50.3350    9.1560 O.co2  89  ASP89      -0.2456
     16  OD2      -12.8000  -52.0510    9.2440 O.co2  89  ASP89      -0.2456
     17  N        -11.3010  -49.0470    3.7900 N.3    94  ILE94      -0.1245
     18  CA       -12.6280  -48.7540    4.3440 C.3    94  ILE94       0.1561
     19  C        -12.9280  -47.2540    4.2530 C.2    94  ILE94       0.2260
     20  O        -13.9960  -46.8000    3.7790 O.2    94  ILE94      -0.2867
     21  CB       -12.7230  -49.2180    5.8390 C.3    94  ILE94       0.0252
     22  CG1      -12.1860  -50.6450    5.9920 C.3    94  ILE94       0.0019
     23  CG2      -14.1360  -49.0970    6.3760 C.3    94  ILE94       0.0019
     24  CD1      -12.8330  -51.6480    5.0210 C.3    94  ILE94       0.0001
     25  N        -13.4020  -45.9890    0.6860 N.3    97  ARG97      -0.1231
     26  CA       -14.7700  -46.1640    0.2150 C.3    97  ARG97       0.1694
     27  C        -15.7160  -45.1040    0.8120 C.2    97  ARG97       0.2591
     28  O        -16.5480  -44.5340    0.0770 O.2    97  ARG97      -0.2718
     29  CB       -15.2970  -47.5730    0.5180 C.3    97  ARG97       0.0321
     30  CG       -16.7130  -47.7710   -0.0260 C.3    97  ARG97       0.0489
     31  CD       -17.4650  -48.9570    0.5270 C.3    97  ARG97       0.2205
     32  NE       -17.9190  -48.7100    1.8930 N.pl3  97  ARG97      -0.0865
     33  CZ       -19.1500  -48.3300    2.2140 C.cat  97  ARG97       0.5346
     34  NH1      -20.0590  -48.1310    1.2710 N.pl3  97  ARG97       0.1354
     35  NH2      -19.4740  -48.1400    3.4810 N.pl3  97  ARG97       0.1354
     36  N        -15.5840  -44.8070    2.1090 N.am   98  ARG98      -0.1980
     37  CA       -16.4930  -43.8190    2.7290 C.3    98  ARG98       0.1597
     38  C        -16.3480  -42.4220    2.1180 C.2    98  ARG98       0.2287
     39  O        -17.3370  -41.6660    1.9310 O.2    98  ARG98      -0.2864
     40  CB       -16.2700  -43.7450    4.2410 C.3    98  ARG98       0.0334
     41  CG       -16.4530  -45.0620    4.9600 C.3    98  ARG98       0.0492
     42  CD       -16.2810  -44.8400    6.4140 C.3    98  ARG98       0.2205
     43  NE       -17.4640  -44.2510    7.0260 N.pl3  98  ARG98      -0.0865
     44  CZ       -18.5410  -44.9550    7.3650 C.cat  98  ARG98       0.5346
     45  NH1      -18.5880  -46.2700    7.1130 N.pl3  98  ARG98       0.1354
     46  NH2      -19.5800  -44.3460    7.9250 N.pl3  98  ARG98       0.1354
     47  N        -18.0960  -42.2940   -1.0470 N.3   101  LEU101     -0.1245
     48  CA       -19.4940  -41.9950   -0.7380 C.3   101  LEU101      0.1561
     49  C        -19.7150  -40.4760   -0.6900 C.2   101  LEU101      0.2260
     50  O        -20.6490  -39.9480   -1.3220 O.2   101  LEU101     -0.2867
     51  CB       -19.9180  -42.6270    0.5910 C.3   101  LEU101      0.0270
     52  CG       -19.8760  -44.1440    0.6560 C.3   101  LEU101      0.0019
     53  CD1      -20.6140  -44.6440    1.8760 C.3   101  LEU101      0.0001
     54  CD2      -20.4820  -44.7120   -0.6050 C.3   101  LEU101      0.0001
     55  N        -14.7800  -56.5420   14.2330 N.3   210  THR210     -0.1203
     56  CA       -15.0200  -55.8180   12.9960 C.3   210  THR210      0.1994
     57  C        -14.6210  -56.7670   11.8760 C.2   210  THR210      0.2617
     58  O        -13.6250  -57.4660   11.9910 O.2   210  THR210     -0.2717
     59  CB       -14.2080  -54.5220   12.9300 C.3   210  THR210      0.1784
     60  OG1      -14.4950  -53.7370   14.0910 O.3   210  THR210     -0.2211
     61  CG2      -14.5800  -53.7160   11.7310 C.3   210  THR210      0.0376
     62  N        -15.4180  -56.8590   10.8240 N.am  211  MET211     -0.1979
     63  CA       -15.0470  -57.7610    9.7470 C.3   211  MET211      0.1605
     64  C        -13.7430  -57.2890    9.0720 C.2   211  MET211      0.2287
     65  O        -13.4450  -56.0810    9.0170 O.2   211  MET211     -0.2864
     66  CB       -16.1880  -57.8840    8.7370 C.3   211  MET211      0.0413
     67  CG       -17.4590  -58.4440    9.3470 C.3   211  MET211      0.0598
     68  SD       -17.2080  -60.0600   10.0980 S.3   211  MET211     -0.1393
     69  CE       -16.6150  -61.0030    8.6950 C.3   211  MET211      0.0692
     70  N        -14.9480  -57.3820    3.7290 N.3   216  LYS216     -0.1245
     71  CA       -15.7450  -56.2140    3.3840 C.3   216  LYS216      0.1561
     72  C        -15.6670  -55.9770    1.8700 C.2   216  LYS216      0.2260
     73  O        -16.6780  -55.7580    1.2210 O.2   216  LYS216     -0.2867
     74  CB       -15.2830  -54.9760    4.1740 C.3   216  LYS216      0.0271
     75  CG       -15.6560  -54.9880    5.6520 C.3   216  LYS216      0.0035
     76  CD       -15.4420  -53.6390    6.2810 C.3   216  LYS216      0.0206
     77  CE       -15.7940  -53.6660    7.7710 C.3   216  LYS216      0.1093
     78  NZ       -15.8210  -52.3060    8.3850 N.3   216  LYS216     -0.1314
     79  N        -17.8170  -58.2390    0.0770 N.3   219  ARG219     -0.1231
     80  CA       -19.1690  -57.7270    0.2520 C.3   219  ARG219      0.1694
     81  C        -19.4260  -56.5810   -0.7570 C.2   219  ARG219      0.2592
     82  O        -20.4830  -56.5300   -1.3760 O.2   219  ARG219     -0.2718
     83  CB       -19.3840  -57.2950    1.7250 C.3   219  ARG219      0.0321
     84  CG       -20.6420  -56.4840    2.0170 C.3   219  ARG219      0.0489
     85  CD       -20.4260  -55.6120    3.2370 C.3   219  ARG219      0.2205
     86  NE       -21.5800  -54.7790    3.6020 N.pl3 219  ARG219     -0.0865
     87  CZ       -22.4640  -55.0490    4.5610 C.cat 219  ARG219      0.5346
     88  NH1      -22.3580  -56.1470    5.2930 N.pl3 219  ARG219      0.1354
     89  NH2      -23.4600  -54.2020    4.7900 N.pl3 219  ARG219      0.1354
     90  N        -18.4560  -55.6970   -0.9650 N.am  220  TRP220     -0.1976
     91  CA       -18.5950  -54.6440   -1.9730 C.3   220  TRP220      0.1640
     92  C        -18.6900  -55.2590   -3.3730 C.2   220  TRP220      0.2290
     93  O        -19.3140  -54.7060   -4.2840 O.2   220  TRP220     -0.2864
     94  CB       -17.4150  -53.6820   -1.9140 C.3   220  TRP220      0.0576
     95  CG       -17.1990  -53.0680   -0.5690 C.ar  220  TRP220      0.0006
     96  CD1      -18.0840  -53.0240    0.4670 C.ar  220  TRP220      0.0946
     97  CD2      -16.0020  -52.4260   -0.1020 C.ar  220  TRP220      0.0152
     98  NE1      -17.5140  -52.3820    1.5460 N.ar  220  TRP220     -0.2442
     99  CE2      -16.2390  -52.0080    1.2170 C.ar  220  TRP220      0.0810
    100  CE3      -14.7640  -52.1530   -0.6810 C.ar  220  TRP220      0.0012
    101  CZ2      -15.2950  -51.3280    1.9540 C.ar  220  TRP220      0.0191
    102  CZ3      -13.8300  -51.4850    0.0540 C.ar  220  TRP220      0.0001
    103  CH2      -14.0960  -51.0800    1.3580 C.ar  220  TRP220      0.0015
    104  N        -23.4660  -48.7500   -0.6840 N.3   227  GLY227     -0.1210
    105  CA       -24.2100  -49.0000    0.5320 C.3   227  GLY227      0.1956
    106  C        -25.7210  -48.8630    0.3990 C.2   227  GLY227      0.2613
    107  O        -26.2800  -48.3680   -0.6150 O.2   227  GLY227     -0.2717
    108  N        -26.3820  -49.3160    1.4570 N.am  228  SER228     -0.1938
    109  CA       -27.8370  -49.3100    1.5770 C.3   228  SER228      0.2055
    110  C        -28.4370  -47.9270    1.2980 C.2   228  SER228      0.2642
    111  O        -29.3600  -47.7830    0.5060 O.2   228  SER228     -0.2714
    112  CB       -28.2400  -49.7540    2.9890 C.3   228  SER228      0.2130
    113  OG       -27.4880  -49.0260    3.9670 O.3   228  SER228     -0.2179
    114  N        -27.9140  -46.9050    1.9690 N.am  229  LEU229     -0.1977
    115  CA       -28.5440  -45.5990    1.8800 C.3   229  LEU229      0.1596
    116  C        -28.4960  -45.0600    0.4560 C.2   229  LEU229      0.2287
    117  O        -29.5390  -44.7510   -0.0990 O.2   229  LEU229     -0.2864
    118  CB       -27.9250  -44.6130    2.8840 C.3   229  LEU229      0.0297
    119  CG       -28.3700  -44.7980    4.3490 C.3   229  LEU229      0.0022
    120  CD1      -27.7650  -43.7420    5.2380 C.3   229  LEU229      0.0001
    121  CD2      -29.8960  -44.7360    4.4660 C.3   229  LEU229      0.0001
    122  N        -21.1970  -42.0520   10.4210 N.3   326  LYS326     -0.1245
    123  CA       -22.5940  -42.3520   10.1570 C.3   326  LYS326      0.1561
    124  C        -23.4600  -41.1060   10.1580 C.2   326  LYS326      0.2260
    125  O        -24.3270  -40.9360    9.3000 O.2   326  LYS326     -0.2867
    126  CB       -23.1200  -43.3450   11.2050 C.3   326  LYS326      0.0271
    127  CG       -22.4850  -44.7050   11.1310 C.3   326  LYS326      0.0035
    128  CD       -22.7580  -45.5070   12.3680 C.3   326  LYS326      0.0206
    129  CE       -22.3780  -46.9540   12.1610 C.3   326  LYS326      0.1093
    130  NZ       -23.1900  -47.5070   11.0380 N.3   326  LYS326     -0.1314
    131  N        -22.7010  -38.7520    7.0820 N.3   329  LEU329     -0.1245
    132  CA       -23.2370  -39.3180    5.8590 C.3   329  LEU329      0.1561
    133  C        -24.7600  -39.2320    5.8680 C.2   329  LEU329      0.2260
    134  O        -25.3890  -38.9390    4.8470 O.2   329  LEU329     -0.2867
    135  CB       -22.7770  -40.7700    5.7000 C.3   329  LEU329      0.0270
    136  CG       -21.2710  -40.9960    5.4980 C.3   329  LEU329      0.0019
    137  CD1      -20.9370  -42.4670    5.1610 C.3   329  LEU329      0.0001
    138  CD2      -20.7220  -40.0580    4.4340 C.3   329  LEU329      0.0001
    139  N        -31.7660  -43.7300   11.6060 N.3   355  TYR355     -0.1227
    140  CA       -30.7850  -44.2640   10.6830 C.3   355  TYR355      0.1736
    141  C        -31.0800  -45.6720   10.1830 C.2   355  TYR355      0.2595
    142  O        -31.1350  -45.9050    8.9710 O.2   355  TYR355     -0.2718
    143  CB       -29.4240  -44.2410   11.3820 C.3   355  TYR355      0.0548
    144  CG       -28.2190  -44.4230   10.4950 C.ar  355  TYR355     -0.0200
    145  CD1      -27.9880  -43.5830    9.4220 C.ar  355  TYR355     -0.0009
    146  CD2      -27.2850  -45.4060   10.7750 C.ar  355  TYR355     -0.0009
    147  CE1      -26.8850  -43.7370    8.6440 C.ar  355  TYR355      0.0417
    148  CE2      -26.1630  -45.5630   10.0030 C.ar  355  TYR355      0.0417
    149  CZ       -25.9720  -44.7270    8.9410 C.ar  355  TYR355      0.1957
    150  OH       -24.8650  -44.8910    8.1600 O.3   355  TYR355     -0.2866
    151  N        -31.2740  -46.6010   11.1190 N.am  356  HIS356     -0.1975
    152  CA       -31.4410  -48.0050   10.7700 C.3   356  HIS356      0.1656
    153  C        -32.6830  -48.2250    9.9110 C.2   356  HIS356      0.2291
    154  O        -32.6360  -48.9520    8.9150 O.2   356  HIS356     -0.2864
    155  CB       -31.5300  -48.8700   12.0220 C.3   356  HIS356      0.0771
    156  CG       -31.6190  -50.3350   11.7320 C.ar  356  HIS356      0.0820
    157  ND1      -32.6930  -51.1080   12.1160 N.ar  356  HIS356     -0.2267
    158  CD2      -30.7560  -51.1710   11.1060 C.ar  356  HIS356      0.1154
    159  CE1      -32.4970  -52.3540   11.7270 C.ar  356  HIS356      0.1986
    160  NE2      -31.3270  -52.4210   11.1140 N.ar  356  HIS356     -0.2212
    161  N        -31.8940  -47.3110    6.4900 N.3   359  LYS359     -0.1245
    162  CA       -31.1690  -48.3820    5.8000 C.3   359  LYS359      0.1561
    163  C        -32.0930  -49.5370    5.3660 C.2   359  LYS359      0.2260
    164  O        -31.9230  -50.0920    4.2800 O.2   359  LYS359     -0.2867
    165  CB       -30.0310  -48.9070    6.6620 C.3   359  LYS359      0.0271
    166  CG       -28.7990  -48.0030    6.6950 C.3   359  LYS359      0.0035
    167  CD       -27.7440  -48.5960    7.6260 C.3   359  LYS359      0.0206
    168  CE       -26.4010  -47.9170    7.4690 C.3   359  LYS359      0.1093
    169  NZ       -25.3290  -48.6040    8.2500 N.3   359  LYS359     -0.1314
    170  N        -31.0990  -53.9510   -1.6180 N.3   365  TYR365     -0.1227
    171  CA       -29.7760  -54.0080   -1.0070 C.3   365  TYR365      0.1736
    172  C        -29.7440  -55.0300    0.1330 C.2   365  TYR365      0.2595
    173  O        -28.8690  -55.9040    0.1860 O.2   365  TYR365     -0.2718
    174  CB       -29.3620  -52.6330   -0.4780 C.3   365  TYR365      0.0548
    175  CG       -27.9480  -52.5950    0.0630 C.ar  365  TYR365     -0.0200
    176  CD1      -27.6720  -52.8880    1.3970 C.ar  365  TYR365     -0.0009
    177  CD2      -26.8870  -52.2720   -0.7670 C.ar  365  TYR365     -0.0009
    178  CE1      -26.3750  -52.8540    1.8830 C.ar  365  TYR365      0.0417
    179  CE2      -25.5930  -52.2410   -0.2930 C.ar  365  TYR365      0.0417
    180  CZ       -25.3380  -52.5240    1.0310 C.ar  365  TYR365      0.1957
    181  OH       -24.0400  -52.4730    1.4820 O.3   365  TYR365     -0.2866
    182  N        -30.7090  -54.8990    1.0380 N.am  366  GLN366     -0.1979
    183  CA       -30.8930  -55.8180    2.1510 C.3   366  GLN366      0.1601
    184  C        -30.9750  -57.2810    1.6750 C.2   366  GLN366      0.2287
    185  O        -30.3310  -58.1730    2.2420 O.2   366  GLN366     -0.2864
    186  CB       -32.1550  -55.4140    2.9290 C.3   366  GLN366      0.0394
    187  CG       -31.9210  -54.9350    4.3770 C.3   366  GLN366      0.0908
    188  CD       -30.6180  -54.1620    4.5780 C.2   366  GLN366      0.2608
    189  OE1      -29.6040  -54.7360    4.9580 O.2   366  GLN366     -0.2717
    190  NE2      -30.6530  -52.8590    4.3470 N.am  366  GLN366     -0.0878
    191  N        -27.6050  -58.4990    0.5340 N.3   369  LYS369     -0.1245
    192  CA       -26.8400  -58.7270    1.7480 C.3   369  LYS369      0.1561
    193  C        -27.1610  -60.1090    2.3260 C.2   369  LYS369      0.2260
    194  O        -26.2430  -60.8710    2.6880 O.2   369  LYS369     -0.2867
    195  CB       -27.1420  -57.6230    2.7640 C.3   369  LYS369      0.0271
    196  CG       -26.0240  -57.3050    3.7460 C.3   369  LYS369      0.0035
    197  CD       -26.4360  -56.1820    4.7020 C.3   369  LYS369      0.0206
    198  CE       -27.3560  -56.7070    5.8070 C.3   369  LYS369      0.1093
    199  NZ       -27.6490  -55.6550    6.8280 N.3   369  LYS369     -0.1314
    200  N        -24.5740  -63.2820    3.0010 N.3   373  PHE373     -0.1241
    201  CA       -24.3600  -63.9430    4.2760 C.3   373  PHE373      0.1605
    202  C        -24.5510  -65.4490    4.0900 C.2   373  PHE373      0.2264
    203  O        -23.6930  -66.2580    4.4900 O.2   373  PHE373     -0.2867
    204  CB       -25.3120  -63.3790    5.3390 C.3   373  PHE373      0.0534
    205  CG       -24.9730  -61.9640    5.7830 C.ar  373  PHE373     -0.0203
    206  CD1      -23.8190  -61.3280    5.3330 C.ar  373  PHE373     -0.0042
    207  CD2      -25.8060  -61.2780    6.6670 C.ar  373  PHE373     -0.0042
    208  CE1      -23.5130  -60.0400    5.7390 C.ar  373  PHE373     -0.0003
    209  CE2      -25.5040  -59.9850    7.0820 C.ar  373  PHE373     -0.0003
    210  CZ       -24.3550  -59.3680    6.6170 C.ar  373  PHE373     -0.0000
    211  N        -21.2660  -64.0590    9.1560 N.3   384  TRP384     -0.1227
    212  CA       -20.8930  -62.6390    9.2360 C.3   384  TRP384      0.1737
    213  C        -21.1820  -62.0730   10.6400 C.2   384  TRP384      0.2595
    214  O        -22.1090  -62.5270   11.3220 O.2   384  TRP384     -0.2718
    215  CB       -21.6380  -61.8240    8.1720 C.3   384  TRP384      0.0564
    216  CG       -21.0900  -60.4330    7.9370 C.ar  384  TRP384      0.0003
    217  CD1      -21.4220  -59.3040    8.6140 C.ar  384  TRP384      0.0946
    218  CD2      -20.1430  -60.0320    6.9360 C.ar  384  TRP384      0.0152
    219  NE1      -20.7380  -58.2200    8.1100 N.ar  384  TRP384     -0.2442
    220  CE2      -19.9490  -58.6400    7.0760 C.ar  384  TRP384      0.0810
    221  CE3      -19.4500  -60.7100    5.9220 C.ar  384  TRP384      0.0012
    222  CZ2      -19.0770  -57.9120    6.2550 C.ar  384  TRP384      0.0191
    223  CZ3      -18.5820  -59.9860    5.0960 C.ar  384  TRP384      0.0001
    224  CH2      -18.4030  -58.5990    5.2750 C.ar  384  TRP384      0.0015
    225  N        -20.3860  -61.1050   11.0840 N.am  385  VAL385     -0.1966
    226  CA       -20.6200  -60.4750   12.3870 C.3   385  VAL385      0.1727
    227  C        -21.1630  -59.0710   12.2130 C.2   385  VAL385      0.2616
    228  O        -20.5170  -58.2380   11.5760 O.2   385  VAL385     -0.2715
    229  CB       -19.3360  -60.3880   13.2490 C.3   385  VAL385      0.0290
    230  CG1      -19.6060  -59.6110   14.5370 C.3   385  VAL385      0.0023
    231  CG2      -18.7880  -61.7780   13.5630 C.3   385  VAL385      0.0023
    232  N        -22.3540  -58.8100   12.7520 N.am  386  GLU386     -0.1963
    233  CA       -22.9150  -57.4720   12.6650 C.3   386  GLU386      0.1733
    234  C        -22.7560  -56.7630   14.0020 C.2   386  GLU386      0.2616
    235  O        -22.6360  -57.4120   15.0360 O.2   386  GLU386     -0.2715
    236  CB       -24.3800  -57.5170   12.2560 C.3   386  GLU386      0.0429
    237  CG       -24.6030  -58.1980   10.9200 C.3   386  GLU386      0.1163
    238  CD       -25.9830  -57.9350   10.3410 C.2   386  GLU386      0.3649
    239  OE1      -26.7270  -58.9140   10.1420 O.co2 386  GLU386     -0.2457
    240  OE2      -26.3250  -56.7520   10.0950 O.co2 386  GLU386     -0.2457
    241  N        -22.7430  -55.4330   13.9750 N.am  387  LYS387     -0.1977
    242  CA       -22.7610  -54.6230   15.1880 C.3   387  LYS387      0.1596
    243  C        -24.0990  -54.7960   15.9020 C.2   387  LYS387      0.2287
    244  O        -25.1100  -55.0730   15.2690 O.2   387  LYS387     -0.2864
    245  CB       -22.5400  -53.1480   14.8470 C.3   387  LYS387      0.0298
    246  CG       -21.1380  -52.7960   14.3940 C.3   387  LYS387      0.0038
    247  CD       -20.1670  -52.6710   15.5490 C.3   387  LYS387      0.0206
    248  CE       -18.8070  -52.1560   15.0760 C.3   387  LYS387      0.1093
    249  NZ       -18.1740  -53.1160   14.1160 N.3   387  LYS387     -0.1314
    250  N        -27.2210  -48.2410   15.4080 N.3   392  ASP392     -0.1239
    251  CA       -27.8840  -47.4850   14.3500 C.3   392  ASP392      0.1674
    252  C        -29.2110  -46.8290   14.7490 C.2   392  ASP392      0.2266
    253  O        -29.9030  -46.2960   13.8890 O.2   392  ASP392     -0.2867
    254  CB       -28.1300  -48.3870   13.1300 C.3   392  ASP392      0.1410
    255  CG       -26.8860  -48.5790   12.2740 C.2   392  ASP392      0.3668
    256  OD1      -25.8340  -47.9980   12.6050 O.co2 392  ASP392     -0.2456
    257  OD2      -26.9640  -49.3000   11.2560 O.co2 392  ASP392     -0.2456
@<TRIPOS>BOND
     1    93    92    2
     2    92    91    1
     3    91    94    1
     4    91    90    1
     5    94    95    1
     6   170   171    1
     7    82    81    2
     8    50    49    2
     9    47    48    1
    10   171   174    1
    11   171   172    1
    12    90    81   am
    13   177   179   ar
    14   177   175   ar
    15    81    80    1
    16    48    49    1
    17    48    51    1
    18   104   105    1
    19   100    97   ar
    20   100   102   ar
    21   107   106    2
    22    54    52    1
    23    95    97   ar
    24    95    96   ar
    25   174   175    1
    26   179   180   ar
    27    97    99   ar
    28   117   116    2
    29    30    29    1
    30    30    31    1
    31   102   103   ar
    32   175   176   ar
    33    28    27    2
    34    79    80    1
    35   172   173    2
    36   172   182   am
    37    26    29    1
    38    26    25    1
    39    26    27    1
    40    80    83    1
    41   106   105    1
    42   106   108   am
    43   116   115    1
    44    96    98   ar
    45   111   110    2
    46    31    32    1
    47   191   192    1
    48    51    52    1
    49    52    53    1
    50    27    36   am
    51   180   181    1
    52   180   178   ar
    53   182   183    1
    54    99    98   ar
    55    99   101   ar
    56    73    72    2
    57    34    33    1
    58   110   109    1
    59   110   114   am
    60   103   101   ar
    61   176   178   ar
    62   108   109    1
    63   109   112    1
    64   184   183    1
    65   184   185    2
    66    83    84    1
    67   192   193    1
    68   192   195    1
    69    72    71    1
    70   115   114    1
    71   115   118    1
    72    32    33    2
    73    39    38    2
    74    84    85    1
    75    36    37    1
    76    38    37    1
    77   183   186    1
    78    33    35    1
    79   193   194    2
    80    37    40    1
    81   195   196    1
    82   118   119    1
    83   186   187    1
    84   112   113    1
    85   200   201    1
    86    85    86    1
    87    71    70    1
    88    71    74    1
    89    86    87    2
    90   196   197    1
    91    20    19    2
    92    17    18    1
    93   202   201    1
    94   202   203    2
    95    74    75    1
    96    40    41    1
    97    19    18    1
    98   201   204    1
    99   164   163    2
   100    18    21    1
   101   190   188   am
   102   119   121    1
   103   119   120    1
   104   187   188    1
   105   138   136    1
   106    87    89    1
   107    87    88    1
   108   188   189    2
   109   197   198    1
   110   134   133    2
   111    41    42    1
   112    24    22    1
   113   223   224   ar
   114   223   221   ar
   115   137   136    1
   116   224   222   ar
   117   206   208   ar
   118   206   205   ar
   119   204   205    1
   120   163   162    1
   121   136   135    1
   122    75    76    1
   123   135   132    1
   124   208   210   ar
   125   205   207   ar
   126   162   161    1
   127   162   165    1
   128   198   199    1
   129    21    22    1
   130    21    23    1
   131   132   133    1
   132   132   131    1
   133   221   218   ar
   134   222   220   ar
   135    76    77    1
   136    42    43    1
   137   210   209   ar
   138   165   166    1
   139   207   209   ar
   140   166   167    1
   141   218   220   ar
   142   218   216   ar
   143    43    44    2
   144   220   219   ar
   145    45    44    1
   146    44    46    1
   147   168   167    1
   148   168   169    1
   149    77    78    1
   150   216   215    1
   151   216   217   ar
   152   219   217   ar
   153   150   149    1
   154   215   212    1
   155   147   149   ar
   156   147   145   ar
   157    69    68    1
   158    66    67    1
   159    66    63    1
   160   154   153    2
   161   149   148   ar
   162   142   141    2
   163    65    64    2
   164    64    63    1
   165    15    14   ar
   166   211   212    1
   167   212   213    1
   168    16    14   ar
   169   125   124    2
   170    67    68    1
   171   145   144   ar
   172    14    13    1
   173    12    11    2
   174    63    62    1
   175   153   152    1
   176   148   146   ar
   177   240   238   ar
   178   239   238   ar
   179   123   124    1
   180   123   122    1
   181   123   126    1
   182   141   140    1
   183   141   151   am
   184    13    10    1
   185    11    10    1
   186   238   237    1
   187   144   146   ar
   188   144   143    1
   189   213   225   am
   190   213   214    2
   191   140   143    1
   192   140   139    1
   193   152   151    1
   194   152   155    1
   195    62    57   am
   196   237   236    1
   197   130   129    1
   198   225   226    1
   199   158   160   ar
   200   158   156   ar
   201   160   159   ar
   202    10     9    1
   203   127   126    1
   204   127   128    1
   205   257   255   ar
   206   228   227    2
   207   159   157   ar
   208    61    59    1
   209   156   155    1
   210   156   157   ar
   211     9     3   am
   212    57    58    2
   213    57    56    1
   214   129   128    1
   215   227   226    1
   216   227   232   am
   217   236   233    1
   218   255   256   ar
   219   255   254    1
   220   226   229    1
   221   233   232    1
   222   233   234    1
   223    59    56    1
   224    59    60    1
   225    56    55    1
   226     1     2    1
   227     3     2    1
   228     3     4    2
   229   254   251    1
   230   229   231    1
   231   229   230    1
   232     5     2    1
   233     5     6    1
   234     8     6   am
   235   253   252    2
   236   241   234   am
   237   241   242    1
   238   234   235    2
   239   249   248    1
   240     6     7    2
   241   251   252    1
   242   251   250    1
   243   246   245    1
   244   246   247    1
   245   245   242    1
   246   248   247    1
   247   242   243    1
   248   244   243    2
