@<TRIPOS>MOLECULE
tmp/5edbA00.pdb
 203 187 0 0 0
SMALL
GASTEIGER

@<TRIPOS>ATOM
      1  N         10.6060   -0.9220   21.7800 N.3    19  PHE19      -0.1241
      2  CA         9.8300    0.2470   22.0260 C.3    19  PHE19       0.1605
      3  C          9.4690    0.3520   23.4900 C.2    19  PHE19       0.2264
      4  O          9.3450    1.4840   24.0140 O.2    19  PHE19      -0.2867
      5  CB         8.5950    0.2680   21.1020 C.3    19  PHE19       0.0534
      6  CG         7.8510    1.5760   21.0790 C.ar   19  PHE19      -0.0203
      7  CD1        8.5040    2.7310   20.7930 C.ar   19  PHE19      -0.0042
      8  CD2        6.4790    1.6000   21.3400 C.ar   19  PHE19      -0.0042
      9  CE1        7.7950    3.9430   20.7360 C.ar   19  PHE19      -0.0003
     10  CE2        5.7840    2.8060   21.2830 C.ar   19  PHE19      -0.0003
     11  CZ         6.4340    3.9320   21.0230 C.ar   19  PHE19      -0.0000
     12  N         12.3680    2.0450   25.1320 N.3    22  TYR22      -0.1227
     13  CA        12.3720    3.4440   24.7520 C.3    22  TYR22       0.1736
     14  C         11.3470    4.2420   25.5770 C.2    22  TYR22       0.2595
     15  O         11.6590    5.3000   26.1400 O.2    22  TYR22      -0.2718
     16  CB        12.1610    3.6120   23.2390 C.3    22  TYR22       0.0548
     17  CG        11.9620    5.0450   22.8480 C.ar   22  TYR22      -0.0200
     18  CD1       13.0480    5.9230   22.7450 C.ar   22  TYR22      -0.0009
     19  CD2       10.7100    5.5630   22.6180 C.ar   22  TYR22      -0.0009
     20  CE1       12.8430    7.2650   22.4380 C.ar   22  TYR22       0.0417
     21  CE2       10.4920    6.9020   22.3250 C.ar   22  TYR22       0.0417
     22  CZ        11.5530    7.7490   22.2210 C.ar   22  TYR22       0.1957
     23  OH        11.3510    9.0660   21.9160 O.3    22  TYR22      -0.2866
     24  N         10.1260    3.7420   25.6150 N.am   23  MET23      -0.1979
     25  CA         9.0840    4.4360   26.3290 C.3    23  MET23       0.1605
     26  C          9.4420    4.5520   27.8290 C.2    23  MET23       0.2287
     27  O          9.1910    5.5940   28.4510 O.2    23  MET23      -0.2864
     28  CB         7.7520    3.7340   26.2030 C.3    23  MET23       0.0413
     29  CG         7.0850    3.9220   24.8490 C.3    23  MET23       0.0598
     30  SD         5.4080    3.2680   24.7870 S.3    23  MET23      -0.1393
     31  CE         5.7510    1.5370   24.8820 C.3    23  MET23       0.0692
     32  N         11.8360    7.3350   28.3320 N.3    26  VAL26      -0.1245
     33  CA        11.1950    8.5960   28.1730 C.3    26  VAL26       0.1561
     34  C         10.3020    8.9730   29.3910 C.2    26  VAL26       0.2260
     35  O          9.9770   10.1350   29.5570 O.2    26  VAL26      -0.2867
     36  CB        10.3830    8.5800   26.8970 C.3    26  VAL26       0.0252
     37  CG1        9.4200    9.6660   26.8660 C.3    26  VAL26       0.0019
     38  CG2       11.2610    8.5760   25.6280 C.3    26  VAL26       0.0019
     39  N          7.3570    6.9870   30.3380 N.3    28  VAL28      -0.1245
     40  CA         6.0100    6.4950   30.1890 C.3    28  VAL28       0.1561
     41  C          5.6970    5.4240   31.2500 C.2    28  VAL28       0.2260
     42  O          6.4750    4.5250   31.4710 O.2    28  VAL28      -0.2867
     43  CB         5.7760    5.9380   28.7680 C.3    28  VAL28       0.0252
     44  CG1        4.3460    5.5060   28.5700 C.3    28  VAL28       0.0019
     45  CG2        6.2090    6.9100   27.7020 C.3    28  VAL28       0.0019
     46  N          0.1840    2.9350   30.1230 N.3    32  THR32      -0.1218
     47  CA         0.3400    3.5670   28.8250 C.3    32  THR32       0.1862
     48  C          1.3350    2.7580   27.9640 C.2    32  THR32       0.2287
     49  O          1.1230    2.6200   26.7470 O.2    32  THR32      -0.2866
     50  CB         0.7290    5.0410   28.9420 C.3    32  THR32       0.1770
     51  OG1       -0.2940    5.7140   29.6600 O.3    32  THR32      -0.2211
     52  CG2        0.9300    5.6980   27.6190 C.3    32  THR32       0.0375
     53  N          0.0540    1.5240   24.3940 N.3    36  ALA36      -0.1245
     54  CA         0.7390    2.1010   23.2440 C.3    36  ALA36       0.1562
     55  C          1.5530    1.0830   22.4880 C.2    36  ALA36       0.2260
     56  O          1.6720    1.1600   21.2700 O.2    36  ALA36      -0.2867
     57  CB         1.6160    3.2600   23.6850 C.3    36  ALA36       0.0290
     58  N         -0.3260   -0.7810   19.7000 N.3    39  ALA39      -0.1245
     59  CA        -0.9230   -0.0510   18.5840 C.3    39  ALA39       0.1562
     60  C         -0.1290   -0.2720   17.3030 C.2    39  ALA39       0.2260
     61  O          1.0880   -0.3970   17.2950 O.2    39  ALA39      -0.2867
     62  CB        -1.0060    1.4110   18.8810 C.3    39  ALA39       0.0290
     63  N         -0.0760    2.0330   14.3770 N.2    41  PRO41      -0.2584
     64  CA        -0.5530    3.2890   13.7840 C.3    41  PRO41       0.1895
     65  C         -0.4340    3.3530   12.2490 C.2    41  PRO41       0.2359
     66  O          0.4380    2.7340   11.6390 O.2    41  PRO41      -0.2858
     67  CB         0.3190    4.3530   14.4270 C.2    41  PRO41       0.0071
     68  CG         1.3220    3.6140   15.1910 C.2    41  PRO41       0.0180
     69  CD         1.0190    2.2620   15.3110 C.2    41  PRO41       0.0937
     70  N         -0.6830   10.7550   12.9110 N.3    56  SER56      -0.1217
     71  CA        -0.6660    9.3720   13.3180 C.3    56  SER56       0.1889
     72  C         -2.0560    9.0400   13.8190 C.2    56  SER56       0.2288
     73  O         -2.5840    9.7000   14.7140 O.2    56  SER56      -0.2866
     74  CB         0.3440    9.1710   14.4220 C.3    56  SER56       0.2089
     75  OG         0.4120    7.8450   14.8810 O.3    56  SER56      -0.2183
     76  N         -4.4090    5.8760   15.3450 N.3    58  SER58      -0.1217
     77  CA        -4.3070    4.5390   15.9060 C.3    58  SER58       0.1889
     78  C         -5.3950    4.3450   16.9120 C.2    58  SER58       0.2288
     79  O         -6.1050    5.2810   17.3110 O.2    58  SER58      -0.2866
     80  CB        -2.9880    4.2710   16.6160 C.3    58  SER58       0.2089
     81  OG        -2.8630    4.9200   17.8610 O.3    58  SER58      -0.2183
     82  N         -4.7940    3.7960   19.9470 N.3    60  PHE60      -0.1227
     83  CA        -4.3070    4.3760   21.1910 C.3    60  PHE60       0.1736
     84  C         -4.5960    5.8500   21.2110 C.2    60  PHE60       0.2595
     85  O         -5.3450    6.3490   22.0600 O.2    60  PHE60      -0.2718
     86  CB        -2.8250    4.0610   21.4120 C.3    60  PHE60       0.0547
     87  CG        -2.1800    4.8680   22.5000 C.ar   60  PHE60      -0.0202
     88  CD1       -2.7060    4.8670   23.7860 C.ar   60  PHE60      -0.0042
     89  CD2       -1.0090    5.5860   22.2730 C.ar   60  PHE60      -0.0042
     90  CE1       -2.1270    5.6080   24.8040 C.ar   60  PHE60      -0.0003
     91  CE2       -0.4080    6.2910   23.3110 C.ar   60  PHE60      -0.0003
     92  CZ        -1.0020    6.3130   24.5480 C.ar   60  PHE60      -0.0000
     93  N         -4.0000    6.5720   20.2900 N.am   61  LYS61      -0.1980
     94  CA        -4.1910    8.0090   20.1880 C.3    61  LYS61       0.1596
     95  C         -4.1120    8.3900   18.7290 C.2    61  LYS61       0.2287
     96  O         -3.4200    7.7550   17.9260 O.2    61  LYS61      -0.2864
     97  CB        -3.0270    8.7340   20.8050 C.3    61  LYS61       0.0298
     98  CG        -3.2860    9.4870   21.8950 C.3    61  LYS61       0.0038
     99  CD        -3.2930    8.5750   23.0260 C.3    61  LYS61       0.0206
    100  CE        -4.2270    9.0390   24.0280 C.3    61  LYS61       0.1093
    101  NZ        -4.2250    8.0730   25.1250 N.3    61  LYS61      -0.1314
    102  N         -2.6330   11.6850   16.7080 N.3    63  THR63      -0.1218
    103  CA        -1.8030   12.8600   16.8580 C.3    63  THR63       0.1862
    104  C         -1.6430   13.5490   15.4960 C.2    63  THR63       0.2287
    105  O         -1.7720   12.9210   14.4430 O.2    63  THR63      -0.2866
    106  CB        -0.3870   12.4780   17.4060 C.3    63  THR63       0.1770
    107  OG1        0.3690   11.6470   16.5290 O.3    63  THR63      -0.2211
    108  CG2       -0.3520   11.8810   18.8230 C.3    63  THR63       0.0375
    109  N          2.7220   15.1520   22.8640 N.3    77  THR77      -0.1203
    110  CA         3.0180   13.8240   22.3900 C.3    77  THR77       0.1994
    111  C          1.8770   12.8460   22.7460 C.2    77  THR77       0.2618
    112  O          0.9830   13.1680   23.5380 O.2    77  THR77      -0.2717
    113  CB         4.3520   13.3180   22.9360 C.3    77  THR77       0.1784
    114  OG1        4.2260   13.1760   24.3370 O.3    77  THR77      -0.2211
    115  CG2        5.4830   14.2740   22.5960 C.3    77  THR77       0.0376
    116  N          1.9360   11.6470   22.2040 N.am   78  ALA78      -0.1965
    117  CA         0.8800   10.6550   22.4570 C.3    78  ALA78       0.1728
    118  C          0.7680   10.2990   23.9510 C.2    78  ALA78       0.2616
    119  O         -0.3090    9.9700   24.4560 O.2    78  ALA78      -0.2715
    120  CB         1.1430    9.3830   21.6510 C.3    78  ALA78       0.0334
    121  N          1.9080   10.3240   24.6330 N.am   79  ASP79      -0.1971
    122  CA         1.9880   10.0920   26.0930 C.3    79  ASP79       0.1709
    123  C          1.8440   11.3790   26.9470 C.2    79  ASP79       0.2293
    124  O          2.1190   11.3960   28.1540 O.2    79  ASP79      -0.2864
    125  CB         3.2780    9.3630   26.4660 C.3    79  ASP79       0.1436
    126  CG         4.5310   10.1060   26.0480 C.2    79  ASP79       0.3671
    127  OD1        4.6410   10.5800   24.8690 O.co2  79  ASP79      -0.2456
    128  OD2        5.4760   10.2250   26.8620 O.co2  79  ASP79      -0.2456
    129  N          3.3170   14.3380   26.9460 N.3    81  ARG81      -0.1245
    130  CA         4.3740   15.2540   27.2530 C.3    81  ARG81       0.1563
    131  C          4.1140   16.5340   26.4660 C.2    81  ARG81       0.2260
    132  O          3.7110   16.4820   25.3030 O.2    81  ARG81      -0.2867
    133  CB         5.7360   14.6850   26.8830 C.3    81  ARG81       0.0307
    134  CG         6.2730   13.6120   27.8140 C.3    81  ARG81       0.0489
    135  CD         7.5980   13.0260   27.2790 C.3    81  ARG81       0.2205
    136  NE         7.3190   12.1460   26.1500 N.pl3  81  ARG81      -0.0865
    137  CZ         7.8570   12.1730   24.9250 C.cat  81  ARG81       0.5346
    138  NH1        8.8460   12.9590   24.6170 N.pl3  81  ARG81       0.1354
    139  NH2        7.3170   11.3440   24.0300 N.pl3  81  ARG81       0.1354
    140  N         12.8500   16.5640   20.4060 N.3    98  GLN98      -0.1245
    141  CA        11.8550   16.9830   21.3990 C.3    98  GLN98       0.1566
    142  C         12.5590   17.3080   22.7140 C.2    98  GLN98       0.2260
    143  O         13.3130   16.4700   23.2130 O.2    98  GLN98      -0.2867
    144  CB        10.8480   15.8750   21.6750 C.3    98  GLN98       0.0367
    145  CG        10.0080   15.4740   20.4910 C.3    98  GLN98       0.0905
    146  CD         9.0650   14.3000   20.7700 C.2    98  GLN98       0.2608
    147  OE1        9.3250   13.4900   21.6710 O.2    98  GLN98      -0.2717
    148  NE2        8.0030   14.1960   20.0270 N.am   98  GLN98      -0.0878
    149  N         14.0260   11.5490   17.1790 N.3   107  ILE107     -0.1245
    150  CA        13.3020   10.6360   16.3020 C.3   107  ILE107      0.1561
    151  C         13.7610   10.9060   14.8910 C.2   107  ILE107      0.2260
    152  O         13.6030   12.0190   14.4090 O.2   107  ILE107     -0.2867
    153  CB        11.7760   10.8340   16.4280 C.3   107  ILE107      0.0252
    154  CG1       11.2890   10.6430   17.8550 C.3   107  ILE107      0.0019
    155  CG2       11.0420    9.8870   15.4940 C.3   107  ILE107      0.0019
    156  CD1        9.9020   11.3250   18.0470 C.3   107  ILE107      0.0001
    157  N         13.4970    9.7480   10.8480 N.3   109  ARG109     -0.1245
    158  CA        12.6270    9.0980    9.8700 C.3   109  ARG109      0.1563
    159  C         13.3900    9.0610    8.5460 C.2   109  ARG109      0.2260
    160  O         13.8640   10.0840    8.0860 O.2   109  ARG109     -0.2867
    161  CB        11.2940    9.7990    9.7670 C.3   109  ARG109      0.0307
    162  CG        10.4730    9.7910   11.1080 C.3   109  ARG109      0.0489
    163  CD         9.2040   10.6500   11.0730 C.3   109  ARG109      0.2205
    164  NE         8.3860   10.5740   12.3110 N.pl3 109  ARG109     -0.0865
    165  CZ         8.4270   11.4600   13.2900 C.cat 109  ARG109      0.5346
    166  NH1        9.2350   12.4740   13.2640 N.pl3 109  ARG109      0.1354
    167  NH2        7.6080   11.3030   14.3440 N.pl3 109  ARG109      0.1354
    168  N         11.7070    4.3900   11.3110 N.3   118  VAL118     -0.1245
    169  CA        11.6840    5.3610   12.3690 C.3   118  VAL118      0.1561
    170  C         12.5600    4.8740   13.5080 C.2   118  VAL118      0.2260
    171  O         12.3570    3.7920   14.0630 O.2   118  VAL118     -0.2867
    172  CB        10.2400    5.6420   12.8560 C.3   118  VAL118      0.0252
    173  CG1       10.2110    6.7520   13.8970 C.3   118  VAL118      0.0019
    174  CG2        9.3030    5.9910   11.6770 C.3   118  VAL118      0.0019
    175  N         13.9390    5.8910   17.2190 N.3   120  CYS120     -0.1235
    176  CA        13.6710    6.7220   18.3900 C.3   120  CYS120      0.1677
    177  C         14.7550    6.4890   19.4090 C.2   120  CYS120      0.2270
    178  O         14.9640    5.3470   19.7980 O.2   120  CYS120     -0.2867
    179  CB        12.3080    6.3080   18.9990 C.3   120  CYS120      0.0956
    180  SG        10.9150    6.4280   17.8660 S.3   120  CYS120     -0.0801
    181  N         11.1260    1.2960   14.4720 N.3   129  ARG129     -0.1245
    182  CA         9.7770    1.0590   14.0370 C.3   129  ARG129      0.1563
    183  C          9.7770    1.1490   12.5170 C.2   129  ARG129      0.2260
    184  O         10.1940    2.1540   11.9530 O.2   129  ARG129     -0.2867
    185  CB         8.8490    2.0540   14.6880 C.3   129  ARG129      0.0307
    186  CG         8.7150    1.7470   16.2070 C.3   129  ARG129      0.0489
    187  CD         8.2090    2.8130   17.0520 C.3   129  ARG129      0.2205
    188  NE         6.7930    3.1560   16.8950 N.pl3 129  ARG129     -0.0865
    189  CZ         5.7320    2.5140   17.4350 C.cat 129  ARG129      0.5346
    190  NH1        5.8570    1.3380   17.9990 N.pl3 129  ARG129      0.1354
    191  NH2        4.5130    3.0250   17.3380 N.pl3 129  ARG129      0.1354
    192  N          7.6740    0.9280    8.9190 N.3   131  TYR131     -0.1241
    193  CA         6.4260    1.1400    8.2330 C.3   131  TYR131      0.1605
    194  C          6.5050    0.7550    6.7540 C.2   131  TYR131      0.2264
    195  O          7.5540    0.9220    6.0880 O.2   131  TYR131     -0.2867
    196  CB         6.0140    2.6050    8.2870 C.3   131  TYR131      0.0534
    197  CG         5.6850    3.1320    9.6390 C.ar  131  TYR131     -0.0201
    198  CD1        6.6570    3.4220   10.5690 C.ar  131  TYR131     -0.0009
    199  CD2        4.3470    3.4240    9.9810 C.ar  131  TYR131     -0.0009
    200  CE1        6.2890    3.9100   11.8350 C.ar  131  TYR131      0.0417
    201  CE2        3.9530    3.8920   11.2390 C.ar  131  TYR131      0.0417
    202  CZ         4.9490    4.1580   12.1400 C.ar  131  TYR131      0.1957
    203  OH         4.5740    4.6910   13.3720 O.3   131  TYR131     -0.2866
@<TRIPOS>BOND
     1   195   194    2
     2   194   193    1
     3   160   159    2
     4   193   196    1
     5   193   192    1
     6   196   197    1
     7   159   158    1
     8   197   199   ar
     9   197   198   ar
    10   161   158    1
    11   161   162    1
    12   158   157    1
    13   199   201   ar
    14   198   200   ar
    15   163   162    1
    16   163   164    1
    17   201   202   ar
    18   168   169    1
    19    66    65    2
    20   174   172    1
    21   200   202   ar
    22   184   183    2
    23   202   203    1
    24    65    64    1
    25   164   165    2
    26   169   172    1
    27   169   170    1
    28   183   182    1
    29   172   173    1
    30    70    71    1
    31   166   165    1
    32   165   167    1
    33    71    72    1
    34    71    74    1
    35   170   171    2
    36    64    63    1
    37    64    67    1
    38    72    73    2
    39   182   181    1
    40   182   185    1
    41    63    69    2
    42   152   151    2
    43    74    75    1
    44    67    68    2
    45   105   104    2
    46   185   186    1
    47   151   150    1
    48    68    69    1
    49    76    77    1
    50   155   153    1
    51   104   103    1
    52    77    80    1
    53    77    78    1
    54   186   187    1
    55   150   153    1
    56   150   149    1
    57   153   154    1
    58   107   106    1
    59    80    81    1
    60   102   103    1
    61   103   106    1
    62   188   187    1
    63   188   189    2
    64    78    79    2
    65   175   176    1
    66    61    60    2
    67    60    59    1
    68   191   189    1
    69   106   108    1
    70   189   190    1
    71   154   156    1
    72   180   179    1
    73    96    95    2
    74   176   179    1
    75   176   177    1
    76    59    62    1
    77    59    58    1
    78    95    94    1
    79   177   178    2
    80    82    83    1
    81   148   146   am
    82    94    93    1
    83    94    97    1
    84    93    84   am
    85   140   141    1
    86   145   146    1
    87   145   144    1
    88     9     7   ar
    89     9    11   ar
    90   146   147    2
    91     7     6   ar
    92    97    98    1
    93    11    10   ar
    94     6     5    1
    95     6     8   ar
    96     5     2    1
    97    83    84    1
    98    83    86    1
    99    84    85    2
   100    56    55    2
   101    10     8   ar
   102   141   144    1
   103   141   142    1
   104    86    87    1
   105   120   117    1
   106     1     2    1
   107    98    99    1
   108    23    22    1
   109     2     3    1
   110   116   117    1
   111   116   111   am
   112    22    21   ar
   113    22    20   ar
   114    89    87   ar
   115    89    91   ar
   116    21    19   ar
   117   110   111    1
   118   110   109    1
   119   110   113    1
   120    20    18   ar
   121   117   118    1
   122    55    54    1
   123    87    88   ar
   124   115   113    1
   125    19    17   ar
   126   142   143    2
   127    18    17   ar
   128   111   112    2
   129    17    16    1
   130   113   114    1
   131    99   100    1
   132    16    13    1
   133    54    57    1
   134    54    53    1
   135    91    92   ar
   136     3     4    2
   137    88    90   ar
   138   118   119    2
   139   118   121   am
   140   100   101    1
   141   139   137    1
   142    92    90   ar
   143   138   137    1
   144   121   122    1
   145    13    12    1
   146    13    14    1
   147    30    29    1
   148    30    31    1
   149    29    28    1
   150   127   126   ar
   151   137   136    2
   152   132   131    2
   153    14    24   am
   154    14    15    2
   155    24    25    1
   156    38    36    1
   157   126   125    1
   158   126   128   ar
   159   122   125    1
   160   122   123    1
   161   136   135    1
   162    28    25    1
   163    25    26    1
   164   131   130    1
   165    49    48    2
   166    37    36    1
   167   133   130    1
   168   133   134    1
   169    36    33    1
   170   129   130    1
   171   123   124    2
   172   135   134    1
   173    52    50    1
   174    45    43    1
   175    26    27    2
   176    48    47    1
   177    33    32    1
   178    33    34    1
   179    44    43    1
   180    43    40    1
   181    47    50    1
   182    47    46    1
   183    50    51    1
   184    34    35    2
   185    40    39    1
   186    40    41    1
   187    41    42    2
