@<TRIPOS>MOLECULE
tmp/5edeC00.pdb
 169 159 0 0 0
SMALL
GASTEIGER

@<TRIPOS>ATOM
      1  N         74.6910    4.1620   -5.7740 N.3    66  TYR66      -0.1241
      2  CA        75.4580    4.5100   -6.9680 C.3    66  TYR66       0.1605
      3  C         75.3650    5.9960   -7.2610 C.2    66  TYR66       0.2264
      4  O         76.3740    6.7420   -7.3510 O.2    66  TYR66      -0.2867
      5  CB        75.0200    3.6580   -8.2040 C.3    66  TYR66       0.0534
      6  CG        75.8080    4.1140   -9.4520 C.ar   66  TYR66      -0.0201
      7  CD1       77.1930    4.0780   -9.4560 C.ar   66  TYR66      -0.0009
      8  CD2       75.1880    4.6150  -10.5490 C.ar   66  TYR66      -0.0009
      9  CE1       77.9080    4.5090  -10.5610 C.ar   66  TYR66       0.0417
     10  CE2       75.9290    5.0760  -11.6840 C.ar   66  TYR66       0.0417
     11  CZ        77.2220    5.0280  -11.6650 C.ar   66  TYR66       0.1957
     12  OH        77.8700    5.4420  -12.7630 O.3    66  TYR66      -0.2866
     13  N         64.8750    4.9280  -11.7500 N.3   113  SER113     -0.1217
     14  CA        64.8360    5.3310  -13.1360 C.3   113  SER113      0.1889
     15  C         63.5820    6.0290  -13.4690 C.2   113  SER113      0.2288
     16  O         62.5560    5.9140  -12.7820 O.2   113  SER113     -0.2866
     17  CB        64.8970    4.1090  -14.0630 C.3   113  SER113      0.2089
     18  OG        63.6420    3.4160  -14.1440 O.3   113  SER113     -0.2183
     19  N         61.6700    5.3950  -15.8070 N.3   115  SER115     -0.1217
     20  CA        60.6530    4.3420  -16.0700 C.3   115  SER115      0.1889
     21  C         59.8620    3.9770  -14.8360 C.2   115  SER115      0.2288
     22  O         58.6110    3.8880  -14.8620 O.2   115  SER115     -0.2866
     23  CB        61.2720    3.0670  -16.5860 C.3   115  SER115      0.2089
     24  OG        61.4120    3.1700  -17.9800 O.3   115  SER115     -0.2183
     25  N         55.9790    4.5080  -14.0930 N.3   119  LYS119     -0.1245
     26  CA        55.1690    3.3710  -13.6060 C.3   119  LYS119      0.1561
     27  C         54.4860    3.5600  -12.2400 C.2   119  LYS119      0.2260
     28  O         53.2950    3.2460  -12.0510 O.2   119  LYS119     -0.2867
     29  CB        55.9610    2.0820  -13.6260 C.3   119  LYS119      0.0271
     30  CG        55.9700    1.5660  -15.0260 C.3   119  LYS119      0.0035
     31  CD        57.0670    0.5770  -15.3080 C.3   119  LYS119      0.0206
     32  CE        57.0570    0.2000  -16.8350 C.3   119  LYS119      0.1093
     33  NZ        58.3030    0.7570  -17.5470 N.3   119  LYS119     -0.1314
     34  N         69.7870    8.9940  -20.8160 N.3   177  LEU177     -0.1245
     35  CA        70.4170    8.0130  -21.7170 C.3   177  LEU177      0.1561
     36  C         69.4920    7.6890  -22.9080 C.2   177  LEU177      0.2260
     37  O         69.9360    7.2740  -24.0080 O.2   177  LEU177     -0.2867
     38  CB        70.7230    6.7480  -20.9240 C.3   177  LEU177      0.0270
     39  CG        71.7210    5.8560  -21.6010 C.3   177  LEU177      0.0019
     40  CD1       73.0640    6.5720  -21.8920 C.3   177  LEU177      0.0001
     41  CD2       71.9010    4.6220  -20.6350 C.3   177  LEU177      0.0001
     42  N         70.9120    8.1380  -27.7780 N.3   181  PHE181     -0.1241
     43  CA        71.0020    7.2390  -28.9240 C.3   181  PHE181      0.1605
     44  C         70.8430    8.0460  -30.2050 C.2   181  PHE181      0.2264
     45  O         71.6360    7.9480  -31.1570 O.2   181  PHE181     -0.2867
     46  CB        69.9570    6.1770  -28.8360 C.3   181  PHE181      0.0534
     47  CG        70.2270    5.1430  -27.7420 C.ar  181  PHE181     -0.0203
     48  CD1       71.1480    4.0690  -27.9700 C.ar  181  PHE181     -0.0042
     49  CD2       69.5440    5.1850  -26.5410 C.ar  181  PHE181     -0.0042
     50  CE1       71.3620    3.0510  -26.9650 C.ar  181  PHE181     -0.0003
     51  CE2       69.7570    4.1850  -25.5540 C.ar  181  PHE181     -0.0003
     52  CZ        70.6660    3.1470  -25.7600 C.ar  181  PHE181     -0.0000
     53  N         79.1910   10.5030  -17.7970 N.3   216  ASP216     -0.1225
     54  CA        78.2200    9.8770  -16.9470 C.3   216  ASP216      0.1805
     55  C         78.5360    8.3900  -16.8290 C.2   216  ASP216      0.2597
     56  O         78.3730    7.7400  -15.8080 O.2   216  ASP216     -0.2718
     57  CB        76.7990   10.0650  -17.4900 C.3   216  ASP216      0.1424
     58  CG        75.7710    9.9170  -16.4450 C.2   216  ASP216      0.3668
     59  OD1       76.1140    9.6470  -15.2510 O.co2 216  ASP216     -0.2456
     60  OD2       74.6310   10.0240  -16.8560 O.co2 216  ASP216     -0.2456
     61  N         79.0940    7.8730  -17.9140 N.am  217  LEU217     -0.1979
     62  CA        79.3060    6.4600  -18.0080 C.3   217  LEU217      0.1596
     63  C         80.6820    6.0450  -17.6050 C.2   217  LEU217      0.2287
     64  O         81.0630    4.8840  -17.7540 O.2   217  LEU217     -0.2864
     65  CB        79.0100    5.9610  -19.4380 C.3   217  LEU217      0.0297
     66  CG        77.6040    5.9820  -19.9580 C.3   217  LEU217      0.0022
     67  CD1       77.5520    5.3400  -21.3860 C.3   217  LEU217      0.0001
     68  CD2       76.5560    5.4000  -18.8800 C.3   217  LEU217      0.0001
     69  N         82.4580    5.0610  -15.3200 N.3   219  SER219     -0.1202
     70  CA        82.8310    3.9220  -14.4530 C.3   219  SER219      0.2020
     71  C         83.3260    2.7200  -15.2420 C.2   219  SER219      0.2618
     72  O         84.0750    1.9140  -14.6990 O.2   219  SER219     -0.2717
     73  CB        81.6850    3.5490  -13.5370 C.3   219  SER219      0.2103
     74  OG        81.6520    4.5660  -12.5020 O.3   219  SER219     -0.2182
     75  N         82.9230    2.6810  -16.5220 N.am  220  VAL220     -0.1979
     76  CA        83.2740    1.6040  -17.4870 C.3   220  VAL220      0.1595
     77  C         84.6510    1.7470  -18.1220 C.2   220  VAL220      0.2287
     78  O         85.1510    0.8700  -18.8620 O.2   220  VAL220     -0.2864
     79  CB        82.1980    1.4280  -18.6220 C.3   220  VAL220      0.0276
     80  CG1       80.8330    1.1600  -18.0380 C.3   220  VAL220      0.0022
     81  CG2       82.1760    2.5950  -19.6300 C.3   220  VAL220      0.0022
     82  N         76.0280   -0.2440   -8.8630 N.3   234  ILE234     -0.1231
     83  CA        75.0740   -0.0360   -9.9790 C.3   234  ILE234      0.1692
     84  C         73.8920   -1.0150   -9.9150 C.2   234  ILE234      0.2592
     85  O         72.6780   -0.7030  -10.0030 O.2   234  ILE234     -0.2718
     86  CB        75.7860   -0.0670  -11.3750 C.3   234  ILE234      0.0266
     87  CG1       76.7070    1.1460  -11.4990 C.3   234  ILE234      0.0019
     88  CG2       74.7510   -0.0230  -12.5470 C.3   234  ILE234      0.0020
     89  CD1       77.4790    1.1860  -12.8710 C.3   234  ILE234      0.0001
     90  N         74.2660   -2.2340   -9.6630 N.am  235  TYR235     -0.1976
     91  CA        73.2580   -3.3230   -9.6060 C.3   235  TYR235      0.1639
     92  C         72.4880   -3.3990   -8.2880 C.2   235  TYR235      0.2290
     93  O         71.3250   -3.7550   -8.2380 O.2   235  TYR235     -0.2864
     94  CB        73.9110   -4.6550   -9.8640 C.3   235  TYR235      0.0560
     95  CG        74.0110   -4.9250  -11.3240 C.ar  235  TYR235     -0.0198
     96  CD1       72.9140   -5.3460  -12.0210 C.ar  235  TYR235     -0.0009
     97  CD2       75.1990   -4.7330  -12.0040 C.ar  235  TYR235     -0.0009
     98  CE1       72.9730   -5.5840  -13.3440 C.ar  235  TYR235      0.0417
     99  CE2       75.2880   -4.9900  -13.3360 C.ar  235  TYR235      0.0417
    100  CZ        74.1550   -5.4270  -14.0020 C.ar  235  TYR235      0.1957
    101  OH        74.2030   -5.6620  -15.3380 O.3   235  TYR235     -0.2866
    102  N         69.7840   -1.2130   -9.1600 N.3   238  PHE238     -0.1241
    103  CA        68.9510   -1.8590  -10.1600 C.3   238  PHE238      0.1605
    104  C         68.0300   -2.9150   -9.5590 C.2   238  PHE238      0.2264
    105  O         66.8720   -3.0920   -9.9880 O.2   238  PHE238     -0.2867
    106  CB        69.7700   -2.5590  -11.2860 C.3   238  PHE238      0.0534
    107  CG        70.2820   -1.6220  -12.3670 C.ar  238  PHE238     -0.0203
    108  CD1       69.7900   -0.3490  -12.4790 C.ar  238  PHE238     -0.0042
    109  CD2       71.2690   -2.0200  -13.2480 C.ar  238  PHE238     -0.0042
    110  CE1       70.2860    0.5320  -13.4190 C.ar  238  PHE238     -0.0003
    111  CE2       71.7930   -1.1350  -14.1930 C.ar  238  PHE238     -0.0003
    112  CZ        71.2860    0.1440  -14.2840 C.ar  238  PHE238     -0.0000
    113  N         65.2160   -1.5030   -7.5050 N.3   241  GLU241     -0.1245
    114  CA        64.2150   -0.9330   -8.3650 C.3   241  GLU241      0.1567
    115  C         63.3220   -2.0470   -8.8980 C.2   241  GLU241      0.2260
    116  O         62.1060   -1.9760   -9.0270 O.2   241  GLU241     -0.2867
    117  CB        64.8000   -0.1420   -9.5500 C.3   241  GLU241      0.0388
    118  CG        63.6650    0.2360  -10.5060 C.3   241  GLU241      0.1160
    119  CD        64.0940    1.2290  -11.5920 C.2   241  GLU241      0.3649
    120  OE1       65.0540    1.9740  -11.3470 O.co2 241  GLU241     -0.2457
    121  OE2       63.4460    1.2810  -12.6760 O.co2 241  GLU241     -0.2457
    122  N         62.3940   -6.0570  -15.9760 N.3   253  ILE253     -0.1245
    123  CA        63.4360   -6.4750  -16.9340 C.3   253  ILE253      0.1561
    124  C         64.5580   -7.1780  -16.1510 C.2   253  ILE253      0.2260
    125  O         64.8500   -6.8420  -14.9730 O.2   253  ILE253     -0.2867
    126  CB        64.0060   -5.2940  -17.8150 C.3   253  ILE253      0.0252
    127  CG1       64.9190   -4.3540  -17.0360 C.3   253  ILE253      0.0019
    128  CG2       62.8900   -4.4580  -18.4230 C.3   253  ILE253      0.0019
    129  CD1       65.3040   -3.1180  -17.8730 C.3   253  ILE253      0.0001
    130  N         67.5920   -7.2610  -15.9030 N.3   255  MET255     -0.1230
    131  CA        68.7800   -6.6080  -15.4420 C.3   255  MET255      0.1702
    132  C         68.5260   -6.1880  -14.0320 C.2   255  MET255      0.2592
    133  O         69.4490   -6.1040  -13.2100 O.2   255  MET255     -0.2718
    134  CB        69.1790   -5.4150  -16.3300 C.3   255  MET255      0.0401
    135  CG        69.4680   -4.1160  -15.6190 C.3   255  MET255      0.0596
    136  SD        69.6280   -2.7680  -16.8640 S.3   255  MET255     -0.1393
    137  CE        68.4600   -1.5820  -16.1680 C.3   255  MET255      0.0692
    138  N         67.2490   -6.0060  -13.7630 N.am  256  MET256     -0.1979
    139  CA        66.7780   -5.4710  -12.4880 C.3   256  MET256      0.1605
    140  C         66.1500   -6.5120  -11.5620 C.2   256  MET256      0.2287
    141  O         65.4810   -6.2400  -10.5620 O.2   256  MET256     -0.2864
    142  CB        65.7790   -4.4120  -12.7610 C.3   256  MET256      0.0413
    143  CG        66.3130   -3.4040  -13.7600 C.3   256  MET256      0.0598
    144  SD        65.4770   -1.8740  -13.4900 S.3   256  MET256     -0.1393
    145  CE        63.7540   -2.2390  -13.8000 C.3   256  MET256      0.0692
    146  N         75.1800   -9.2370  -19.5670 N.3   267  GLY267     -0.1210
    147  CA        74.3210   -8.0850  -19.6040 C.3   267  GLY267      0.1956
    148  C         75.1390   -6.8530  -19.8030 C.2   267  GLY267      0.2611
    149  O         74.7970   -5.9880  -20.5490 O.2   267  GLY267     -0.2717
    150  N         76.2710   -6.8790  -19.1600 N.am  268  GLN268     -0.1979
    151  CA        77.2850   -5.8430  -19.2850 C.3   268  GLN268      0.1601
    152  C         77.8760   -5.8390  -20.7060 C.2   268  GLN268      0.2287
    153  O         78.0680   -4.7710  -21.3320 O.2   268  GLN268     -0.2864
    154  CB        78.4200   -6.0540  -18.2810 C.3   268  GLN268      0.0394
    155  CG        78.1030   -5.7020  -16.8280 C.3   268  GLN268      0.0908
    156  CD        77.8370   -4.2470  -16.6880 C.2   268  GLN268      0.2608
    157  OE1       78.7500   -3.4450  -16.7380 O.2   268  GLN268     -0.2717
    158  NE2       76.5820   -3.8740  -16.6070 N.am  268  GLN268     -0.0878
    159  N         75.7400   -4.1650  -22.8520 N.3   271  PHE271     -0.1241
    160  CA        75.6430   -2.7080  -22.5890 C.3   271  PHE271      0.1605
    161  C         76.8230   -1.9970  -23.2520 C.2   271  PHE271      0.2264
    162  O         76.7020   -0.9200  -23.8110 O.2   271  PHE271     -0.2867
    163  CB        75.5580   -2.3760  -21.0790 C.3   271  PHE271      0.0534
    164  CG        75.6180   -0.8960  -20.7910 C.ar  271  PHE271     -0.0203
    165  CD1       74.4990   -0.1100  -20.8960 C.ar  271  PHE271     -0.0042
    166  CD2       76.8170   -0.2700  -20.4510 C.ar  271  PHE271     -0.0042
    167  CE1       74.5520    1.2360  -20.6700 C.ar  271  PHE271     -0.0003
    168  CE2       76.8620    1.0810  -20.2440 C.ar  271  PHE271     -0.0003
    169  CZ        75.7010    1.8310  -20.3350 C.ar  271  PHE271     -0.0000
@<TRIPOS>BOND
     1    45    44    2
     2    44    43    1
     3    43    46    1
     4    43    42    1
     5    46    47    1
     6    48    47   ar
     7    48    50   ar
     8    47    49   ar
     9    50    52   ar
    10    49    51   ar
    11    52    51   ar
    12    37    36    2
    13   162   161    2
    14   161   160    1
    15    36    35    1
    16   159   160    1
    17   160   163    1
    18    40    39    1
    19    35    38    1
    20    35    34    1
    21    39    38    1
    22    39    41    1
    23    67    66    1
    24   153   152    2
    25   163   164    1
    26   165   164   ar
    27   165   167   ar
    28   164   166   ar
    29   152   151    1
    30   167   169   ar
    31   149   148    2
    32   166   168   ar
    33   169   168   ar
    34    66    65    1
    35    66    68    1
    36   148   147    1
    37   148   150   am
    38    81    79    1
    39   147   146    1
    40    65    62    1
    41   151   150    1
    42   151   154    1
    43    78    77    2
    44    79    80    1
    45    79    76    1
    46   128   126    1
    47   154   155    1
    48    77    76    1
    49    62    61    1
    50    62    63    1
    51    24    23    1
    52    61    55   am
    53   129   127    1
    54   126   127    1
    55   126   123    1
    56    53    54    1
    57    64    63    2
    58    33    32    1
    59    57    54    1
    60    57    58    1
    61    76    75    1
    62    54    55    1
    63   123   124    1
    64   123   122    1
    65   136   137    1
    66   136   135    1
    67    60    58   ar
    68    32    31    1
    69    55    56    2
    70   155   156    1
    71   157   156    2
    72   156   158   am
    73    23    20    1
    74    75    71   am
    75    58    59   ar
    76   134   135    1
    77   134   131    1
    78   124   125    2
    79    20    19    1
    80    20    21    1
    81   130   131    1
    82   131   132    1
    83   101   100    1
    84    69    70    1
    85    31    30    1
    86    71    72    2
    87    71    70    1
    88    30    29    1
    89    22    21    2
    90    70    73    1
    91   112   111   ar
    92   112   110   ar
    93   111   109   ar
    94    18    17    1
    95    25    26    1
    96    17    14    1
    97   132   138   am
    98   132   133    2
    99   100    98   ar
   100   100    99   ar
   101   145   144    1
   102   138   139    1
   103   143   144    1
   104   143   142    1
   105    29    26    1
   106    26    27    1
   107    73    74    1
   108    15    14    1
   109    15    16    2
   110   110   108   ar
   111    98    96   ar
   112    99    97   ar
   113   109   107   ar
   114    14    13    1
   115    89    87    1
   116    12    11    1
   117   142   139    1
   118   121   119   ar
   119    88    86    1
   120   139   140    1
   121   108   107   ar
   122   107   106    1
   123    27    28    2
   124    96    95   ar
   125    97    95   ar
   126    10    11   ar
   127    10     8   ar
   128    11     9   ar
   129   119   120   ar
   130   119   118    1
   131   140   141    2
   132    87    86    1
   133    86    83    1
   134    95    94    1
   135   106   103    1
   136     9     7   ar
   137     8     6   ar
   138   118   117    1
   139   103   104    1
   140   103   102    1
   141    85    84    2
   142   105   104    2
   143    83    84    1
   144    83    82    1
   145    84    90   am
   146    94    91    1
   147    90    91    1
   148    91    92    1
   149   117   114    1
   150     7     6   ar
   151     6     5    1
   152   116   115    2
   153   115   114    1
   154   114   113    1
   155    92    93    2
   156     5     2    1
   157     4     3    2
   158     3     2    1
   159     2     1    1
