@<TRIPOS>MOLECULE
tmp/5edfA00.pdb
 98 93 0 0 0
SMALL
GASTEIGER

@<TRIPOS>ATOM
      1  N          6.2400   16.6420   18.6340 N.3    97  ASP97      -0.1239
      2  CA         5.5190   15.4620   19.0900 C.3    97  ASP97       0.1674
      3  C          6.1990   14.2130   18.6080 C.2    97  ASP97       0.2266
      4  O          6.6050   14.1340   17.4370 O.2    97  ASP97      -0.2867
      5  CB         4.0930   15.4950   18.5770 C.3    97  ASP97       0.1410
      6  CG         3.2940   16.6010   19.2150 C.2    97  ASP97       0.3668
      7  OD1        3.1180   16.5630   20.4330 O.co2  97  ASP97      -0.2456
      8  OD2        2.8400   17.4780   18.4550 O.co2  97  ASP97      -0.2456
      9  N          5.6270   10.0750   18.4100 N.3    99  VAL99      -0.1245
     10  CA         4.6020    9.0450   18.5410 C.3    99  VAL99       0.1561
     11  C          5.2760    7.6920   18.6860 C.2    99  VAL99       0.2260
     12  O          6.0280    7.2570   17.8120 O.2    99  VAL99      -0.2867
     13  CB         3.6100    9.0930   17.3920 C.3    99  VAL99       0.0252
     14  CG1        2.5790    7.9540   17.5160 C.3    99  VAL99       0.0019
     15  CG2        2.9010   10.4320   17.3320 C.3    99  VAL99       0.0019
     16  N          4.7560    3.5690   19.4100 N.3   101  ARG101     -0.1245
     17  CA         3.8880    2.3810   19.3420 C.3   101  ARG101      0.1563
     18  C          4.7380    1.1540   19.5230 C.2   101  ARG101      0.2260
     19  O          5.9500    1.2000   19.3610 O.2   101  ARG101     -0.2867
     20  CB         3.1750    2.2620   17.9900 C.3   101  ARG101      0.0307
     21  CG         2.2880    3.4160   17.7110 C.3   101  ARG101      0.0489
     22  CD         1.5560    3.2260   16.3850 C.3   101  ARG101      0.2205
     23  NE         0.5080    2.2490   16.5900 N.pl3 101  ARG101     -0.0865
     24  CZ        -0.8030    2.5060   16.6940 C.cat 101  ARG101      0.5346
     25  NH1       -1.2980    3.7190   16.5240 N.pl3 101  ARG101      0.1354
     26  NH2       -1.6180    1.5100   16.9390 N.pl3 101  ARG101      0.1354
     27  N          8.9410   -2.0370   10.2420 N.3   106  SER106     -0.1202
     28  CA         8.6760   -2.2720    8.8170 C.3   106  SER106      0.2020
     29  C          9.4520   -1.3000    7.9310 C.2   106  SER106      0.2618
     30  O          9.1070   -1.0940    6.7610 O.2   106  SER106     -0.2717
     31  CB         7.1710   -2.2680    8.5230 C.3   106  SER106      0.2103
     32  OG         6.5470   -1.0600    8.8870 O.3   106  SER106     -0.2182
     33  N         10.5150   -0.7200    8.4790 N.am  107  LEU107     -0.1979
     34  CA        11.4600    0.0120    7.6640 C.3   107  LEU107      0.1596
     35  C         12.1700   -0.9920    6.7620 C.2   107  LEU107      0.2287
     36  O         12.6350   -2.0230    7.2260 O.2   107  LEU107     -0.2864
     37  CB        12.4740    0.7600    8.5290 C.3   107  LEU107      0.0297
     38  CG        11.8690    1.8340    9.4590 C.3   107  LEU107      0.0022
     39  CD1       13.0300    2.5020   10.1730 C.3   107  LEU107      0.0001
     40  CD2       11.0080    2.8440    8.7500 C.3   107  LEU107      0.0001
     41  N         15.1170    6.2070    9.3960 N.3   157  ILE157     -0.1245
     42  CA        15.2140    6.9560    8.1660 C.3   157  ILE157      0.1561
     43  C         14.8070    8.4000    8.4440 C.2   157  ILE157      0.2260
     44  O         13.6810    8.6690    8.9190 O.2   157  ILE157     -0.2867
     45  CB        14.4180    6.3250    6.9890 C.3   157  ILE157      0.0252
     46  CG1       14.4480    7.2490    5.7640 C.3   157  ILE157      0.0019
     47  CG2       13.0010    6.0180    7.4060 C.3   157  ILE157      0.0019
     48  CD1       14.2050    6.5510    4.4220 C.3   157  ILE157      0.0001
     49  N         11.2130   14.5950    8.5030 N.3   176  SER176     -0.1202
     50  CA        10.4590   13.4620    9.0490 C.3   176  SER176      0.2020
     51  C         11.4590   12.4160    9.5320 C.2   176  SER176      0.2619
     52  O         12.5320   12.2360    8.9240 O.2   176  SER176     -0.2717
     53  CB         9.5450   12.8450    8.0080 C.3   176  SER176      0.2103
     54  OG        10.2620   12.1730    6.9990 O.3   176  SER176     -0.2182
     55  N         11.1110   11.6930   10.5860 N.am  177  VAL177     -0.1965
     56  CA        11.9110   10.5880   11.0530 C.3   177  VAL177      0.1727
     57  C         10.9910    9.4010   11.3210 C.2   177  VAL177      0.2616
     58  O         10.0060    9.5010   12.0840 O.2   177  VAL177     -0.2715
     59  CB        12.6720   10.9150   12.3320 C.3   177  VAL177      0.0290
     60  CG1       13.5090    9.7180   12.7470 C.3   177  VAL177      0.0023
     61  CG2       13.5500   12.1620   12.1400 C.3   177  VAL177      0.0023
     62  N         11.3110    8.2680   10.7130 N.am  178  GLY178     -0.1955
     63  CA        10.7670    6.9730   11.0880 C.3   178  GLY178      0.1869
     64  C         11.8280    6.1220   11.6910 C.2   178  GLY178      0.2309
     65  O         12.9080    6.0570   11.1250 O.2   178  GLY178     -0.2863
     66  N          8.0670    7.6770   15.6040 N.3   187  GLN187     -0.1231
     67  CA         7.8330    8.4380   14.3760 C.3   187  GLN187      0.1698
     68  C          7.5500    9.8680   14.7590 C.2   187  GLN187      0.2592
     69  O          6.7120   10.1400   15.6360 O.2   187  GLN187     -0.2718
     70  CB         6.6790    7.8350   13.5980 C.3   187  GLN187      0.0381
     71  CG         6.9330    6.4000   13.1580 C.3   187  GLN187      0.0905
     72  CD         5.7760    5.7010   12.5150 C.2   187  GLN187      0.2608
     73  OE1        4.7150    6.2640   12.3220 O.2   187  GLN187     -0.2717
     74  NE2        5.9860    4.4220   12.2040 N.am  187  GLN187     -0.0878
     75  N          8.1960   10.8150   14.0810 N.am  188  TYR188     -0.1962
     76  CA         8.0590   12.2060   14.4780 C.3   188  TYR188      0.1771
     77  C          8.5120   13.1480   13.3800 C.2   188  TYR188      0.2619
     78  O          9.2770   12.7720   12.5040 O.2   188  TYR188     -0.2715
     79  CB         8.8380   12.4470   15.7680 C.3   188  TYR188      0.0574
     80  CG        10.3230   12.1750   15.7480 C.ar  188  TYR188     -0.0198
     81  CD1       11.2310   13.2040   15.5750 C.ar  188  TYR188     -0.0009
     82  CD2       10.8240   10.8950   15.9340 C.ar  188  TYR188     -0.0009
     83  CE1       12.6000   12.9600   15.5660 C.ar  188  TYR188      0.0417
     84  CE2       12.1790   10.6400   15.9410 C.ar  188  TYR188      0.0417
     85  CZ        13.0720   11.6700   15.7450 C.ar  188  TYR188      0.1957
     86  OH        14.4420   11.5070   15.7560 O.3   188  TYR188     -0.2866
     87  N          8.0840   14.3860   13.4840 N.am  189  TYR189     -0.1974
     88  CA         8.4960   15.5350   12.6880 C.3   189  TYR189      0.1639
     89  C          9.2450   16.4810   13.6270 C.2   189  TYR189      0.2290
     90  O          8.6180   17.2310   14.3920 O.2   189  TYR189     -0.2864
     91  CB         7.2890   16.2430   12.0740 C.3   189  TYR189      0.0560
     92  CG         6.5020   15.4480   11.0800 C.ar  189  TYR189     -0.0198
     93  CD1        7.0040   15.1330    9.8470 C.ar  189  TYR189     -0.0009
     94  CD2        5.1990   15.0070   11.3670 C.ar  189  TYR189     -0.0009
     95  CE1        6.2960   14.3810    8.9270 C.ar  189  TYR189      0.0417
     96  CE2        4.4660   14.2620   10.4500 C.ar  189  TYR189      0.0417
     97  CZ         5.0050   13.9500    9.2310 C.ar  189  TYR189      0.1957
     98  OH         4.2730   13.2090    8.2980 O.3   189  TYR189     -0.2866
@<TRIPOS>BOND
     1    48    46    1
     2    46    45    1
     3    30    29    2
     4    35    36    2
     5    35    34    1
     6    45    47    1
     7    45    42    1
     8    54    53    1
     9    34    33    1
    10    34    37    1
    11    29    33   am
    12    29    28    1
    13    53    50    1
    14    42    43    1
    15    42    41    1
    16    98    97    1
    17    43    44    2
    18    49    50    1
    19    31    28    1
    20    31    32    1
    21    37    38    1
    22    40    38    1
    23    28    27    1
    24    52    51    2
    25    95    97   ar
    26    95    93   ar
    27    50    51    1
    28    97    96   ar
    29    38    39    1
    30    51    55   am
    31    93    92   ar
    32    96    94   ar
    33    55    56    1
    34    62    63    1
    35    62    57   am
    36    56    57    1
    37    56    59    1
    38    92    94   ar
    39    92    91    1
    40    63    64    1
    41    65    64    2
    42    57    58    2
    43    91    88    1
    44    61    59    1
    45    74    72   am
    46    73    72    2
    47    59    60    1
    48    78    77    2
    49    72    71    1
    50    88    87    1
    51    88    89    1
    52    71    70    1
    53    77    87   am
    54    77    76    1
    55    70    67    1
    56    89    90    2
    57    75    76    1
    58    75    68   am
    59    67    68    1
    60    67    66    1
    61    76    79    1
    62    68    69    2
    63    83    81   ar
    64    83    85   ar
    65    81    80   ar
    66    85    86    1
    67    85    84   ar
    68    80    79    1
    69    80    82   ar
    70    82    84   ar
    71    22    23    1
    72    22    21    1
    73    25    24    1
    74    23    24    2
    75    24    26    1
    76    15    13    1
    77    13    14    1
    78    13    10    1
    79     4     3    2
    80    21    20    1
    81    12    11    2
    82    20    17    1
    83     9    10    1
    84     8     6   ar
    85    10    11    1
    86     5     2    1
    87     5     6    1
    88     3     2    1
    89     1     2    1
    90     6     7   ar
    91    17    16    1
    92    17    18    1
    93    19    18    2
