@<TRIPOS>MOLECULE
tmp/5edfA01.pdb
 103 99 0 0 0
SMALL
GASTEIGER

@<TRIPOS>ATOM
      1  N         -9.1060    7.4180   33.9030 N.3     3  THR3       -0.1218
      2  CA        -8.0620    8.4360   33.7530 C.3     3  THR3        0.1862
      3  C         -8.1050    9.3620   34.9430 C.2     3  THR3        0.2287
      4  O         -9.1800    9.6130   35.5080 O.2     3  THR3       -0.2866
      5  CB        -8.2330    9.2480   32.4430 C.3     3  THR3        0.1770
      6  OG1       -8.2670    8.3500   31.3260 O.3     3  THR3       -0.2211
      7  CG2       -7.0910   10.2250   32.2360 C.3     3  THR3        0.0375
      8  N         -5.9630   13.0290   36.5340 N.3     5  PHE5       -0.1241
      9  CA        -5.0500   14.1310   36.2960 C.3     5  PHE5        0.1605
     10  C         -4.6830   14.7810   37.6440 C.2     5  PHE5        0.2264
     11  O         -4.8520   15.9850   37.8550 O.2     5  PHE5       -0.2867
     12  CB        -5.6760   15.1450   35.3500 C.3     5  PHE5        0.0534
     13  CG        -6.0210   14.5980   34.0030 C.ar    5  PHE5       -0.0203
     14  CD1       -5.1310   14.6800   32.9460 C.ar    5  PHE5       -0.0042
     15  CD2       -7.2500   13.9990   33.7950 C.ar    5  PHE5       -0.0042
     16  CE1       -5.4600   14.1640   31.7040 C.ar    5  PHE5       -0.0003
     17  CE2       -7.5840   13.4720   32.5570 C.ar    5  PHE5       -0.0003
     18  CZ        -6.6910   13.5690   31.5090 C.ar    5  PHE5       -0.0000
     19  N          2.6480    3.1560   31.4720 N.3    19  PHE19      -0.1241
     20  CA         1.8640    2.7520   30.3220 C.3    19  PHE19       0.1605
     21  C          2.1500    1.2900   30.0270 C.2    19  PHE19       0.2264
     22  O          3.1830    0.7930   30.3740 O.2    19  PHE19      -0.2867
     23  CB         2.2570    3.5810   29.1290 C.3    19  PHE19       0.0534
     24  CG         1.9020    5.0370   29.2570 C.ar   19  PHE19      -0.0203
     25  CD1        0.6720    5.5050   28.8410 C.ar   19  PHE19      -0.0042
     26  CD2        2.8070    5.9420   29.7900 C.ar   19  PHE19      -0.0042
     27  CE1        0.3320    6.8550   28.9360 C.ar   19  PHE19      -0.0003
     28  CE2        2.4870    7.2850   29.8620 C.ar   19  PHE19      -0.0003
     29  CZ         1.2410    7.7330   29.4580 C.ar   19  PHE19      -0.0000
     30  N          0.4670   16.9960   26.3820 N.3    34  ARG34      -0.1231
     31  CA        -0.8830   16.8770   25.7960 C.3    34  ARG34       0.1694
     32  C         -1.9120   16.2110   26.7290 C.2    34  ARG34       0.2592
     33  O         -3.1320   16.3270   26.5140 O.2    34  ARG34      -0.2718
     34  CB        -0.8710   16.1220   24.4770 C.3    34  ARG34       0.0321
     35  CG        -0.2000   16.8610   23.3730 C.3    34  ARG34       0.0489
     36  CD        -0.1430   16.0610   22.0910 C.3    34  ARG34       0.2205
     37  NE         0.3200   16.8150   20.9460 N.pl3  34  ARG34      -0.0865
     38  CZ        -0.4390   17.5440   20.1380 C.cat  34  ARG34       0.5346
     39  NH1       -1.7560   17.6410   20.3490 N.pl3  34  ARG34       0.1354
     40  NH2        0.1000   18.1470   19.1100 N.pl3  34  ARG34       0.1354
     41  N         -1.4150   15.5810   27.7710 N.am   35  TYR35      -0.1976
     42  CA        -2.2550   14.8240   28.7090 C.3    35  TYR35       0.1639
     43  C         -2.4620   15.6370   29.9640 C.2    35  TYR35       0.2290
     44  O         -2.1510   15.2120   31.0730 O.2    35  TYR35      -0.2864
     45  CB        -1.5940   13.4790   29.0110 C.3    35  TYR35       0.0560
     46  CG        -1.2930   12.5810   27.8450 C.ar   35  TYR35      -0.0198
     47  CD1       -2.0290   11.4600   27.5980 C.ar   35  TYR35      -0.0009
     48  CD2       -0.1780   12.7780   27.0610 C.ar   35  TYR35      -0.0009
     49  CE1       -1.7050   10.5640   26.5720 C.ar   35  TYR35       0.0417
     50  CE2        0.1470   11.8970   26.0480 C.ar   35  TYR35       0.0417
     51  CZ        -0.6000   10.8000   25.8160 C.ar   35  TYR35       0.1957
     52  OH        -0.2850    9.9320   24.7980 O.3    35  TYR35      -0.2866
     53  N         -1.6010   14.4180   33.9740 N.3    44  LEU44      -0.1245
     54  CA        -1.8770   12.9830   33.9920 C.3    44  LEU44       0.1561
     55  C         -1.1440   12.3430   35.1510 C.2    44  LEU44       0.2260
     56  O          0.0410   12.6130   35.3890 O.2    44  LEU44      -0.2867
     57  CB        -1.4040   12.2930   32.7010 C.3    44  LEU44       0.0270
     58  CG        -1.8890   10.8630   32.4740 C.3    44  LEU44       0.0019
     59  CD1       -3.3810   10.8530   32.2250 C.3    44  LEU44       0.0001
     60  CD2       -1.1560   10.2560   31.2960 C.3    44  LEU44       0.0001
     61  N         -1.8070    2.5320   32.3940 N.3    53  TYR53      -0.1227
     62  CA        -2.6860    2.8980   31.2690 C.3    53  TYR53       0.1736
     63  C         -2.4000    1.9590   30.0900 C.2    53  TYR53       0.2596
     64  O         -1.3050    1.9780   29.5410 O.2    53  TYR53      -0.2718
     65  CB        -2.4650    4.3420   30.8380 C.3    53  TYR53       0.0548
     66  CG        -3.0100    5.3490   31.7900 C.ar   53  TYR53      -0.0200
     67  CD1       -4.3580    5.6150   31.8690 C.ar   53  TYR53      -0.0009
     68  CD2       -2.1650    6.0690   32.5980 C.ar   53  TYR53      -0.0009
     69  CE1       -4.8570    6.5570   32.7770 C.ar   53  TYR53       0.0417
     70  CE2       -2.6550    7.0120   33.5050 C.ar   53  TYR53       0.0417
     71  CZ        -3.9860    7.2590   33.5670 C.ar   53  TYR53       0.1957
     72  OH        -4.4510    8.2080   34.4310 O.3    53  TYR53      -0.2866
     73  N         -3.3960    1.1650   29.7070 N.am   54  SER54      -0.1938
     74  CA        -3.3020    0.2700   28.5440 C.3    54  SER54       0.2055
     75  C         -3.5760    1.0630   27.2850 C.2    54  SER54       0.2642
     76  O         -4.6590    1.6220   27.1210 O.2    54  SER54      -0.2714
     77  CB        -4.3190   -0.8630   28.6630 C.3    54  SER54       0.2130
     78  OG        -4.0390   -1.7050   29.7550 O.3    54  SER54      -0.2179
     79  N         -2.5850    1.1810   26.4040 N.am   55  ILE55      -0.1977
     80  CA        -2.6890    2.0650   25.2420 C.3    55  ILE55       0.1596
     81  C         -2.1220    1.3770   24.0050 C.2    55  ILE55       0.2287
     82  O         -1.5050    0.3210   24.1190 O.2    55  ILE55      -0.2864
     83  CB        -1.9430    3.3920   25.4940 C.3    55  ILE55       0.0276
     84  CG1       -0.4910    3.1690   25.9560 C.3    55  ILE55       0.0022
     85  CG2       -2.5680    4.1530   26.6560 C.3    55  ILE55       0.0022
     86  CD1        0.3690    2.6370   25.0130 C.3    55  ILE55       0.0001
     87  N         -0.7580    3.7320   21.5790 N.3    57  LEU57      -0.1245
     88  CA         0.2500    4.7100   21.2270 C.3    57  LEU57       0.1561
     89  C          0.3880    5.6990   22.3650 C.2    57  LEU57       0.2260
     90  O         -0.5800    5.9070   23.1270 O.2    57  LEU57      -0.2867
     91  CB        -0.0760    5.4540   19.9110 C.3    57  LEU57       0.0270
     92  CG        -1.1770    6.5060   19.9560 C.3    57  LEU57       0.0019
     93  CD1       -0.7020    7.8640   20.3890 C.3    57  LEU57       0.0001
     94  CD2       -1.8350    6.6100   18.5660 C.3    57  LEU57       0.0001
     95  N          1.9600    9.7480   22.7570 N.3    59  GLU59      -0.1245
     96  CA         2.4570   10.9210   22.0540 C.3    59  GLU59       0.1567
     97  C          3.1150   11.8150   23.0610 C.2    59  GLU59       0.2260
     98  O          2.4430   12.5450   23.7880 O.2    59  GLU59      -0.2867
     99  CB         1.3400   11.6630   21.2940 C.3    59  GLU59       0.0388
    100  CG         1.8420   12.8230   20.4420 C.3    59  GLU59       0.1160
    101  CD         0.7610   13.4860   19.6440 C.2    59  GLU59       0.3649
    102  OE1       -0.4290   13.4240   20.0480 O.co2  59  GLU59      -0.2457
    103  OE2        1.0830   14.0820   18.5890 O.co2  59  GLU59      -0.2457
@<TRIPOS>BOND
     1    94    92    1
     2   103   101   ar
     3    40    38    1
     4   101   102   ar
     5   101   100    1
     6    91    92    1
     7    91    88    1
     8    92    93    1
     9    38    39    1
    10    38    37    2
    11   100    99    1
    12    37    36    1
    13    88    87    1
    14    88    89    1
    15    99    96    1
    16    96    95    1
    17    96    97    1
    18    36    35    1
    19    89    90    2
    20    97    98    2
    21    35    34    1
    22    81    82    2
    23    81    80    1
    24    34    31    1
    25    52    51    1
    26    86    84    1
    27    80    83    1
    28    80    79    1
    29    83    84    1
    30    83    85    1
    31    31    30    1
    32    31    32    1
    33    51    50   ar
    34    51    49   ar
    35    50    48   ar
    36    79    75   am
    37    33    32    2
    38    49    47   ar
    39    32    41   am
    40    48    46   ar
    41    76    75    2
    42    75    74    1
    43    47    46   ar
    44    41    42    1
    45    46    45    1
    46    74    77    1
    47    74    73    1
    48    77    78    1
    49    42    45    1
    50    42    43    1
    51    25    27   ar
    52    25    24   ar
    53    27    29   ar
    54    23    24    1
    55    23    20    1
    56    24    26   ar
    57    29    28   ar
    58    64    63    2
    59    73    63   am
    60    26    28   ar
    61    43    44    2
    62    21    20    1
    63    21    22    2
    64    63    62    1
    65    20    19    1
    66    65    62    1
    67    65    66    1
    68    62    61    1
    69    60    58    1
    70     6     5    1
    71    18    16   ar
    72    18    17   ar
    73    16    14   ar
    74    66    67   ar
    75    66    68   ar
    76    67    69   ar
    77    59    58    1
    78     7     5    1
    79     5     2    1
    80    58    57    1
    81    17    15   ar
    82    68    70   ar
    83    57    54    1
    84    69    71   ar
    85    14    13   ar
    86    70    71   ar
    87    71    72    1
    88     2     1    1
    89     2     3    1
    90    15    13   ar
    91    53    54    1
    92    54    55    1
    93    13    12    1
    94     3     4    2
    95    55    56    2
    96    12     9    1
    97     9     8    1
    98     9    10    1
    99    10    11    2
