@<TRIPOS>MOLECULE
tmp/5edgC00.pdb
 157 151 0 0 0
SMALL
GASTEIGER

@<TRIPOS>ATOM
      1  N         34.0020   27.3940    5.9340 N.3    66  TYR66      -0.1227
      2  CA        34.0280   28.2870    7.0960 C.3    66  TYR66       0.1736
      3  C         35.4170   28.8830    7.3450 C.2    66  TYR66       0.2595
      4  O         35.5660   30.0850    7.4340 O.2    66  TYR66      -0.2718
      5  CB        33.4860   27.5750    8.3520 C.3    66  TYR66       0.0548
      6  CG        33.5310   28.4590    9.5890 C.ar   66  TYR66      -0.0200
      7  CD1       32.7590   29.6250    9.6680 C.ar   66  TYR66      -0.0009
      8  CD2       34.3680   28.1580   10.6600 C.ar   66  TYR66      -0.0009
      9  CE1       32.8060   30.4510   10.7830 C.ar   66  TYR66       0.0417
     10  CE2       34.4180   28.9860   11.7900 C.ar   66  TYR66       0.0417
     11  CZ        33.6360   30.1220   11.8330 C.ar   66  TYR66       0.1957
     12  OH        33.6730   30.9210   12.9220 O.3    66  TYR66      -0.2866
     13  N         36.4260   28.0320    7.4590 N.am   67  HIS67      -0.1975
     14  CA        37.7700   28.4500    7.8350 C.3    67  HIS67       0.1656
     15  C         38.5630   29.0180    6.6560 C.2    67  HIS67       0.2291
     16  O         39.6310   28.5370    6.2930 O.2    67  HIS67      -0.2864
     17  CB        38.4900   27.2820    8.4760 C.3    67  HIS67       0.0771
     18  CG        37.9420   26.9270    9.8160 C.ar   67  HIS67       0.0820
     19  ND1       37.2430   25.7670   10.0520 N.ar   67  HIS67      -0.2267
     20  CD2       37.9600   27.6030   10.9900 C.ar   67  HIS67       0.1154
     21  CE1       36.8830   25.7280   11.3240 C.ar   67  HIS67       0.1986
     22  NE2       37.3020   26.8300   11.9110 N.ar   67  HIS67      -0.2212
     23  N         43.8310   30.1850   20.1410 N.3   175  THR175     -0.1218
     24  CA        42.6260   29.8450   19.3980 C.3   175  THR175      0.1862
     25  C         42.3480   28.3510   19.3420 C.2   175  THR175      0.2287
     26  O         41.3120   27.9620   18.8080 O.2   175  THR175     -0.2866
     27  CB        42.6070   30.4160   17.9610 C.3   175  THR175      0.1770
     28  OG1       43.6640   29.8370   17.1860 O.3   175  THR175     -0.2211
     29  CG2       42.7370   31.9160   17.9920 C.3   175  THR175      0.0375
     30  N         40.7110   25.6480   20.8620 N.3   177  LEU177     -0.1231
     31  CA        39.6210   25.6140   21.8050 C.3   177  LEU177      0.1693
     32  C         39.8280   24.6210   22.9810 C.2   177  LEU177      0.2591
     33  O         39.2450   24.7880   24.0390 O.2   177  LEU177     -0.2718
     34  CB        38.3340   25.3030   21.0560 C.3   177  LEU177      0.0284
     35  CG        37.0740   25.6820   21.7940 C.3   177  LEU177      0.0019
     36  CD1       37.0290   27.2100   22.0410 C.3   177  LEU177      0.0001
     37  CD2       35.8650   25.2090   20.9820 C.3   177  LEU177      0.0001
     38  N         40.6540   23.6010   22.7990 N.am  178  ALA178     -0.1980
     39  CA        40.9950   22.6810   23.8850 C.3   178  ALA178      0.1597
     40  C         41.6850   23.4340   25.0300 C.2   178  ALA178      0.2287
     41  O         41.6220   23.0090   26.1810 O.2   178  ALA178     -0.2864
     42  CB        41.9030   21.5470   23.3590 C.3   178  ALA178      0.0319
     43  N         39.2470   26.2140   27.7880 N.3   181  PHE181     -0.1241
     44  CA        38.5910   25.8440   29.0490 C.3   181  PHE181      0.1605
     45  C         39.4520   26.1430   30.2660 C.2   181  PHE181      0.2264
     46  O         39.0270   26.8970   31.1470 O.2   181  PHE181     -0.2867
     47  CB        38.1730   24.3840   29.0170 C.3   181  PHE181      0.0534
     48  CG        37.2080   24.0860   27.9150 C.ar  181  PHE181     -0.0203
     49  CD1       35.8710   24.4500   28.0300 C.ar  181  PHE181     -0.0042
     50  CD2       37.6390   23.4930   26.7360 C.ar  181  PHE181     -0.0042
     51  CE1       34.9880   24.2030   27.0060 C.ar  181  PHE181     -0.0003
     52  CE2       36.7510   23.2430   25.7070 C.ar  181  PHE181     -0.0003
     53  CZ        35.4340   23.5950   25.8390 C.ar  181  PHE181     -0.0000
     54  N         37.3910   34.6550   17.6680 N.3   216  ASP216     -0.1225
     55  CA        37.2110   33.4780   16.8630 C.3   216  ASP216      0.1805
     56  C         35.7450   33.0030   16.7870 C.2   216  ASP216      0.2597
     57  O         35.2690   32.5980   15.7090 O.2   216  ASP216     -0.2718
     58  CB        38.0900   32.3450   17.3870 C.3   216  ASP216      0.1424
     59  CG        38.4840   31.3760   16.3030 C.2   216  ASP216      0.3668
     60  OD1       38.2150   31.6540   15.1320 O.co2 216  ASP216     -0.2456
     61  OD2       39.0930   30.3550   16.5950 O.co2 216  ASP216     -0.2456
     62  N         35.0490   33.0420   17.9220 N.am  217  LEU217     -0.1979
     63  CA        33.6660   32.5900   17.9820 C.3   217  LEU217      0.1596
     64  C         32.6560   33.6510   17.6120 C.2   217  LEU217      0.2287
     65  O         31.4590   33.3780   17.6860 O.2   217  LEU217     -0.2864
     66  CB        33.3230   32.0520   19.3790 C.3   217  LEU217      0.0297
     67  CG        34.2590   30.9520   19.9150 C.3   217  LEU217      0.0022
     68  CD1       33.7010   30.3880   21.2220 C.3   217  LEU217      0.0001
     69  CD2       34.5190   29.8360   18.8640 C.3   217  LEU217      0.0001
     70  N         31.0220   34.6750   15.3220 N.3   219  SER219     -0.1202
     71  CA        29.8600   34.4070   14.4680 C.3   219  SER219      0.2020
     72  C         28.5840   34.2080   15.2760 C.2   219  SER219      0.2618
     73  O         27.4790   34.4580   14.7800 O.2   219  SER219     -0.2717
     74  CB        30.1070   33.2170   13.5610 C.3   219  SER219      0.2103
     75  OG        30.7210   33.7190   12.3660 O.3   219  SER219     -0.2182
     76  N         28.7440   33.7680   16.5210 N.am  220  VAL220     -0.1979
     77  CA        27.6010   33.6150   17.4290 C.3   220  VAL220      0.1595
     78  C         27.1090   34.9380   18.0220 C.2   220  VAL220      0.2287
     79  O         26.0770   34.9480   18.6720 O.2   220  VAL220     -0.2864
     80  CB        27.8970   32.6100   18.5830 C.3   220  VAL220      0.0276
     81  CG1       28.4000   31.2670   18.0060 C.3   220  VAL220      0.0022
     82  CG2       28.8960   33.2020   19.6010 C.3   220  VAL220      0.0022
     83  N         29.6690   26.3790    8.8450 N.3   234  ILE234     -0.1231
     84  CA        30.3010   25.6300    9.9270 C.3   234  ILE234      0.1692
     85  C         29.9550   24.1380    9.8720 C.2   234  ILE234      0.2592
     86  O         30.8220   23.2630    9.9880 O.2   234  ILE234     -0.2718
     87  CB        29.8920   26.2270   11.3320 C.3   234  ILE234      0.0266
     88  CG1       30.5880   27.5820   11.5670 C.3   234  ILE234      0.0019
     89  CG2       30.2190   25.2680   12.4330 C.3   234  ILE234      0.0020
     90  CD1       29.8620   28.5440   12.6100 C.3   234  ILE234      0.0001
     91  N         28.6790   23.8500    9.6830 N.am  235  TYR235     -0.1976
     92  CA        28.2350   22.4630    9.6730 C.3   235  TYR235      0.1639
     93  C         28.6330   21.7900    8.3750 C.2   235  TYR235      0.2290
     94  O         29.0010   20.6180    8.3740 O.2   235  TYR235     -0.2864
     95  CB        26.7340   22.3540    9.9660 C.3   235  TYR235      0.0560
     96  CG        26.4520   22.3720   11.4450 C.ar  235  TYR235     -0.0198
     97  CD1       26.6720   21.2380   12.2230 C.ar  235  TYR235     -0.0009
     98  CD2       26.0160   23.5260   12.0850 C.ar  235  TYR235     -0.0009
     99  CE1       26.4440   21.2490   13.6090 C.ar  235  TYR235      0.0417
    100  CE2       25.7790   23.5430   13.4710 C.ar  235  TYR235      0.0417
    101  CZ        25.9940   22.3950   14.2190 C.ar  235  TYR235      0.1957
    102  OH        25.7720   22.3940   15.5900 O.3   235  TYR235     -0.2866
    103  N         31.8110   20.5230    9.4310 N.3   238  PHE238     -0.1241
    104  CA        31.6800   19.4180   10.3870 C.3   238  PHE238      0.1605
    105  C         31.2370   18.1270    9.6920 C.2   238  PHE238      0.2264
    106  O         31.7500   17.0410   10.0030 O.2   238  PHE238     -0.2867
    107  CB        30.6880   19.7430   11.5170 C.3   238  PHE238      0.0534
    108  CG        31.1800   20.7640   12.5070 C.ar  238  PHE238     -0.0203
    109  CD1       32.5330   20.9610   12.7370 C.ar  238  PHE238     -0.0042
    110  CD2       30.2670   21.5180   13.2390 C.ar  238  PHE238     -0.0042
    111  CE1       32.9670   21.9060   13.6390 C.ar  238  PHE238     -0.0003
    112  CE2       30.6960   22.4720   14.1400 C.ar  238  PHE238     -0.0003
    113  CZ        32.0510   22.6630   14.3450 C.ar  238  PHE238     -0.0000
    114  N         27.6220   15.8290   16.4350 N.3   255  MET255     -0.1245
    115  CA        27.8530   17.1660   15.8850 C.3   255  MET255      0.1570
    116  C         28.2610   17.0700   14.4080 C.2   255  MET255      0.2261
    117  O         27.7680   17.8300   13.5860 O.2   255  MET255     -0.2867
    118  CB        28.9360   17.8810   16.7170 C.3   255  MET255      0.0387
    119  CG        29.5180   19.1670   16.1220 C.3   255  MET255      0.0595
    120  SD        30.2350   20.3070   17.3600 S.3   255  MET255     -0.1393
    121  CE        31.9350   19.7120   17.5020 C.3   255  MET255      0.0692
    122  N         22.3210   20.9900   19.6990 N.3   267  GLY267     -0.1210
    123  CA        23.7830   21.0430   19.7110 C.3   267  GLY267      0.1956
    124  C         24.3350   22.4530   19.7870 C.2   267  GLY267      0.2611
    125  O         25.4060   22.6750   20.3500 O.2   267  GLY267     -0.2717
    126  N         23.6100   23.4070   19.2180 N.am  268  GLN268     -0.1979
    127  CA        23.9670   24.8130   19.3430 C.3   268  GLN268      0.1601
    128  C         23.6890   25.3170   20.7630 C.2   268  GLN268      0.2287
    129  O         24.5380   25.9800   21.3570 O.2   268  GLN268     -0.2864
    130  CB        23.2270   25.6460   18.3010 C.3   268  GLN268      0.0394
    131  CG        23.6830   25.3630   16.8820 C.3   268  GLN268      0.0908
    132  CD        25.0670   25.9260   16.6090 C.2   268  GLN268      0.2608
    133  OE1       25.2340   27.1390   16.4910 O.2   268  GLN268     -0.2717
    134  NE2       26.0700   25.0480   16.5200 N.am  268  GLN268     -0.0878
    135  N         26.4240   24.2430   22.7830 N.3   271  PHE271     -0.1241
    136  CA        27.6430   25.0160   22.5470 C.3   271  PHE271      0.1605
    137  C         27.5800   26.3880   23.2250 C.2   271  PHE271      0.2264
    138  O         28.5440   26.8120   23.8570 O.2   271  PHE271     -0.2867
    139  CB        27.9100   25.1820   21.0550 C.3   271  PHE271      0.0534
    140  CG        29.2040   25.8930   20.7490 C.ar  271  PHE271     -0.0203
    141  CD1       30.4130   25.2470   20.9000 C.ar  271  PHE271     -0.0042
    142  CD2       29.2030   27.2070   20.2990 C.ar  271  PHE271     -0.0042
    143  CE1       31.5970   25.8980   20.6150 C.ar  271  PHE271     -0.0003
    144  CE2       30.3980   27.8650   20.0230 C.ar  271  PHE271     -0.0003
    145  CZ        31.5870   27.2050   20.1750 C.ar  271  PHE271     -0.0000
    146  N         27.8350   25.7620   27.1070 N.3   274  ALA274     -0.1231
    147  CA        29.0890   25.1780   27.6150 C.3   274  ALA274      0.1694
    148  C         30.3320   25.9780   27.2480 C.2   274  ALA274      0.2591
    149  O         31.3480   25.8470   27.9260 O.2   274  ALA274     -0.2718
    150  CB        29.2410   23.7350   27.1370 C.3   274  ALA274      0.0304
    151  N         30.2400   26.8040   26.1970 N.am  275  VAL275     -0.1980
    152  CA        31.3930   27.4890   25.6130 C.3   275  VAL275      0.1595
    153  C         31.1870   28.9930   25.4380 C.2   275  VAL275      0.2287
    154  O         31.8600   29.7900   26.0690 O.2   275  VAL275     -0.2864
    155  CB        31.7650   26.9020   24.2090 C.3   275  VAL275      0.0276
    156  CG1       32.9790   27.6470   23.6190 C.3   275  VAL275      0.0022
    157  CG2       32.0440   25.4170   24.2840 C.3   275  VAL275      0.0022
@<TRIPOS>BOND
     1     1     2    1
     2    16    15    2
     3    15    14    1
     4     2     3    1
     5     2     5    1
     6     3     4    2
     7     3    13   am
     8    13    14    1
     9    14    17    1
    10     5     6    1
    11    94    93    2
    12    93    92    1
    13    17    18    1
    14    83    84    1
    15   103   104    1
    16     6     7   ar
    17     6     8   ar
    18     7     9   ar
    19    92    91    1
    20    92    95    1
    21    91    85   am
    22   105   106    2
    23   105   104    1
    24    18    19   ar
    25    18    20   ar
    26    85    84    1
    27    85    86    2
    28    84    87    1
    29    95    96    1
    30    19    21   ar
    31   104   107    1
    32     8    10   ar
    33     9    11   ar
    34    20    22   ar
    35    21    22   ar
    36    87    88    1
    37    87    89    1
    38    96    98   ar
    39    96    97   ar
    40   107   108    1
    41    88    90    1
    42    10    11   ar
    43    11    12    1
    44    98   100   ar
    45    97    99   ar
    46    75    74    1
    47   108   109   ar
    48   108   110   ar
    49   109   111   ar
    50   110   112   ar
    51   100   101   ar
    52    74    71    1
    53   117   116    2
    54    99   101   ar
    55   111   113   ar
    56   112   113   ar
    57   101   102    1
    58   116   115    1
    59    71    72    1
    60    71    70    1
    61    73    72    2
    62    60    59   ar
    63    72    76   am
    64    57    56    2
    65   115   114    1
    66   115   118    1
    67   119   118    1
    68   119   120    1
    69    59    61   ar
    70    59    58    1
    71   133   132    2
    72   134   132   am
    73    76    77    1
    74   132   131    1
    75    56    55    1
    76    56    62   am
    77    55    58    1
    78    55    54    1
    79   131   130    1
    80    28    27    1
    81   120   121    1
    82    77    78    1
    83    77    80    1
    84    64    65    2
    85    64    63    1
    86    62    63    1
    87    27    29    1
    88    27    24    1
    89    63    66    1
    90    81    80    1
    91    78    79    2
    92   130   127    1
    93    80    82    1
    94    26    25    2
    95    69    67    1
    96   126   127    1
    97   126   124   am
    98    25    24    1
    99   127   128    1
   100    66    67    1
   101    24    23    1
   102   122   123    1
   103   123   124    1
   104   124   125    2
   105    67    68    1
   106   144   145   ar
   107   144   142   ar
   108   145   143   ar
   109   142   140   ar
   110   143   141   ar
   111   140   141   ar
   112   140   139    1
   113   128   129    2
   114    30    31    1
   115    37    35    1
   116   139   136    1
   117    34    35    1
   118    34    31    1
   119    35    36    1
   120    31    32    1
   121   136   135    1
   122   136   137    1
   123    38    32   am
   124    38    39    1
   125    32    33    2
   126   137   138    2
   127    42    39    1
   128   156   155    1
   129    39    40    1
   130   155   157    1
   131   155   152    1
   132    40    41    2
   133   153   152    1
   134   153   154    2
   135   152   151    1
   136    52    53   ar
   137    52    50   ar
   138    53    51   ar
   139   151   148   am
   140    50    48   ar
   141    51    49   ar
   142   146   147    1
   143   150   147    1
   144   148   147    1
   145   148   149    2
   146    43    44    1
   147    48    49   ar
   148    48    47    1
   149    47    44    1
   150    44    45    1
   151    45    46    2
