@<TRIPOS>MOLECULE
tmp/5edhD00.pdb
 182 175 0 0 0
SMALL
GASTEIGER

@<TRIPOS>ATOM
      1  N         11.8330   -3.3650  -16.9650 N.3    68  TYR68      -0.1241
      2  CA        13.2680   -3.0750  -16.8790 C.3    68  TYR68       0.1605
      3  C         14.0370   -3.3240  -18.1910 C.2    68  TYR68       0.2264
      4  O         14.7430   -2.4360  -18.6410 O.2    68  TYR68      -0.2867
      5  CB        13.9100   -3.8060  -15.6810 C.3    68  TYR68       0.0534
      6  CG        15.3930   -3.5550  -15.5540 C.ar   68  TYR68      -0.0201
      7  CD1       15.8940   -2.2590  -15.3230 C.ar   68  TYR68      -0.0009
      8  CD2       16.3020   -4.5970  -15.7070 C.ar   68  TYR68      -0.0009
      9  CE1       17.2620   -2.0290  -15.2270 C.ar   68  TYR68       0.0417
     10  CE2       17.6690   -4.3800  -15.6170 C.ar   68  TYR68       0.0417
     11  CZ        18.1430   -3.1020  -15.3700 C.ar   68  TYR68       0.1957
     12  OH        19.5030   -2.9130  -15.2770 O.3    68  TYR68      -0.2866
     13  N         25.0380  -12.7490  -16.7880 N.3   179  LEU179     -0.1245
     14  CA        25.6900  -12.5690  -15.4860 C.3   179  LEU179      0.1561
     15  C         26.2930  -13.8660  -14.9450 C.2   179  LEU179      0.2260
     16  O         27.2960  -13.8470  -14.2550 O.2   179  LEU179     -0.2867
     17  CB        24.7380  -11.9300  -14.4710 C.3   179  LEU179      0.0270
     18  CG        25.3750  -11.1790  -13.2900 C.3   179  LEU179      0.0019
     19  CD1       25.9300   -9.8080  -13.6890 C.3   179  LEU179      0.0001
     20  CD2       24.3940  -11.0390  -12.1290 C.3   179  LEU179      0.0001
     21  N         26.1010   -2.9570  -18.2670 N.3   218  ASP218     -0.1225
     22  CA        24.8470   -3.6170  -18.0390 C.3   218  ASP218      0.1805
     23  C         24.2970   -3.3390  -16.6480 C.2   218  ASP218      0.2597
     24  O         23.0950   -3.1660  -16.4940 O.2   218  ASP218     -0.2718
     25  CB        24.9640   -5.1230  -18.2910 C.3   218  ASP218      0.1424
     26  CG        23.6150   -5.7570  -18.5540 C.2   218  ASP218      0.3668
     27  OD1       22.6410   -5.0110  -18.7320 O.co2 218  ASP218     -0.2456
     28  OD2       23.5070   -6.9820  -18.5730 O.co2 218  ASP218     -0.2456
     29  N         25.1850   -3.2450  -15.6540 N.am  219  LEU219     -0.1979
     30  CA        24.7860   -3.0360  -14.2530 C.3   219  LEU219      0.1596
     31  C         24.7310   -1.5610  -13.8610 C.2   219  LEU219      0.2287
     32  O         24.6060   -1.2500  -12.6840 O.2   219  LEU219     -0.2864
     33  CB        25.7810   -3.7430  -13.3110 C.3   219  LEU219      0.0297
     34  CG        25.8090   -5.2650  -13.3250 C.3   219  LEU219      0.0022
     35  CD1       26.6160   -5.7880  -12.1620 C.3   219  LEU219      0.0001
     36  CD2       24.4060   -5.8300  -13.2650 C.3   219  LEU219      0.0001
     37  N         22.9340    1.0500  -13.5890 N.3   221  SER221     -0.1202
     38  CA        21.9770    1.7660  -12.7130 C.3   221  SER221      0.2020
     39  C         22.5240    1.9550  -11.2640 C.2   221  SER221      0.2618
     40  O         22.1520    2.9250  -10.5780 O.2   221  SER221     -0.2717
     41  CB        20.6300    1.0550  -12.6450 C.3   221  SER221      0.2103
     42  OG        20.6870    0.0160  -11.6650 O.3   221  SER221     -0.2182
     43  N         23.3820    1.0320  -10.8080 N.am  222  VAL222     -0.1979
     44  CA        24.0450    1.1670   -9.4970 C.3   222  VAL222      0.1595
     45  C         25.1300    2.2500   -9.4660 C.2   222  VAL222      0.2287
     46  O         25.7170    2.5140   -8.4160 O.2   222  VAL222     -0.2864
     47  CB        24.6370   -0.1630   -8.9760 C.3   222  VAL222      0.0276
     48  CG1       23.5570   -1.2290   -8.8540 C.3   222  VAL222      0.0022
     49  CG2       25.7930   -0.6490   -9.8410 C.3   222  VAL222      0.0022
     50  N         19.1520    5.5670   -9.1380 N.3   229  THR229     -0.1218
     51  CA        19.4770    4.2140   -8.6700 C.3   229  THR229      0.1862
     52  C         18.3050    3.5730   -7.9140 C.2   229  THR229      0.2287
     53  O         17.9840    2.4040   -8.1200 O.2   229  THR229     -0.2866
     54  CB        20.7200    4.2320   -7.7580 C.3   229  THR229      0.1770
     55  OG1       21.8440    4.6860   -8.5100 O.3   229  THR229     -0.2211
     56  CG2       21.0240    2.8410   -7.1690 C.3   229  THR229      0.0375
     57  N         15.7850    0.3720   -9.3910 N.3   233  ALA233     -0.1245
     58  CA        15.5950   -0.8150   -8.5430 C.3   233  ALA233      0.1562
     59  C         14.1280   -1.2830   -8.5390 C.2   233  ALA233      0.2260
     60  O         13.8550   -2.4840   -8.6280 O.2   233  ALA233     -0.2867
     61  CB        16.0830   -0.5500   -7.1180 C.3   233  ALA233      0.0290
     62  N         13.4520   -3.0470  -11.7810 N.3   236  ILE236     -0.1231
     63  CA        14.1090   -4.3500  -11.7280 C.3   236  ILE236      0.1692
     64  C         13.2350   -5.3710  -10.9910 C.2   236  ILE236      0.2592
     65  O         13.0080   -6.4710  -11.4850 O.2   236  ILE236     -0.2718
     66  CB        15.5270   -4.2270  -11.0900 C.3   236  ILE236      0.0266
     67  CG1       16.4680   -3.5220  -12.0770 C.3   236  ILE236      0.0019
     68  CG2       16.0890   -5.5860  -10.7020 C.3   236  ILE236      0.0020
     69  CD1       17.6440   -2.7970  -11.4510 C.3   236  ILE236      0.0001
     70  N         12.7110   -4.9750   -9.8350 N.am  237  TYR237     -0.1976
     71  CA        11.9180   -5.8780   -9.0080 C.3   237  TYR237      0.1639
     72  C         10.5380   -6.1100   -9.5840 C.2   237  TYR237      0.2290
     73  O          9.9470   -7.1690   -9.3600 O.2   237  TYR237     -0.2864
     74  CB        11.8190   -5.3900   -7.5460 C.3   237  TYR237      0.0560
     75  CG        13.0930   -5.6240   -6.7630 C.ar  237  TYR237     -0.0198
     76  CD1       13.4570   -6.9010   -6.3440 C.ar  237  TYR237     -0.0009
     77  CD2       13.9370   -4.5650   -6.4460 C.ar  237  TYR237     -0.0009
     78  CE1       14.6350   -7.1250   -5.6340 C.ar  237  TYR237      0.0417
     79  CE2       15.1200   -4.7690   -5.7420 C.ar  237  TYR237      0.0417
     80  CZ        15.4690   -6.0440   -5.3340 C.ar  237  TYR237      0.1957
     81  OH        16.6510   -6.2260   -4.6330 O.3   237  TYR237     -0.2866
     82  N         11.3610   -8.9960  -11.6830 N.3   240  PHE240     -0.1227
     83  CA        11.7310  -10.1740  -10.8980 C.3   240  PHE240      0.1736
     84  C         10.5210  -10.7850  -10.2020 C.2   240  PHE240      0.2595
     85  O         10.3930  -12.0160  -10.1310 O.2   240  PHE240     -0.2718
     86  CB        12.8290   -9.8470   -9.8760 C.3   240  PHE240      0.0547
     87  CG        14.2130   -9.7030  -10.4780 C.ar  240  PHE240     -0.0202
     88  CD1       14.4610  -10.0430  -11.8050 C.ar  240  PHE240     -0.0042
     89  CD2       15.2830   -9.2650   -9.6920 C.ar  240  PHE240     -0.0042
     90  CE1       15.7410   -9.9270  -12.3440 C.ar  240  PHE240     -0.0003
     91  CE2       16.5630   -9.1490  -10.2270 C.ar  240  PHE240     -0.0003
     92  CZ        16.7940   -9.4780  -11.5580 C.ar  240  PHE240     -0.0000
     93  N          9.6260   -9.9350   -9.7020 N.am  241  TRP241     -0.1976
     94  CA         8.5000  -10.4250   -8.9120 C.3   241  TRP241      0.1640
     95  C          7.4270  -11.0390   -9.7990 C.2   241  TRP241      0.2290
     96  O          6.7780  -12.0220   -9.4070 O.2   241  TRP241     -0.2864
     97  CB         7.9190   -9.3230   -8.0310 C.3   241  TRP241      0.0576
     98  CG         8.8510   -8.8710   -6.9060 C.ar  241  TRP241      0.0006
     99  CD1        9.8260   -9.6080   -6.3010 C.ar  241  TRP241      0.0946
    100  CD2        8.8540   -7.5950   -6.2590 C.ar  241  TRP241      0.0152
    101  NE1       10.4470   -8.8680   -5.3280 N.ar  241  TRP241     -0.2442
    102  CE2        9.8570   -7.6330   -5.2680 C.ar  241  TRP241      0.0810
    103  CE3        8.1020   -6.4170   -6.4210 C.ar  241  TRP241      0.0012
    104  CZ2       10.1380   -6.5360   -4.4410 C.ar  241  TRP241      0.0191
    105  CZ3        8.3830   -5.3270   -5.6010 C.ar  241  TRP241      0.0001
    106  CH2        9.3950   -5.3960   -4.6240 C.ar  241  TRP241      0.0015
    107  N         14.6450  -15.9430   -3.2770 N.3   256  PRO256     -0.2102
    108  CA        14.0620  -14.8040   -2.5320 C.3   256  PRO256      0.1504
    109  C         14.0060  -13.4670   -3.2910 C.2   256  PRO256      0.2575
    110  O         13.0790  -12.6790   -3.0570 O.2   256  PRO256     -0.2718
    111  CB        14.9480  -14.6960   -1.2780 C.3   256  PRO256      0.0282
    112  CG        15.5370  -16.0630   -1.1070 C.3   256  PRO256      0.0208
    113  CD        15.6880  -16.6370   -2.4960 C.3   256  PRO256      0.0893
    114  N         14.9540  -13.2240   -4.2020 N.am  257  MET257     -0.1980
    115  CA        14.9930  -11.9380   -4.9200 C.3   257  MET257      0.1605
    116  C         13.8090  -11.7410   -5.8880 C.2   257  MET257      0.2287
    117  O         13.4820  -10.6110   -6.2530 O.2   257  MET257     -0.2864
    118  CB        16.3450  -11.7090   -5.6200 C.3   257  MET257      0.0413
    119  CG        16.4700  -12.2230   -7.0420 C.3   257  MET257      0.0598
    120  SD        18.0220  -11.6560   -7.7640 S.3   257  MET257     -0.1393
    121  CE        18.0920  -12.5890   -9.2910 C.3   257  MET257      0.0692
    122  N         10.7520  -13.1200   -5.1050 N.3   259  ASP259     -0.1239
    123  CA         9.5330  -13.3170   -4.3390 C.3   259  ASP259      0.1674
    124  C          8.9680  -11.9960   -3.7960 C.2   259  ASP259      0.2266
    125  O          9.5900  -11.3780   -2.9280 O.2   259  ASP259     -0.2867
    126  CB         9.7930  -14.2930   -3.1930 C.3   259  ASP259      0.1410
    127  CG         8.5110  -14.8550   -2.6040 C.2   259  ASP259      0.3668
    128  OD1        7.4310  -14.1910   -2.6890 O.co2 259  ASP259     -0.2456
    129  OD2        8.5930  -15.9810   -2.0620 O.co2 259  ASP259     -0.2456
    130  N          8.7210  -10.9070   -0.0230 N.3   262  LYS262     -0.1245
    131  CA         9.9100  -10.4410    0.6710 C.3   262  LYS262      0.1561
    132  C         10.2380   -9.0080    0.2960 C.2   262  LYS262      0.2260
    133  O         11.3840   -8.5760    0.4210 O.2   262  LYS262     -0.2867
    134  CB        11.0740  -11.3980    0.4030 C.3   262  LYS262      0.0271
    135  CG        10.6770  -12.8190    0.7550 C.3   262  LYS262      0.0035
    136  CD        11.8090  -13.8150    0.7250 C.3   262  LYS262      0.0206
    137  CE        11.5100  -14.9050    1.7460 C.3   262  LYS262      0.1093
    138  NZ        11.8780  -16.2480    1.2360 N.3   262  LYS262     -0.1314
    139  N         12.5180   -6.9360    2.5270 N.3   265  GLU265     -0.1231
    140  CA        13.9130   -7.3410    2.6410 C.3   265  GLU265      0.1699
    141  C         14.7610   -6.7400    1.5150 C.2   265  GLU265      0.2592
    142  O         15.9670   -6.9970    1.4180 O.2   265  GLU265     -0.2718
    143  CB        14.0340   -8.8510    2.6450 C.3   265  GLU265      0.0402
    144  CG        13.4610   -9.4860    3.8980 C.3   265  GLU265      0.1161
    145  CD        13.6610  -10.9830    3.9120 C.2   265  GLU265      0.3649
    146  OE1       14.8270  -11.4290    3.8420 O.co2 265  GLU265     -0.2457
    147  OE2       12.6540  -11.7150    3.9890 O.co2 265  GLU265     -0.2457
    148  N         14.1300   -5.9210    0.6730 N.am  266  VAL266     -0.1980
    149  CA        14.8190   -5.3110   -0.4710 C.3   266  VAL266      0.1595
    150  C         16.1620   -4.6660   -0.0800 C.2   266  VAL266      0.2287
    151  O         17.1940   -5.0670   -0.6080 O.2   266  VAL266     -0.2864
    152  CB        13.8740   -4.4060   -1.3090 C.3   266  VAL266      0.0276
    153  CG1       14.6360   -3.3830   -2.1450 C.3   266  VAL266      0.0022
    154  CG2       13.0060   -5.2850   -2.2000 C.3   266  VAL266      0.0022
    155  N         18.6610   -7.2170    0.4430 N.3   269  GLY269     -0.1210
    156  CA        19.0210   -7.9420   -0.7750 C.3   269  GLY269      0.1956
    157  C         19.9510   -7.1070   -1.6400 C.2   269  GLY269      0.2611
    158  O         20.8860   -7.6370   -2.2230 O.2   269  GLY269     -0.2717
    159  N         19.6880   -5.8020   -1.7110 N.am  270  GLN270     -0.1979
    160  CA        20.5540   -4.8560   -2.4270 C.3   270  GLN270      0.1601
    161  C         21.9670   -4.7990   -1.8640 C.2   270  GLN270      0.2287
    162  O         22.9580   -4.7790   -2.6230 O.2   270  GLN270     -0.2864
    163  CB        19.9530   -3.4550   -2.3970 C.3   270  GLN270      0.0394
    164  CG        18.8150   -3.2620   -3.3840 C.3   270  GLN270      0.0908
    165  CD        19.2400   -3.4790   -4.8270 C.2   270  GLN270      0.2608
    166  OE1       19.9300   -2.6390   -5.4260 O.2   270  GLN270     -0.2717
    167  NE2       18.8220   -4.6050   -5.3970 N.am  270  GLN270     -0.0878
    168  N         23.5080   -7.1140   -0.2380 N.3   272  GLY272     -0.1210
    169  CA        24.1200   -8.3790   -0.6410 C.3   272  GLY272      0.1956
    170  C         24.6030   -8.3590   -2.0810 C.2   272  GLY272      0.2611
    171  O         25.7180   -8.7990   -2.3730 O.2   272  GLY272     -0.2717
    172  N         23.7540   -7.8440   -2.9780 N.am  273  PHE273     -0.1976
    173  CA        24.0860   -7.6950   -4.4050 C.3   273  PHE273      0.1639
    174  C         25.3030   -6.7640   -4.6560 C.2   273  PHE273      0.2290
    175  O         26.1890   -7.1020   -5.4460 O.2   273  PHE273     -0.2864
    176  CB        22.8420   -7.2110   -5.1870 C.3   273  PHE273      0.0560
    177  CG        23.0870   -7.0220   -6.6570 C.ar  273  PHE273     -0.0200
    178  CD1       23.1140   -8.1230   -7.5190 C.ar  273  PHE273     -0.0042
    179  CD2       23.3210   -5.7480   -7.1810 C.ar  273  PHE273     -0.0042
    180  CE1       23.3630   -7.9530   -8.8750 C.ar  273  PHE273     -0.0003
    181  CE2       23.5600   -5.5750   -8.5440 C.ar  273  PHE273     -0.0003
    182  CZ        23.5830   -6.6790   -9.3880 C.ar  273  PHE273     -0.0000
@<TRIPOS>BOND
     1    27    26   ar
     2     4     3    2
     3    28    26   ar
     4    26    25    1
     5    25    22    1
     6    21    22    1
     7     3     2    1
     8    22    23    1
     9     1     2    1
    10     2     5    1
    11    13    14    1
    12    23    24    2
    13    23    29   am
    14     8    10   ar
    15     8     6   ar
    16     5     6    1
    17    29    30    1
    18    10    11   ar
    19     6     7   ar
    20    14    15    1
    21    14    17    1
    22    11    12    1
    23    11     9   ar
    24     7     9   ar
    25    15    16    2
    26    17    18    1
    27    30    31    1
    28    30    33    1
    29    31    32    2
    30    19    18    1
    31    37    38    1
    32    34    33    1
    33    34    36    1
    34    34    35    1
    35    18    20    1
    36    38    41    1
    37    38    39    1
    38    41    42    1
    39    90    88   ar
    40    90    92   ar
    41    67    69    1
    42    67    66    1
    43    88    87   ar
    44    62    63    1
    45    63    66    1
    46    63    64    1
    47    82    83    1
    48    92    91   ar
    49    65    64    2
    50    39    43   am
    51    39    40    2
    52    66    68    1
    53    64    70   am
    54    83    84    1
    55    83    86    1
    56    43    44    1
    57    87    86    1
    58    87    89   ar
    59    91    89   ar
    60    84    85    2
    61    84    93   am
    62    49    47    1
    63    70    71    1
    64    95    96    2
    65    95    94    1
    66    93    94    1
    67    72    73    2
    68    72    71    1
    69    44    45    1
    70    44    47    1
    71    45    46    2
    72    57    58    1
    73   182   180   ar
    74   182   181   ar
    75   121   120    1
    76    50    51    1
    77    71    74    1
    78    47    48    1
    79    94    97    1
    80   180   178   ar
    81    51    52    1
    82    51    54    1
    83    60    59    2
    84   181   179   ar
    85    58    59    1
    86    58    61    1
    87    55    54    1
    88    53    52    2
    89    97    98    1
    90   120   119    1
    91    54    56    1
    92    74    75    1
    93   178   177   ar
    94   179   177   ar
    95   119   118    1
    96    98    99   ar
    97    98   100   ar
    98    75    77   ar
    99    75    76   ar
   100   177   176    1
   101    77    79   ar
   102   103   100   ar
   103   103   105   ar
   104    76    78   ar
   105    99   101   ar
   106   100   102   ar
   107   117   116    2
   108   116   115    1
   109    79    80   ar
   110    78    80   ar
   111   118   115    1
   112   105   106   ar
   113   175   174    2
   114   166   165    2
   115   167   165   am
   116    80    81    1
   117   101   102   ar
   118   102   104   ar
   119   176   173    1
   120   122   123    1
   121   115   114    1
   122   165   164    1
   123   174   173    1
   124   106   104   ar
   125   173   172    1
   126   123   124    1
   127   123   126    1
   128   114   109   am
   129   124   125    2
   130   164   163    1
   131   109   110    2
   132   109   108    1
   133   107   108    1
   134   107   113    1
   135   126   127    1
   136   172   170   am
   137   128   127   ar
   138   162   161    2
   139   127   129   ar
   140   108   111    1
   141   113   112    1
   142   160   163    1
   143   160   161    1
   144   160   159    1
   145   171   170    2
   146   158   157    2
   147   154   152    1
   148   153   152    1
   149   170   169    1
   150   159   157   am
   151   157   156    1
   152   152   149    1
   153   111   112    1
   154   156   155    1
   155   169   168    1
   156   151   150    2
   157   149   150    1
   158   149   148    1
   159   130   131    1
   160   132   133    2
   161   132   131    1
   162   134   131    1
   163   134   135    1
   164   148   141   am
   165   136   135    1
   166   136   137    1
   167   138   137    1
   168   142   141    2
   169   141   140    1
   170   139   140    1
   171   140   143    1
   172   143   144    1
   173   146   145   ar
   174   144   145    1
   175   145   147   ar
