@<TRIPOS>MOLECULE
tmp/5ediB00.pdb
 184 179 0 0 0
SMALL
GASTEIGER

@<TRIPOS>ATOM
      1  N         62.2760   -3.5760   10.0390 N.3    72  TYR72      -0.1227
      2  CA        60.8170   -3.7890    9.9170 C.3    72  TYR72       0.1736
      3  C         59.9760   -2.7920   10.7060 C.2    72  TYR72       0.2595
      4  O         59.0840   -2.1840   10.1330 O.2    72  TYR72      -0.2718
      5  CB        60.4360   -5.2130   10.3460 C.3    72  TYR72       0.0548
      6  CG        58.9350   -5.5220   10.2850 C.ar   72  TYR72      -0.0200
      7  CD1       58.2360   -5.5450    9.0670 C.ar   72  TYR72      -0.0009
      8  CD2       58.2320   -5.8130   11.4420 C.ar   72  TYR72      -0.0009
      9  CE1       56.8760   -5.8410    9.0220 C.ar   72  TYR72       0.0417
     10  CE2       56.8970   -6.1150   11.4140 C.ar   72  TYR72       0.0417
     11  CZ        56.2210   -6.1300   10.2070 C.ar   72  TYR72       0.1957
     12  OH        54.8880   -6.4450   10.2220 O.3    72  TYR72      -0.2866
     13  N         60.2320   -2.6520   12.0130 N.am   73  HIS73      -0.1975
     14  CA        59.4460   -1.7430   12.8900 C.3    73  HIS73       0.1656
     15  C         59.8040   -0.2730   12.7560 C.2    73  HIS73       0.2291
     16  O         60.2040    0.4150   13.7320 O.2    73  HIS73      -0.2864
     17  CB        59.5230   -2.1870   14.3510 C.3    73  HIS73       0.0771
     18  CG        58.8430   -3.4920   14.6050 C.ar   73  HIS73       0.0820
     19  ND1       59.5340   -4.6750   14.7470 N.ar   73  HIS73      -0.2267
     20  CD2       57.5280   -3.8090   14.7020 C.ar   73  HIS73       0.1154
     21  CE1       58.6770   -5.6600   14.9550 C.ar   73  HIS73       0.1986
     22  NE2       57.4530   -5.1650   14.9180 N.ar   73  HIS73      -0.2212
     23  N         51.2440   -8.9800   20.5400 N.3   183  LEU183     -0.1245
     24  CA        50.7570  -10.2130   19.9760 C.3   183  LEU183      0.1561
     25  C         50.4220  -11.2700   21.0460 C.2   183  LEU183      0.2260
     26  O         49.5780  -12.1010   20.7970 O.2   183  LEU183     -0.2867
     27  CB        51.7110  -10.7510   18.9010 C.3   183  LEU183      0.0270
     28  CG        51.1360  -11.7780   17.9240 C.3   183  LEU183      0.0019
     29  CD1       49.9820  -11.2180   17.0860 C.3   183  LEU183      0.0001
     30  CD2       52.2590  -12.3150   17.0380 C.3   183  LEU183      0.0001
     31  N         48.1860   -4.7300   12.0370 N.3   222  ASP222     -0.1225
     32  CA        49.5610   -4.9840   12.3960 C.3   222  ASP222      0.1805
     33  C         50.1660   -6.1480   11.6090 C.2   222  ASP222      0.2597
     34  O         51.3240   -6.0920   11.2320 O.2   222  ASP222     -0.2718
     35  CB        49.6650   -5.2250   13.8830 C.3   222  ASP222      0.1424
     36  CG        51.0270   -4.8570   14.4400 C.2   222  ASP222      0.3668
     37  OD1       51.8770   -4.2660   13.7250 O.co2 222  ASP222     -0.2456
     38  OD2       51.2390   -5.1510   15.6070 O.co2 222  ASP222     -0.2456
     39  N         49.3820   -7.1790   11.2980 N.am  223  LEU223     -0.1979
     40  CA        49.9230   -8.3000   10.5390 C.3   223  LEU223      0.1596
     41  C         49.7230   -8.1330    9.0550 C.2   223  LEU223      0.2287
     42  O         50.0860   -9.0260    8.2840 O.2   223  LEU223     -0.2864
     43  CB        49.2970   -9.6170   11.0050 C.3   223  LEU223      0.0297
     44  CG        49.4850   -9.9310   12.4760 C.3   223  LEU223      0.0022
     45  CD1       48.8890  -11.3010   12.7950 C.3   223  LEU223      0.0001
     46  CD2       50.9630   -9.8950   12.8210 C.3   223  LEU223      0.0001
     47  N         50.9400   -7.3040    6.5550 N.3   225  SER225     -0.1202
     48  CA        51.9610   -7.7380    5.5960 C.3   225  SER225      0.2020
     49  C         51.5640   -9.0540    4.8630 C.2   225  SER225      0.2618
     50  O         51.8560   -9.2400    3.6620 O.2   225  SER225     -0.2717
     51  CB        53.2900   -7.9160    6.3020 C.3   225  SER225      0.2103
     52  OG        54.0570   -8.8850    5.6250 O.3   225  SER225     -0.2182
     53  N         50.8930   -9.9580    5.5820 N.am  226  VAL226     -0.1979
     54  CA        50.4830  -11.2560    5.0160 C.3   226  VAL226      0.1595
     55  C         49.2600  -11.1260    4.0910 C.2   226  VAL226      0.2287
     56  O         48.7610  -12.1240    3.5500 O.2   226  VAL226     -0.2864
     57  CB        50.2010  -12.3010    6.1270 C.3   226  VAL226      0.0276
     58  CG1       51.3670  -12.3860    7.1250 C.3   226  VAL226      0.0022
     59  CG2       48.8920  -11.9870    6.8540 C.3   226  VAL226      0.0022
     60  N         54.6590   -9.4490   -0.0010 N.3   233  THR233     -0.1218
     61  CA        54.6230  -10.2930    1.1950 C.3   233  THR233      0.1862
     62  C         55.9840  -10.9470    1.3760 C.2   233  THR233      0.2287
     63  O         56.5400  -10.9260    2.4680 O.2   233  THR233     -0.2866
     64  CB        53.4760  -11.3190    1.0950 C.3   233  THR233      0.1770
     65  OG1       52.2320  -10.6050    1.0920 O.3   233  THR233     -0.2211
     66  CG2       53.4840  -12.3380    2.2720 C.3   233  THR233      0.0375
     67  N         58.7670  -10.2060    4.5100 N.3   237  ALA237     -0.1245
     68  CA        59.3320  -11.3320    5.2700 C.3   237  ALA237      0.1562
     69  C         60.8450  -11.2180    5.4930 C.2   237  ALA237      0.2260
     70  O         61.3180  -11.5290    6.5800 O.2   237  ALA237     -0.2867
     71  CB        59.0110  -12.6590    4.5860 C.3   237  ALA237      0.0290
     72  N         61.2860   -8.6660    8.2510 N.3   240  ILE240     -0.1231
     73  CA        60.8800   -9.2170    9.5460 C.3   240  ILE240      0.1692
     74  C         62.0290  -10.0700   10.1080 C.2   240  ILE240      0.2592
     75  O         62.4320   -9.8940   11.2590 O.2   240  ILE240     -0.2718
     76  CB        59.5500  -10.0170    9.4770 C.3   240  ILE240      0.0266
     77  CG1       58.3650   -9.0540    9.2860 C.3   240  ILE240      0.0019
     78  CG2       59.3400  -10.7520   10.7880 C.3   240  ILE240      0.0020
     79  CD1       57.1320   -9.5830    8.5580 C.3   240  ILE240      0.0001
     80  N         62.5710  -10.9570    9.2790 N.am  241  TYR241     -0.1976
     81  CA        63.6840  -11.8400    9.7020 C.3   241  TYR241      0.1639
     82  C         65.0080  -11.1490    9.9570 C.2   241  TYR241      0.2290
     83  O         65.7340  -11.5660   10.8710 O.2   241  TYR241     -0.2864
     84  CB        63.8630  -13.0250    8.7560 C.3   241  TYR241      0.0560
     85  CG        62.7720  -14.0530    8.9520 C.ar  241  TYR241     -0.0198
     86  CD1       62.6940  -14.8060   10.1280 C.ar  241  TYR241     -0.0009
     87  CD2       61.7790  -14.2400    7.9810 C.ar  241  TYR241     -0.0009
     88  CE1       61.6710  -15.7330   10.3130 C.ar  241  TYR241      0.0417
     89  CE2       60.7570  -15.1620    8.1570 C.ar  241  TYR241      0.0417
     90  CZ        60.7020  -15.8960    9.3240 C.ar  241  TYR241      0.1957
     91  OH        59.6990  -16.8110    9.4780 O.3   241  TYR241     -0.2866
     92  N         64.5060  -10.1840   13.4590 N.3   244  PHE244     -0.1227
     93  CA        64.4420  -11.3260   14.3750 C.3   244  PHE244      0.1736
     94  C         65.8260  -11.9370   14.5140 C.2   244  PHE244      0.2595
     95  O         66.2320  -12.3110   15.6140 O.2   244  PHE244     -0.2718
     96  CB        63.4480  -12.3930   13.8780 C.3   244  PHE244      0.0547
     97  CG        61.9950  -12.0260   14.0760 C.ar  244  PHE244     -0.0202
     98  CD1       61.6280  -10.9410   14.8520 C.ar  244  PHE244     -0.0042
     99  CD2       60.9920  -12.8120   13.5240 C.ar  244  PHE244     -0.0042
    100  CE1       60.2900  -10.6140   15.0420 C.ar  244  PHE244     -0.0003
    101  CE2       59.6530  -12.4980   13.7120 C.ar  244  PHE244     -0.0003
    102  CZ        59.3020  -11.3940   14.4740 C.ar  244  PHE244     -0.0000
    103  N         66.5560  -12.0180   13.4000 N.am  245  TRP245     -0.1976
    104  CA        67.8640  -12.6580   13.4300 C.3   245  TRP245      0.1640
    105  C         68.8970  -11.8260   14.1770 C.2   245  TRP245      0.2290
    106  O         69.7530  -12.3840   14.8850 O.2   245  TRP245     -0.2864
    107  CB        68.3480  -13.0430   12.0390 C.3   245  TRP245      0.0576
    108  CG        67.5000  -14.1370   11.4010 C.ar  245  TRP245      0.0006
    109  CD1       66.7210  -15.0640   12.0440 C.ar  245  TRP245      0.0946
    110  CD2       67.3730  -14.4100   10.0050 C.ar  245  TRP245      0.0152
    111  NE1       66.1030  -15.8770   11.1270 N.ar  245  TRP245     -0.2442
    112  CE2       66.4950  -15.5060    9.8700 C.ar  245  TRP245      0.0810
    113  CE3       67.9100  -13.8250    8.8510 C.ar  245  TRP245      0.0012
    114  CZ2       66.1470  -16.0380    8.6290 C.ar  245  TRP245      0.0191
    115  CZ3       67.5620  -14.3500    7.6170 C.ar  245  TRP245      0.0001
    116  CH2       66.6840  -15.4450    7.5130 C.ar  245  TRP245      0.0015
    117  N         63.7810  -20.6380   17.5730 N.3   260  PRO260     -0.2102
    118  CA        64.1880  -20.8980   16.1720 C.3   260  PRO260      0.1504
    119  C         63.8930  -19.7530   15.2070 C.2   260  PRO260      0.2575
    120  O         64.6720  -19.4930   14.2630 O.2   260  PRO260     -0.2718
    121  CB        63.3200  -22.1050   15.7850 C.3   260  PRO260      0.0282
    122  CG        63.0880  -22.8270   17.0750 C.3   260  PRO260      0.0208
    123  CD        63.0390  -21.7770   18.1560 C.3   260  PRO260      0.0893
    124  N         62.7460  -19.1120   15.4410 N.am  261  MET261     -0.1980
    125  CA        62.2530  -17.9780   14.6680 C.3   261  MET261      0.1605
    126  C         63.3160  -16.8730   14.5840 C.2   261  MET261      0.2287
    127  O         63.3980  -16.1570   13.6030 O.2   261  MET261     -0.2864
    128  CB        60.9970  -17.4550   15.3770 C.3   261  MET261      0.0413
    129  CG        60.2400  -16.3340   14.7070 C.3   261  MET261      0.0598
    130  SD        58.7700  -15.8360   15.6500 S.3   261  MET261     -0.1393
    131  CE        59.2480  -14.4910   16.7280 C.3   261  MET261      0.0692
    132  N         68.6520  -21.2760   11.3540 N.3   266  LYS266     -0.1245
    133  CA        67.4900  -22.0060   10.8760 C.3   266  LYS266      0.1561
    134  C         66.8060  -21.3740    9.6650 C.2   266  LYS266      0.2260
    135  O         65.6510  -21.6640    9.3600 O.2   266  LYS266     -0.2867
    136  CB        66.5400  -22.2770   12.0290 C.3   266  LYS266      0.0271
    137  CG        67.1410  -23.3070   12.9610 C.3   266  LYS266      0.0035
    138  CD        66.5780  -23.1760   14.3570 C.3   266  LYS266      0.0206
    139  CE        67.4070  -23.9540   15.3680 C.3   266  LYS266      0.1093
    140  NZ        67.2830  -23.2990   16.7020 N.3   266  LYS266     -0.1314
    141  N         64.4660  -23.2030    7.2450 N.3   269  GLU269     -0.1231
    142  CA        63.1130  -23.5580    7.6870 C.3   269  GLU269      0.1699
    143  C         62.1090  -22.3840    7.6020 C.2   269  GLU269      0.2592
    144  O         60.9480  -22.5050    8.0070 O.2   269  GLU269     -0.2718
    145  CB        63.1370  -24.0950    9.1110 C.3   269  GLU269      0.0402
    146  CG        64.1910  -25.1610    9.3950 C.3   269  GLU269      0.1161
    147  CD        64.1780  -25.5690   10.8570 C.2   269  GLU269      0.3649
    148  OE1       63.0740  -25.6000   11.4400 O.co2 269  GLU269     -0.2457
    149  OE2       65.2590  -25.8310   11.4340 O.co2 269  GLU269     -0.2457
    150  N         62.5530  -21.2520    7.0660 N.am  270  VAL270     -0.1980
    151  CA        61.6900  -20.0870    6.9650 C.3   270  VAL270      0.1595
    152  C         60.3110  -20.4260    6.3440 C.2   270  VAL270      0.2287
    153  O         59.2840  -20.0570    6.9280 O.2   270  VAL270     -0.2864
    154  CB        62.4250  -18.8810    6.3100 C.3   270  VAL270      0.0276
    155  CG1       61.4520  -17.8610    5.7250 C.3   270  VAL270      0.0022
    156  CG2       63.3560  -18.2300    7.3330 C.3   270  VAL270      0.0022
    157  N         58.2610  -22.0970    8.7610 N.3   273  GLY273     -0.1210
    158  CA        58.0110  -21.1760    9.8680 C.3   273  GLY273      0.1956
    159  C         56.8550  -20.2510    9.5230 C.2   273  GLY273      0.2611
    160  O         55.9950  -19.9680   10.3540 O.2   273  GLY273     -0.2717
    161  N         56.8390  -19.7770    8.2840 N.am  274  GLN274     -0.1979
    162  CA        55.7390  -18.9630    7.7990 C.3   274  GLN274      0.1601
    163  C         54.4120  -19.7610    7.7930 C.2   274  GLN274      0.2287
    164  O         53.4030  -19.3010    8.3570 O.2   274  GLN274     -0.2864
    165  CB        56.0850  -18.3960    6.4160 C.3   274  GLN274      0.0394
    166  CG        57.1540  -17.3300    6.4870 C.3   274  GLN274      0.0908
    167  CD        56.6440  -16.1060    7.2010 C.2   274  GLN274      0.2608
    168  OE1       55.6900  -15.4560    6.7450 O.2   274  GLN274     -0.2717
    169  NE2       57.2450  -15.7970    8.3480 N.am  274  GLN274     -0.0878
    170  N         53.5130  -22.2540    9.6430 N.3   276  GLY276     -0.1210
    171  CA        53.0590  -22.3510   11.0290 C.3   276  GLY276      0.1956
    172  C         52.4770  -21.0430   11.5180 C.2   276  GLY276      0.2611
    173  O         51.4610  -21.0390   12.2510 O.2   276  GLY276     -0.2717
    174  N         53.1010  -19.9270   11.1110 N.am  277  PHE277     -0.1976
    175  CA        52.5990  -18.6180   11.4910 C.3   277  PHE277      0.1639
    176  C         51.1810  -18.3370   10.9460 C.2   277  PHE277      0.2290
    177  O         50.3140  -17.8620   11.6940 O.2   277  PHE277     -0.2864
    178  CB        53.5440  -17.4920   11.0420 C.3   277  PHE277      0.0560
    179  CG        53.1450  -16.1510   11.5850 C.ar  277  PHE277     -0.0200
    180  CD1       53.2880  -15.8770   12.9380 C.ar  277  PHE277     -0.0042
    181  CD2       52.5840  -15.1820   10.7600 C.ar  277  PHE277     -0.0042
    182  CE1       52.9000  -14.6460   13.4620 C.ar  277  PHE277     -0.0003
    183  CE2       52.2070  -13.9580   11.2780 C.ar  277  PHE277     -0.0003
    184  CZ        52.3720  -13.6850   12.6270 C.ar  277  PHE277     -0.0000
@<TRIPOS>BOND
     1    60    61    1
     2    65    64    1
     3    64    61    1
     4    64    66    1
     5    61    62    1
     6    62    63    2
     7    56    55    2
     8    50    49    2
     9    55    54    1
    10    67    68    1
    11    71    68    1
    12    49    53   am
    13    49    48    1
    14    54    53    1
    15    54    57    1
    16    68    69    1
    17    69    70    2
    18    48    51    1
    19    48    47    1
    20    52    51    1
    21   155   154    1
    22    57    59    1
    23    57    58    1
    24   154   151    1
    25   154   156    1
    26   152   153    2
    27   152   151    1
    28   165   166    1
    29   165   162    1
    30   166   167    1
    31   168   167    2
    32   151   150    1
    33   150   143   am
    34   167   169   am
    35   141   142    1
    36   116   115   ar
    37   116   114   ar
    38   143   142    1
    39   143   144    2
    40   115   113   ar
    41   142   145    1
    42   163   162    1
    43   163   164    2
    44   162   161    1
    45    87    89   ar
    46    87    85   ar
    47    89    90   ar
    48    72    73    1
    49    42    41    2
    50   161   159   am
    51    79    77    1
    52   114   112   ar
    53    84    85    1
    54    84    81    1
    55   157   158    1
    56   113   110   ar
    57    85    86   ar
    58     9     7   ar
    59     9    11   ar
    60    41    40    1
    61     7     6   ar
    62   145   146    1
    63    80    81    1
    64    80    74   am
    65    77    76    1
    66    90    91    1
    67    90    88   ar
    68   135   134    2
    69   146   147    1
    70    76    73    1
    71    76    78    1
    72   159   158    1
    73   159   160    2
    74    73    74    1
    75   170   171    1
    76   134   133    1
    77    81    82    1
    78   112   110   ar
    79   112   111   ar
    80     2     1    1
    81     2     5    1
    82     2     3    1
    83    82    83    2
    84   110   108   ar
    85    74    75    2
    86    86    88   ar
    87     4     3    2
    88    11    12    1
    89    11    10   ar
    90     6     5    1
    91     6     8   ar
    92    40    43    1
    93    40    39    1
    94     3    13   am
    95   181   183   ar
    96   181   179   ar
    97   147   149   ar
    98   147   148   ar
    99   133   132    1
   100   133   136    1
   101   176   175    1
   102   176   177    2
   103    43    44    1
   104   171   172    1
   105   178   175    1
   106   178   179    1
   107   174   175    1
   108   174   172   am
   109   111   109   ar
   110    34    33    2
   111   183   184   ar
   112    39    33   am
   113   108   107    1
   114   108   109   ar
   115    10     8   ar
   116   172   173    2
   117   179   180   ar
   118    33    32    1
   119    13    14    1
   120   136   137    1
   121    31    32    1
   122   107   104    1
   123    32    35    1
   124    44    45    1
   125    44    46    1
   126   184   182   ar
   127    15    14    1
   128    15    16    2
   129    14    17    1
   130   180   182   ar
   131   137   138    1
   132   103   104    1
   133   103    94   am
   134   104   105    1
   135    92    93    1
   136    99   101   ar
   137    99    97   ar
   138   127   126    2
   139   101   102   ar
   140    37    36   ar
   141    96    97    1
   142    96    93    1
   143    35    36    1
   144    97    98   ar
   145   105   106    2
   146   120   119    2
   147    17    18    1
   148   138   139    1
   149    93    94    1
   150    36    38   ar
   151   102   100   ar
   152    94    95    2
   153   126   125    1
   154    18    20   ar
   155    18    19   ar
   156   125   128    1
   157   125   124    1
   158    20    22   ar
   159   129   128    1
   160   129   130    1
   161    19    21   ar
   162    98   100   ar
   163    22    21   ar
   164   119   124   am
   165   119   118    1
   166   139   140    1
   167   130   131    1
   168   121   118    1
   169   121   122    1
   170   118   117    1
   171    30    28    1
   172   122   123    1
   173    29    28    1
   174   117   123    1
   175    28    27    1
   176    27    24    1
   177    24    23    1
   178    24    25    1
   179    26    25    2
