@<TRIPOS>MOLECULE
tmp/5edlA02.pdb
 100 93 0 0 0
SMALL
GASTEIGER

@<TRIPOS>ATOM
      1  N          1.3560   14.1950   55.5300 N.3    85  MET85      -0.1245
      2  CA         2.5310   13.4460   55.9860 C.3    85  MET85       0.1570
      3  C          3.2470   14.2020   57.1300 C.2    85  MET85       0.2261
      4  O          3.9650   13.5940   57.9230 O.2    85  MET85      -0.2867
      5  CB         3.4980   13.1280   54.8250 C.3    85  MET85       0.0387
      6  CG         3.9650   14.2910   53.9570 C.3    85  MET85       0.0595
      7  SD         4.8920   13.7670   52.4630 S.3    85  MET85      -0.1393
      8  CE         3.6400   12.8790   51.5450 C.3    85  MET85       0.0692
      9  N          2.0930   12.7000   60.2720 N.3    88  VAL88      -0.1245
     10  CA         2.7960   11.4590   60.5690 C.3    88  VAL88       0.1561
     11  C          4.1440   11.7370   61.2390 C.2    88  VAL88       0.2260
     12  O          4.4700   11.1410   62.2690 O.2    88  VAL88      -0.2867
     13  CB         3.0460   10.6080   59.3090 C.3    88  VAL88       0.0252
     14  CG1        3.6700    9.2690   59.7060 C.3    88  VAL88       0.0019
     15  CG2        1.7480   10.3990   58.5070 C.3    88  VAL88       0.0019
     16  N          5.3810   10.7140   64.9940 N.3    92  VAL92      -0.1245
     17  CA         6.6650   10.0480   65.2360 C.3    92  VAL92       0.1561
     18  C          7.5520   10.8620   66.1950 C.2    92  VAL92       0.2260
     19  O          8.1070   10.3280   67.1440 O.2    92  VAL92      -0.2867
     20  CB         7.4190    9.7880   63.8970 C.3    92  VAL92       0.0252
     21  CG1        8.8620    9.3700   64.1480 C.3    92  VAL92       0.0019
     22  CG2        6.6910    8.7290   63.0740 C.3    92  VAL92       0.0019
     23  N          6.2030   10.7080   69.7850 N.3    95  LEU95      -0.1231
     24  CA         6.4970    9.4110   70.3990 C.3    95  LEU95       0.1693
     25  C          7.9430    9.3320   70.8500 C.2    95  LEU95       0.2592
     26  O          8.2450    8.7750   71.9130 O.2    95  LEU95      -0.2718
     27  CB         6.2120    8.2640   69.4180 C.3    95  LEU95       0.0284
     28  CG         4.7390    8.0320   69.0480 C.3    95  LEU95       0.0019
     29  CD1        4.6350    7.0670   67.8630 C.3    95  LEU95       0.0001
     30  CD2        3.9290    7.5080   70.2390 C.3    95  LEU95       0.0001
     31  N          8.8380    9.8670   70.0180 N.am   96  GLY96      -0.1957
     32  CA        10.2530    9.9340   70.3560 C.3    96  GLY96       0.1869
     33  C         10.5390   10.7410   71.6190 C.2    96  GLY96       0.2309
     34  O         11.3480   10.3300   72.4680 O.2    96  GLY96      -0.2863
     35  N          8.8060    8.9880   74.7470 N.3    99  ALA99      -0.1231
     36  CA         9.5240    7.8010   75.2100 C.3    99  ALA99       0.1694
     37  C         10.5370    8.1440   76.3200 C.2    99  ALA99       0.2591
     38  O         10.7640    7.3550   77.2300 O.2    99  ALA99      -0.2718
     39  CB        10.2270    7.1140   74.0350 C.3    99  ALA99       0.0304
     40  N         11.1440    9.3170   76.2290 N.am  100  VAL100     -0.1980
     41  CA        12.1240    9.7480   77.2300 C.3   100  VAL100      0.1595
     42  C         11.4200   10.1120   78.5540 C.2   100  VAL100      0.2287
     43  O         11.9410    9.8450   79.6420 O.2   100  VAL100     -0.2864
     44  CB        12.9590   10.9390   76.7010 C.3   100  VAL100      0.0276
     45  CG1       13.6780   11.6730   77.8370 C.3   100  VAL100      0.0022
     46  CG2       13.9480   10.4610   75.6390 C.3   100  VAL100      0.0022
     47  N         15.3710   12.3670   71.3820 N.3   120  GLY120     -0.1225
     48  CA        14.4550   11.2790   71.0820 C.3   120  GLY120      0.1811
     49  C         13.6620   11.5970   69.8230 C.2   120  GLY120      0.2280
     50  O         13.4740   10.7420   68.9560 O.2   120  GLY120     -0.2866
     51  N         16.0090   11.2780   66.7750 N.3   123  VAL123     -0.1231
     52  CA        16.1830    9.9020   66.3480 C.3   123  VAL123      0.1692
     53  C         14.9410    9.3550   65.6320 C.2   123  VAL123      0.2591
     54  O         15.0520    8.7320   64.5620 O.2   123  VAL123     -0.2718
     55  CB        16.5300    8.9930   67.5440 C.3   123  VAL123      0.0266
     56  CG1       16.4870    7.5290   67.1340 C.3   123  VAL123      0.0020
     57  CG2       17.9030    9.3530   68.1100 C.3   123  VAL123      0.0020
     58  N         13.7660    9.5790   66.2170 N.am  124  ALA124     -0.1980
     59  CA        12.5190    9.0750   65.6410 C.3   124  ALA124      0.1597
     60  C         12.2510    9.6710   64.2470 C.2   124  ALA124      0.2287
     61  O         11.8280    8.9640   63.3320 O.2   124  ALA124     -0.2864
     62  CB        11.3500    9.3670   66.5680 C.3   124  ALA124      0.0319
     63  N         14.5730    8.1030   61.6690 N.3   127  ILE127     -0.1231
     64  CA        14.0320    6.8240   61.2290 C.3   127  ILE127      0.1692
     65  C         12.9490    7.0370   60.1760 C.2   127  ILE127      0.2592
     66  O         12.9780    6.4020   59.1120 O.2   127  ILE127     -0.2718
     67  CB        13.4440    6.0290   62.4040 C.3   127  ILE127      0.0266
     68  CG1       14.5640    5.6140   63.3640 C.3   127  ILE127      0.0019
     69  CG2       12.6530    4.8340   61.8760 C.3   127  ILE127      0.0020
     70  CD1       14.0680    4.9320   64.6320 C.3   127  ILE127      0.0001
     71  N         12.0120    7.9400   60.4750 N.am  128  TYR128     -0.1976
     72  CA        10.9460    8.2910   59.5440 C.3   128  TYR128      0.1639
     73  C         11.5150    8.6870   58.1700 C.2   128  TYR128      0.2290
     74  O         11.0440    8.2160   57.1330 O.2   128  TYR128     -0.2864
     75  CB        10.0930    9.4360   60.1080 C.3   128  TYR128      0.0560
     76  CG         9.0960   10.0190   59.1250 C.ar  128  TYR128     -0.0198
     77  CD1        9.4560   11.0560   58.2690 C.ar  128  TYR128     -0.0009
     78  CD2        7.8020    9.5360   59.0510 C.ar  128  TYR128     -0.0009
     79  CE1        8.5450   11.5960   57.3590 C.ar  128  TYR128      0.0417
     80  CE2        6.8790   10.0720   58.1510 C.ar  128  TYR128      0.0417
     81  CZ         7.2610   11.1030   57.3070 C.ar  128  TYR128      0.1957
     82  OH         6.3580   11.6350   56.4090 O.3   128  TYR128     -0.2866
     83  N         12.6710    6.0020   55.8540 N.3   131  PHE131     -0.1227
     84  CA        11.5630    5.3210   55.1930 C.3   131  PHE131      0.1736
     85  C         10.9360    6.1540   54.0810 C.2   131  PHE131      0.2595
     86  O         10.6070    5.6340   53.0150 O.2   131  PHE131     -0.2718
     87  CB        10.4740    4.9500   56.2050 C.3   131  PHE131      0.0547
     88  CG        10.7890    3.7230   57.0000 C.ar  131  PHE131     -0.0202
     89  CD1       10.5980    2.4610   56.4510 C.ar  131  PHE131     -0.0042
     90  CD2       11.2850    3.8240   58.2870 C.ar  131  PHE131     -0.0042
     91  CE1       10.8960    1.3230   57.1810 C.ar  131  PHE131     -0.0003
     92  CE2       11.5820    2.6880   59.0240 C.ar  131  PHE131     -0.0003
     93  CZ        11.3940    1.4410   58.4730 C.ar  131  PHE131     -0.0000
     94  N         10.7800    7.4460   54.3390 N.am  132  VAL132     -0.1980
     95  CA         9.8620    8.2550   53.5640 C.3   132  VAL132      0.1595
     96  C         10.5260    9.3550   52.7480 C.2   132  VAL132      0.2287
     97  O         10.0820    9.6440   51.6460 O.2   132  VAL132     -0.2864
     98  CB         8.8010    8.9110   54.4870 C.3   132  VAL132      0.0276
     99  CG1        7.9640    9.9110   53.7040 C.3   132  VAL132      0.0022
    100  CG2        7.9100    7.8400   55.1010 C.3   132  VAL132      0.0022
@<TRIPOS>BOND
     1     8     7    1
     2    97    96    2
     3     7     6    1
     4    96    95    1
     5    86    85    2
     6    95    94    1
     7    95    98    1
     8    99    98    1
     9     6     5    1
    10    85    94   am
    11    85    84    1
    12    98   100    1
    13     5     2    1
    14    84    83    1
    15    84    87    1
    16     1     2    1
    17     2     3    1
    18    87    88    1
    19    82    81    1
    20    89    88   ar
    21    89    91   ar
    22    88    90   ar
    23     3     4    2
    24    74    73    2
    25    91    93   ar
    26    81    79   ar
    27    81    80   ar
    28    79    77   ar
    29    80    78   ar
    30    73    72    1
    31    77    76   ar
    32    90    92   ar
    33    93    92   ar
    34    15    13    1
    35    78    76   ar
    36    66    65    2
    37    76    75    1
    38    13    14    1
    39    13    10    1
    40    72    75    1
    41    72    71    1
    42    65    71   am
    43    65    64    1
    44     9    10    1
    45    10    11    1
    46    64    63    1
    47    64    67    1
    48    11    12    2
    49    69    67    1
    50    67    68    1
    51    22    20    1
    52    61    60    2
    53    68    70    1
    54    20    21    1
    55    20    17    1
    56    60    59    1
    57    54    53    2
    58    16    17    1
    59    17    18    1
    60    53    58   am
    61    53    52    1
    62    59    58    1
    63    59    62    1
    64    18    19    2
    65    52    51    1
    66    52    55    1
    67    56    55    1
    68    55    57    1
    69    29    28    1
    70    50    49    2
    71    28    27    1
    72    28    30    1
    73    27    24    1
    74    23    24    1
    75    49    48    1
    76    31    32    1
    77    31    25   am
    78    32    33    1
    79    24    25    1
    80    25    26    2
    81    48    47    1
    82    33    34    2
    83    39    36    1
    84    35    36    1
    85    36    37    1
    86    46    44    1
    87    40    37   am
    88    40    41    1
    89    37    38    2
    90    44    41    1
    91    44    45    1
    92    41    42    1
    93    42    43    2
