@<TRIPOS>MOLECULE
tmp/5edlA00.pdb
 183 172 0 0 0
SMALL
GASTEIGER

@<TRIPOS>ATOM
      1  N          6.1960   26.5450   63.4310 N.3    21  TYR21      -0.1241
      2  CA         6.5550   25.3580   62.6570 C.3    21  TYR21       0.1605
      3  C          6.3970   25.6070   61.1470 C.2    21  TYR21       0.2264
      4  O          7.2520   25.2340   60.3530 O.2    21  TYR21      -0.2867
      5  CB         5.6860   24.1550   63.0510 C.3    21  TYR21       0.0534
      6  CG         6.0160   23.5020   64.3820 C.ar   21  TYR21      -0.0201
      7  CD1        6.8850   24.0980   65.2880 C.ar   21  TYR21      -0.0009
      8  CD2        5.4620   22.2760   64.7160 C.ar   21  TYR21      -0.0009
      9  CE1        7.1920   23.4860   66.4920 C.ar   21  TYR21       0.0417
     10  CE2        5.7600   21.6570   65.9060 C.ar   21  TYR21       0.0417
     11  CZ         6.6240   22.2620   66.7850 C.ar   21  TYR21       0.1957
     12  OH         6.9060   21.6330   67.9530 O.3    21  TYR21      -0.2866
     13  N          9.1860   25.5240   58.2890 N.3    25  THR25      -0.1218
     14  CA         9.0490   24.5670   57.2020 C.3    25  THR25       0.1862
     15  C          9.3170   25.2450   55.8570 C.2    25  THR25       0.2287
     16  O         10.0160   24.6920   54.9950 O.2    25  THR25      -0.2866
     17  CB         7.6630   23.9190   57.1980 C.3    25  THR25       0.1770
     18  OG1        7.6140   22.9490   58.2450 O.3    25  THR25      -0.2211
     19  CG2        7.3830   23.2320   55.8570 C.3    25  THR25       0.0375
     20  N         12.9500   25.6910   55.5420 N.3    28  GLY28      -0.1210
     21  CA        13.5720   24.4090   55.2980 C.3    28  GLY28       0.1956
     22  C         13.4730   23.9610   53.8560 C.2    28  GLY28       0.2611
     23  O         14.4310   23.4110   53.3150 O.2    28  GLY28      -0.2717
     24  N         12.3140   24.1860   53.2370 N.am   29  ASN29      -0.1974
     25  CA        12.1420   23.8540   51.8250 C.3    29  ASN29       0.1688
     26  C         13.0890   24.6650   50.9420 C.2    29  ASN29       0.2292
     27  O         13.7060   24.1240   50.0140 O.2    29  ASN29      -0.2864
     28  CB        10.6930   24.0800   51.3830 C.3    29  ASN29       0.1181
     29  CG         9.7440   23.0240   51.9240 C.2    29  ASN29       0.2629
     30  OD1       10.1500   21.9010   52.2060 O.2    29  ASN29      -0.2716
     31  ND2        8.4720   23.3790   52.0580 N.am   29  ASN29      -0.0877
     32  N         18.8910   22.1280   56.3590 N.3    40  TYR40      -0.1241
     33  CA        17.8810   22.3920   57.3940 C.3    40  TYR40       0.1605
     34  C         18.1340   21.6370   58.6970 C.2    40  TYR40       0.2264
     35  O         17.3940   21.8020   59.6660 O.2    40  TYR40      -0.2867
     36  CB        16.4620   22.0880   56.8920 C.3    40  TYR40       0.0534
     37  CG        16.2220   20.6770   56.3900 C.ar   40  TYR40      -0.0201
     38  CD1       16.4140   19.5690   57.2170 C.ar   40  TYR40      -0.0009
     39  CD2       15.7480   20.4630   55.1100 C.ar   40  TYR40      -0.0009
     40  CE1       16.1770   18.2810   56.7580 C.ar   40  TYR40       0.0417
     41  CE2       15.5110   19.1880   54.6390 C.ar   40  TYR40       0.0417
     42  CZ        15.7220   18.1010   55.4610 C.ar   40  TYR40       0.1957
     43  OH        15.4820   16.8450   54.9670 O.3    40  TYR40      -0.2866
     44  N         16.4860   21.8980   62.8610 N.3    44  TYR44      -0.1241
     45  CA        15.4830   20.8290   62.9400 C.3    44  TYR44       0.1605
     46  C         14.7800   20.7640   64.3030 C.2    44  TYR44       0.2264
     47  O         13.5750   20.5410   64.3720 O.2    44  TYR44      -0.2867
     48  CB        16.0990   19.4590   62.6210 C.3    44  TYR44       0.0534
     49  CG        15.1250   18.5640   61.8760 C.ar   44  TYR44      -0.0201
     50  CD1       14.0350   18.0010   62.5280 C.ar   44  TYR44      -0.0009
     51  CD2       15.2700   18.3250   60.5030 C.ar   44  TYR44      -0.0009
     52  CE1       13.1190   17.2020   61.8470 C.ar   44  TYR44       0.0417
     53  CE2       14.3610   17.5240   59.8100 C.ar   44  TYR44       0.0417
     54  CZ        13.2890   16.9730   60.4850 C.ar   44  TYR44       0.1957
     55  OH        12.3810   16.1950   59.8100 O.3    44  TYR44      -0.2866
     56  N         11.2180   22.0440   65.3760 N.3    47  TRP47      -0.1241
     57  CA         9.9720   21.3070   65.1260 C.3    47  TRP47       0.1605
     58  C          9.5980   20.3490   66.2570 C.2    47  TRP47       0.2264
     59  O          8.5360   19.7140   66.1920 O.2    47  TRP47      -0.2867
     60  CB        10.0430   20.5340   63.7920 C.3    47  TRP47       0.0550
     61  CG        10.0210   21.4550   62.5970 C.ar   47  TRP47       0.0003
     62  CD1        9.0400   22.3460   62.2550 C.ar   47  TRP47       0.0946
     63  CD2       11.0250   21.5570   61.5820 C.ar   47  TRP47       0.0152
     64  NE1        9.3810   23.0070   61.0920 N.ar   47  TRP47      -0.2442
     65  CE2       10.6000   22.5420   60.6660 C.ar   47  TRP47       0.0810
     66  CE3       12.2500   20.9080   61.3620 C.ar   47  TRP47       0.0012
     67  CZ2       11.3550   22.8920   59.5440 C.ar   47  TRP47       0.0191
     68  CZ3       13.0000   21.2650   60.2570 C.ar   47  TRP47       0.0001
     69  CH2       12.5520   22.2510   59.3640 C.ar   47  TRP47       0.0015
     70  N          2.5090   17.7050   70.3450 N.3    68  GLU68      -0.1245
     71  CA         3.1650   17.6840   69.0380 C.3    68  GLU68       0.1567
     72  C          2.1790   17.2700   67.9300 C.2    68  GLU68       0.2260
     73  O          2.2310   17.7960   66.8180 O.2    68  GLU68      -0.2867
     74  CB         4.3800   16.7380   69.0720 C.3    68  GLU68       0.0388
     75  CG         5.2190   16.6380   67.7720 C.3    68  GLU68       0.1160
     76  CD         6.0960   17.8640   67.4880 C.2    68  GLU68       0.3649
     77  OE1        6.0380   18.8620   68.2420 O.co2  68  GLU68      -0.2457
     78  OE2        6.8350   17.8360   66.4860 O.co2  68  GLU68      -0.2457
     79  N          1.2550   19.6270   64.8050 N.3    72  ALA72      -0.1245
     80  CA         1.4170   19.1220   63.4350 C.3    72  ALA72       0.1562
     81  C          0.1130   19.1890   62.6410 C.2    72  ALA72       0.2260
     82  O          0.1110   19.5270   61.4450 O.2    72  ALA72      -0.2867
     83  CB         1.9400   17.6930   63.4480 C.3    72  ALA72       0.0290
     84  N         -0.4350   22.8020   61.7790 N.3    75  GLU75      -0.1245
     85  CA         0.5040   23.1900   60.7320 C.3    75  GLU75       0.1567
     86  C          0.0230   22.6790   59.3580 C.2    75  GLU75       0.2260
     87  O          0.0970   23.3910   58.3620 O.2    75  GLU75      -0.2867
     88  CB         1.9150   22.6700   61.0330 C.3    75  GLU75       0.0388
     89  CG         2.9610   23.2720   60.1040 C.3    75  GLU75       0.1160
     90  CD         4.2900   22.5370   60.1510 C.2    75  GLU75       0.3649
     91  OE1        4.5140   21.7720   61.1130 O.co2  75  GLU75      -0.2457
     92  OE2        5.0950   22.7180   59.2130 O.co2  75  GLU75      -0.2457
     93  N          0.8170   23.4530   55.2500 N.3    80  ASN80      -0.1240
     94  CA         2.0710   22.7300   55.0200 C.3    80  ASN80       0.1653
     95  C          2.0300   22.0660   53.6440 C.2    80  ASN80       0.2266
     96  O          1.1230   21.2940   53.3610 O.2    80  ASN80      -0.2867
     97  CB         2.3190   21.6820   56.1060 C.3    80  ASN80       0.1155
     98  CG         3.6550   20.9630   55.9380 C.2    80  ASN80       0.2627
     99  OD1        3.8000   20.0800   55.0900 O.2    80  ASN80      -0.2716
    100  ND2        4.6330   21.3400   56.7450 N.am   80  ASN80      -0.0877
    101  N          3.5630   19.7200   52.2210 N.3    82  SER82      -0.1217
    102  CA         3.6530   18.2660   52.1510 C.3    82  SER82       0.1889
    103  C          2.3480   17.6000   52.5820 C.2    82  SER82       0.2288
    104  O          2.2470   16.3760   52.6070 O.2    82  SER82      -0.2866
    105  CB         4.8140   17.7570   53.0140 C.3    82  SER82       0.2089
    106  OG         4.4250   17.5950   54.3670 O.3    82  SER82      -0.2183
    107  N          3.0170   15.5080   57.2540 N.3    86  VAL86      -0.1245
    108  CA         3.6110   16.2390   58.3660 C.3    86  VAL86       0.1561
    109  C          2.9560   15.7910   59.6890 C.2    86  VAL86       0.2260
    110  O          3.5810   15.8360   60.7390 O.2    86  VAL86      -0.2867
    111  CB         3.4870   17.7750   58.2070 C.3    86  VAL86       0.0252
    112  CG1        2.0510   18.2500   58.4830 C.3    86  VAL86       0.0019
    113  CG2        4.4730   18.4800   59.1580 C.3    86  VAL86       0.0019
    114  N          4.9380   12.6430   60.6730 N.3    89  ILE89      -0.1231
    115  CA         6.2340   12.8960   61.2970 C.3    89  ILE89       0.1692
    116  C          6.0160   13.5550   62.6570 C.2    89  ILE89       0.2592
    117  O          6.8060   13.3670   63.5860 O.2    89  ILE89      -0.2718
    118  CB         7.1820   13.7540   60.4050 C.3    89  ILE89       0.0266
    119  CG1        8.6490   13.4690   60.7970 C.3    89  ILE89       0.0019
    120  CG2        6.8170   15.2390   60.4740 C.3    89  ILE89       0.0020
    121  CD1        9.7140   14.0590   59.8700 C.3    89  ILE89       0.0001
    122  N          4.9160   14.2910   62.7910 N.am   90  GLY90      -0.1957
    123  CA         4.5550   14.8730   64.0770 C.3    90  GLY90       0.1869
    124  C          4.2890   13.7960   65.1200 C.2    90  GLY90       0.2309
    125  O          4.8070   13.8580   66.2350 O.2    90  GLY90      -0.2863
    126  N          7.6670   12.1590   65.9470 N.3    93  GLN93      -0.1245
    127  CA         8.4530   13.0310   66.8100 C.3    93  GLN93       0.1566
    128  C          7.8880   13.0720   68.2340 C.2    93  GLN93       0.2260
    129  O          8.6550   13.0260   69.1810 O.2    93  GLN93      -0.2867
    130  CB         8.5440   14.4380   66.2020 C.3    93  GLN93       0.0367
    131  CG         9.4370   14.4230   64.9480 C.3    93  GLN93       0.0905
    132  CD         9.2530   15.6000   63.9950 C.2    93  GLN93       0.2608
    133  OE1        9.9210   15.6650   62.9550 O.2    93  GLN93      -0.2717
    134  NE2        8.3510   16.5080   64.3210 N.am   93  GLN93      -0.0878
    135  N         12.0120    7.9400   60.4750 N.3   128  TYR128     -0.1227
    136  CA        10.9460    8.2910   59.5440 C.3   128  TYR128      0.1736
    137  C         11.5150    8.6870   58.1700 C.2   128  TYR128      0.2595
    138  O         11.0440    8.2160   57.1330 O.2   128  TYR128     -0.2718
    139  CB        10.0930    9.4360   60.1080 C.3   128  TYR128      0.0548
    140  CG         9.0960   10.0190   59.1250 C.ar  128  TYR128     -0.0200
    141  CD1        9.4560   11.0560   58.2690 C.ar  128  TYR128     -0.0009
    142  CD2        7.8020    9.5360   59.0510 C.ar  128  TYR128     -0.0009
    143  CE1        8.5450   11.5960   57.3590 C.ar  128  TYR128      0.0417
    144  CE2        6.8790   10.0720   58.1510 C.ar  128  TYR128      0.0417
    145  CZ         7.2610   11.1030   57.3070 C.ar  128  TYR128      0.1957
    146  OH         6.3580   11.6350   56.4090 O.3   128  TYR128     -0.2866
    147  N         12.5340    9.5420   58.1780 N.am  129  ASP129     -0.1974
    148  CA        13.1100   10.0360   56.9300 C.3   129  ASP129      0.1709
    149  C         13.7810    8.9490   56.0890 C.2   129  ASP129      0.2293
    150  O         13.7700    9.0130   54.8570 O.2   129  ASP129     -0.2864
    151  CB        14.1130   11.1510   57.2260 C.3   129  ASP129      0.1436
    152  CG        13.4330   12.4440   57.6530 C.2   129  ASP129      0.3671
    153  OD1       12.2390   12.6490   57.3140 O.co2 129  ASP129     -0.2456
    154  OD2       14.1040   13.2540   58.3140 O.co2 129  ASP129     -0.2456
    155  N         11.5890    9.9490   53.2910 N.3   133  SER133     -0.1217
    156  CA        12.0940   11.2250   52.7840 C.3   133  SER133      0.1889
    157  C         13.3340   11.1070   51.8990 C.2   133  SER133      0.2288
    158  O         14.0220   12.1000   51.6570 O.2   133  SER133     -0.2866
    159  CB        12.3990   12.1600   53.9560 C.3   133  SER133      0.2089
    160  OG        11.3780   12.0780   54.9330 O.3   133  SER133     -0.2183
    161  N         16.1310    9.5610   52.4920 N.3   135  TYR135     -0.1241
    162  CA        17.4110    9.5260   53.1970 C.3   135  TYR135      0.1605
    163  C         18.1720    8.2340   52.9420 C.2   135  TYR135      0.2264
    164  O         19.3850    8.1900   53.0710 O.2   135  TYR135     -0.2867
    165  CB        17.2070    9.7150   54.7090 C.3   135  TYR135      0.0534
    166  CG        17.1950   11.1600   55.1290 C.ar  135  TYR135     -0.0201
    167  CD1       16.5990   12.1320   54.3230 C.ar  135  TYR135     -0.0009
    168  CD2       17.7750   11.5600   56.3260 C.ar  135  TYR135     -0.0009
    169  CE1       16.5840   13.4630   54.7030 C.ar  135  TYR135      0.0417
    170  CE2       17.7620   12.8910   56.7200 C.ar  135  TYR135      0.0417
    171  CZ        17.1670   13.8370   55.9070 C.ar  135  TYR135      0.1957
    172  OH        17.1660   15.1610   56.2970 O.3   135  TYR135     -0.2866
    173  N         21.3190   16.9210   63.7290 N.3   150  ARG150     -0.1245
    174  CA        19.9360   16.9000   64.1940 C.3   150  ARG150      0.1563
    175  C         19.8550   16.5820   65.6940 C.2   150  ARG150      0.2260
    176  O         18.9830   17.1050   66.3900 O.2   150  ARG150     -0.2867
    177  CB        19.0800   15.9010   63.4140 C.3   150  ARG150      0.0307
    178  CG        17.5650   16.1320   63.6350 C.3   150  ARG150      0.0489
    179  CD        16.6830   15.1330   62.8680 C.3   150  ARG150      0.2205
    180  NE        16.8560   15.2380   61.4140 N.pl3 150  ARG150     -0.0865
    181  CZ        16.1160   14.5870   60.5220 C.cat 150  ARG150      0.5346
    182  NH1       15.1410   13.7780   60.9220 N.pl3 150  ARG150      0.1354
    183  NH2       16.3520   14.7470   59.2230 N.pl3 150  ARG150      0.1354
@<TRIPOS>BOND
     1    27    26    2
     2    26    25    1
     3    28    25    1
     4    28    29    1
     5   158   157    2
     6    25    24    1
     7   157   156    1
     8    29    31   am
     9    29    30    2
    10   102   101    1
    11   102   103    1
    12   102   105    1
    13   161   162    1
    14   103   104    2
    15   156   155    1
    16   156   159    1
    17   163   164    2
    18   163   162    1
    19   105   106    1
    20   162   165    1
    21    24    22   am
    22    23    22    2
    23    96    95    2
    24    95    94    1
    25    22    21    1
    26   159   160    1
    27   167   169   ar
    28   167   166   ar
    29    41    39   ar
    30    41    42   ar
    31   169   171   ar
    32   165   166    1
    33   150   149    2
    34    43    42    1
    35    16    15    2
    36    94    93    1
    37    94    97    1
    38    99    98    2
    39    39    37   ar
    40   166   168   ar
    41    21    20    1
    42    42    40   ar
    43    15    14    1
    44    19    17    1
    45   171   172    1
    46   171   170   ar
    47    98    97    1
    48    98   100   am
    49   149   148    1
    50   168   170   ar
    51    32    33    1
    52    37    36    1
    53    37    38   ar
    54   146   145    1
    55    40    38   ar
    56    36    33    1
    57   148   151    1
    58   148   147    1
    59   138   137    2
    60    17    14    1
    61    17    18    1
    62    14    13    1
    63   151   152    1
    64   107   108    1
    65   145   143   ar
    66   145   144   ar
    67   153   152   ar
    68   143   141   ar
    69    33    34    1
    70   152   154   ar
    71   144   142   ar
    72   137   147   am
    73   137   136    1
    74   111   108    1
    75   111   112    1
    76   111   113    1
    77   141   140   ar
    78    87    86    2
    79   108   109    1
    80    34    35    2
    81   142   140   ar
    82   140   139    1
    83    92    90   ar
    84   183   181    1
    85    86    85    1
    86    69    67   ar
    87    69    68   ar
    88    67    65   ar
    89   136   139    1
    90   136   135    1
    91   109   110    2
    92    53    54   ar
    93    53    51   ar
    94    55    54    1
    95   121   119    1
    96    89    90    1
    97    89    88    1
    98    90    91   ar
    99    68    66   ar
   100     4     3    2
   101   118   120    1
   102   118   119    1
   103   118   115    1
   104    54    52   ar
   105    51    49   ar
   106   181   182    1
   107   181   180    2
   108    65    64   ar
   109    65    63   ar
   110   114   115    1
   111    85    88    1
   112    85    84    1
   113    64    62   ar
   114     3     2    1
   115   115   116    1
   116    66    63   ar
   117   180   179    1
   118    82    81    2
   119    63    61   ar
   120    52    50   ar
   121    49    50   ar
   122    49    48    1
   123    62    61   ar
   124    61    60    1
   125    48    45    1
   126    81    80    1
   127     2     5    1
   128     2     1    1
   129   116   122   am
   130   116   117    2
   131   122   123    1
   132    44    45    1
   133   179   178    1
   134    45    46    1
   135   133   132    2
   136     5     6    1
   137   177   178    1
   138   177   174    1
   139    80    83    1
   140    80    79    1
   141   173   174    1
   142    60    57    1
   143   132   134   am
   144   132   131    1
   145   123   124    1
   146   174   175    1
   147    46    47    2
   148     6     8   ar
   149     6     7   ar
   150     8    10   ar
   151   131   130    1
   152   124   125    2
   153    57    56    1
   154    57    58    1
   155     7     9   ar
   156   175   176    2
   157    10    11   ar
   158   126   127    1
   159    59    58    2
   160   130   127    1
   161    78    76   ar
   162     9    11   ar
   163    11    12    1
   164   127   128    1
   165    73    72    2
   166    76    75    1
   167    76    77   ar
   168    75    74    1
   169    72    71    1
   170   128   129    2
   171    71    74    1
   172    71    70    1
