@<TRIPOS>MOLECULE
tmp/5edqA00.pdb
 151 138 0 0 0
SMALL
GASTEIGER

@<TRIPOS>ATOM
      1  N        -47.9610    4.5490  -20.1640 N.3    22  LEU22      -0.1231
      2  CA       -48.7940    3.4580  -19.6400 C.3    22  LEU22       0.1693
      3  C        -48.0540    2.1170  -19.7170 C.2    22  LEU22       0.2592
      4  O        -48.2570    1.2570  -18.8600 O.2    22  LEU22      -0.2718
      5  CB       -50.1480    3.3480  -20.3700 C.3    22  LEU22       0.0284
      6  CG       -51.1560    4.4720  -20.1620 C.3    22  LEU22       0.0019
      7  CD1      -52.2190    4.4480  -21.2470 C.3    22  LEU22       0.0001
      8  CD2      -51.8030    4.3980  -18.7960 C.3    22  LEU22       0.0001
      9  N        -47.2220    1.9570  -20.7480 N.am   23  GLY23      -0.1957
     10  CA       -46.4370    0.7510  -20.9800 C.3    23  GLY23       0.1869
     11  C        -45.4300    0.8920  -22.1020 C.2    23  GLY23       0.2309
     12  O        -45.6720    1.6140  -23.0740 O.2    23  GLY23      -0.2863
     13  N        -43.3570   -3.4580  -29.1570 N.3    27  PHE27      -0.1241
     14  CA       -44.2280   -2.6510  -30.0270 C.3    27  PHE27       0.1605
     15  C        -43.8470   -1.1570  -30.0420 C.2    27  PHE27       0.2264
     16  O        -44.1450   -0.4550  -31.0130 O.2    27  PHE27      -0.2867
     17  CB       -45.7030   -2.7970  -29.5980 C.3    27  PHE27       0.0534
     18  CG       -45.9630   -2.5510  -28.1270 C.ar   27  PHE27      -0.0203
     19  CD1      -46.1830   -1.2640  -27.6460 C.ar   27  PHE27      -0.0042
     20  CD2      -45.9950   -3.6080  -27.2220 C.ar   27  PHE27      -0.0042
     21  CE1      -46.3940   -1.0360  -26.2840 C.ar   27  PHE27      -0.0003
     22  CE2      -46.2210   -3.3790  -25.8610 C.ar   27  PHE27      -0.0003
     23  CZ       -46.4220   -2.0960  -25.4020 C.ar   27  PHE27      -0.0000
     24  N        -46.6340    3.2220  -25.2740 N.3    30  VAL30      -0.1245
     25  CA       -48.0300    3.6480  -25.1770 C.3    30  VAL30       0.1561
     26  C        -48.1370    4.6950  -24.0600 C.2    30  VAL30       0.2260
     27  O        -47.6950    4.4530  -22.9310 O.2    30  VAL30      -0.2867
     28  CB       -49.0060    2.4490  -24.9910 C.3    30  VAL30       0.0252
     29  CG1      -50.4330    2.9200  -24.7360 C.3    30  VAL30       0.0019
     30  CG2      -48.9680    1.5170  -26.1960 C.3    30  VAL30       0.0019
     31  N        -55.1560    7.3000  -25.6320 N.3    47  ALA47      -0.1245
     32  CA       -53.9520    6.4910  -25.5180 C.3    47  ALA47       0.1562
     33  C        -53.2250    6.6610  -26.8470 C.2    47  ALA47       0.2260
     34  O        -53.8390    6.5100  -27.9050 O.2    47  ALA47      -0.2867
     35  CB       -54.2910    5.0420  -25.2830 C.3    47  ALA47       0.0290
     36  N        -49.9600    5.5820  -29.2280 N.3    49  LYS49      -0.1245
     37  CA       -48.9360    4.5680  -29.4970 C.3    49  LYS49       0.1561
     38  C        -47.9310    5.0840  -30.5350 C.2    49  LYS49       0.2260
     39  O        -48.3370    5.6780  -31.5310 O.2    49  LYS49      -0.2867
     40  CB       -49.5770    3.2550  -29.9750 C.3    49  LYS49       0.0271
     41  CG       -48.6290    2.0610  -29.9400 C.3    49  LYS49       0.0035
     42  CD       -49.3430    0.7340  -30.1070 C.3    49  LYS49       0.0206
     43  CE       -49.2460    0.1890  -31.5060 C.3    49  LYS49       0.1093
     44  NZ       -49.4760   -1.2800  -31.5280 N.3    49  LYS49      -0.1314
     45  N        -52.4010   -1.6700  -38.9070 N.3    66  GLU66      -0.1245
     46  CA       -53.1970   -1.6980  -37.6830 C.3    66  GLU66       0.1567
     47  C        -54.2290   -0.5760  -37.7410 C.2    66  GLU66       0.2260
     48  O        -55.3900   -0.8130  -37.4060 O.2    66  GLU66      -0.2867
     49  CB       -52.3030   -1.5430  -36.4500 C.3    66  GLU66       0.0388
     50  CG       -53.0590   -1.6740  -35.1390 C.3    66  GLU66       0.1160
     51  CD       -52.2510   -1.4740  -33.8730 C.2    66  GLU66       0.3649
     52  OE1      -51.0420   -1.1600  -33.9690 O.co2  66  GLU66      -0.2457
     53  OE2      -52.8340   -1.6460  -32.7790 O.co2  66  GLU66      -0.2457
     54  N        -58.2620   -1.0630  -37.3900 N.3    70  MET70      -0.1245
     55  CA       -58.8510   -0.3350  -36.2700 C.3    70  MET70       0.1570
     56  C        -59.8620    0.7360  -36.6910 C.2    70  MET70       0.2261
     57  O        -60.8730    0.9150  -36.0120 O.2    70  MET70      -0.2867
     58  CB       -57.7540    0.2510  -35.3940 C.3    70  MET70       0.0387
     59  CG       -58.0250    0.1040  -33.9310 C.3    70  MET70       0.0595
     60  SD       -56.5040   -0.3270  -33.0710 S.3    70  MET70      -0.1393
     61  CE       -56.6250   -2.1730  -33.0800 C.3    70  MET70       0.0692
     62  N        -59.9760    3.0380  -33.6080 N.3    81  LEU81      -0.1245
     63  CA       -58.9600    4.0540  -33.8240 C.3    81  LEU81       0.1561
     64  C        -59.6670    5.4030  -33.8640 C.2    81  LEU81       0.2260
     65  O        -60.6980    5.5370  -34.5390 O.2    81  LEU81      -0.2867
     66  CB       -58.2440    3.8040  -35.1660 C.3    81  LEU81       0.0270
     67  CG       -56.9790    4.6380  -35.4360 C.3    81  LEU81       0.0019
     68  CD1      -55.7260    3.9000  -34.9790 C.3    81  LEU81       0.0001
     69  CD2      -56.8590    4.9720  -36.9050 C.3    81  LEU81       0.0001
     70  N        -50.4330    6.3310  -33.3550 N.3    92  LEU92      -0.1245
     71  CA       -51.8060    5.8250  -33.3150 C.3    92  LEU92       0.1561
     72  C        -52.5450    6.3750  -32.0980 C.2    92  LEU92       0.2260
     73  O        -52.0620    6.2530  -30.9730 O.2    92  LEU92      -0.2867
     74  CB       -51.8430    4.2850  -33.3050 C.3    92  LEU92       0.0270
     75  CG       -51.2500    3.5290  -34.4960 C.3    92  LEU92       0.0019
     76  CD1      -51.4470    2.0560  -34.3270 C.3    92  LEU92       0.0001
     77  CD2      -51.8940    3.9400  -35.8040 C.3    92  LEU92       0.0001
     78  N        -56.1330    6.3840  -29.9260 N.3    94  MET94      -0.1230
     79  CA       -57.3450    5.6490  -29.6120 C.3    94  MET94       0.1702
     80  C        -57.8550    6.0570  -28.2390 C.2    94  MET94       0.2592
     81  O        -57.1020    6.6250  -27.4560 O.2    94  MET94      -0.2718
     82  CB       -57.1460    4.1300  -29.7630 C.3    94  MET94       0.0401
     83  CG       -56.5000    3.4540  -28.5880 C.3    94  MET94       0.0596
     84  SD       -56.7890    1.6700  -28.6170 S.3    94  MET94      -0.1393
     85  CE       -58.3280    1.5930  -27.7660 C.3    94  MET94       0.0692
     86  N        -59.1350    5.7910  -27.9660 N.am   95  GLN95      -0.1966
     87  CA       -59.8200    6.0710  -26.7010 C.3    95  GLN95       0.1733
     88  C        -59.0470    5.4790  -25.5110 C.2    95  GLN95       0.2616
     89  O        -58.5560    4.3490  -25.6040 O.2    95  GLN95      -0.2715
     90  CB       -61.2380    5.4680  -26.7730 C.3    95  GLN95       0.0408
     91  CG       -61.9900    5.3420  -25.4520 C.3    95  GLN95       0.0908
     92  CD       -63.2060    4.4620  -25.5610 C.2    95  GLN95       0.2608
     93  OE1      -63.2610    3.5050  -26.3430 O.2    95  GLN95      -0.2717
     94  NE2      -64.1980    4.7460  -24.7370 N.am   95  GLN95      -0.0878
     95  N        -58.9420    6.2450  -24.4020 N.am   96  LEU96      -0.1963
     96  CA       -58.3000    5.7730  -23.1790 C.3    96  LEU96       0.1728
     97  C        -59.2460    4.8140  -22.4760 C.2    96  LEU96       0.2616
     98  O        -60.4470    5.0780  -22.3540 O.2    96  LEU96      -0.2715
     99  CB       -57.9150    6.9350  -22.2430 C.3    96  LEU96       0.0311
    100  CG       -57.1140    6.5900  -20.9730 C.3    96  LEU96       0.0022
    101  CD1      -55.6710    6.2400  -21.3000 C.3    96  LEU96       0.0001
    102  CD2      -57.1360    7.7400  -19.9880 C.3    96  LEU96       0.0001
    103  N        -58.6820    3.6790  -22.0580 N.am   97  MET97      -0.1977
    104  CA       -59.3090    2.5900  -21.3140 C.3    97  MET97       0.1605
    105  C        -58.5520    2.6370  -19.9710 C.2    97  MET97       0.2287
    106  O        -57.4530    2.0780  -19.8450 O.2    97  MET97      -0.2864
    107  CB       -59.1260    1.2680  -22.0800 C.3    97  MET97       0.0413
    108  CG       -59.6470    1.3300  -23.5220 C.3    97  MET97       0.0598
    109  SD       -61.4550    1.4530  -23.6650 S.3    97  MET97      -0.1393
    110  CE       -61.9000   -0.2770  -23.4880 C.3    97  MET97       0.0692
    111  N        -56.8760   -0.4560  -17.8620 N.3   100  GLY100     -0.1210
    112  CA       -55.9020   -1.2960  -18.5550 C.3   100  GLY100      0.1956
    113  C        -56.4850   -2.5490  -19.1650 C.2   100  GLY100      0.2612
    114  O        -57.6760   -2.5830  -19.4830 O.2   100  GLY100     -0.2717
    115  N        -55.6520   -3.5870  -19.3480 N.am  101  CYS101     -0.1970
    116  CA       -56.1380   -4.8480  -19.9060 C.3   101  CYS101      0.1712
    117  C        -56.7760   -5.7020  -18.8250 C.2   101  CYS101      0.2296
    118  O        -56.4180   -5.5850  -17.6430 O.2   101  CYS101     -0.2864
    119  CB       -55.0580   -5.6010  -20.6780 C.3   101  CYS101      0.0983
    120  SG       -53.8570   -6.4720  -19.6390 S.3   101  CYS101     -0.0798
    121  N        -54.5400   -8.1030  -16.4120 N.3   104  ASP104     -0.1239
    122  CA       -53.9300   -7.4060  -15.2790 C.3   104  ASP104      0.1674
    123  C        -54.9880   -6.9990  -14.2740 C.2   104  ASP104      0.2266
    124  O        -54.7180   -7.0250  -13.0780 O.2   104  ASP104     -0.2867
    125  CB       -53.1560   -6.1640  -15.7390 C.3   104  ASP104      0.1410
    126  CG       -51.9380   -6.4490  -16.5860 C.2   104  ASP104      0.3668
    127  OD1      -51.3660   -7.5550  -16.4540 O.co2 104  ASP104     -0.2456
    128  OD2      -51.5280   -5.5490  -17.3490 O.co2 104  ASP104     -0.2456
    129  N        -59.3880   -4.6960  -23.3950 N.3   148  LEU148     -0.1245
    130  CA       -59.1730   -3.4900  -22.5910 C.3   148  LEU148      0.1561
    131  C        -60.4170   -3.1430  -21.7620 C.2   148  LEU148      0.2260
    132  O        -61.5360   -3.4840  -22.1520 O.2   148  LEU148     -0.2867
    133  CB       -58.6990   -2.3010  -23.4440 C.3   148  LEU148      0.0270
    134  CG       -57.3500   -2.4540  -24.1650 C.3   148  LEU148      0.0019
    135  CD1      -57.1750   -1.3880  -25.2030 C.3   148  LEU148      0.0001
    136  CD2      -56.1750   -2.4240  -23.1970 C.3   148  LEU148      0.0001
    137  N        -59.4440   -5.8310  -28.3430 N.3   158  THR158     -0.1203
    138  CA       -58.3820   -5.1260  -29.0680 C.3   158  THR158      0.1994
    139  C        -57.3910   -6.1350  -29.6860 C.2   158  THR158      0.2617
    140  O        -57.5560   -7.3430  -29.4940 O.2   158  THR158     -0.2717
    141  CB       -57.7010   -4.0950  -28.1480 C.3   158  THR158      0.1784
    142  OG1      -56.9140   -3.2230  -28.9500 O.3   158  THR158     -0.2211
    143  CG2      -56.8150   -4.7380  -27.0840 C.3   158  THR158      0.0376
    144  N        -56.3650   -5.6290  -30.4160 N.am  159  ASP159     -0.1973
    145  CA       -55.2790   -6.3820  -31.0520 C.3   159  ASP159      0.1709
    146  C        -55.7520   -7.4380  -32.0810 C.2   159  ASP159      0.2293
    147  O        -55.1090   -8.4770  -32.2710 O.2   159  ASP159     -0.2864
    148  CB       -54.3620   -7.0000  -29.9850 C.3   159  ASP159      0.1436
    149  CG       -52.8850   -6.9830  -30.2980 C.2   159  ASP159      0.3671
    150  OD1      -52.5180   -7.2900  -31.4490 O.co2 159  ASP159     -0.2456
    151  OD2      -52.0880   -6.7630  -29.3640 O.co2 159  ASP159     -0.2456
@<TRIPOS>BOND
     1    45    46    1
     2    47    46    1
     3    47    48    2
     4    46    49    1
     5    54    55    1
     6    69    67    1
     7    56    55    1
     8    56    57    2
     9    49    50    1
    10    55    58    1
    11    77    75    1
    12    67    66    1
    13    67    68    1
    14    58    59    1
    15    66    63    1
    16    50    51    1
    17    65    64    2
    18    75    76    1
    19    75    74    1
    20    52    51   ar
    21    59    60    1
    22    51    53   ar
    23    64    63    1
    24    63    62    1
    25    70    71    1
    26    71    74    1
    27    71    72    1
    28    61    60    1
    29   147   146    2
    30    72    73    2
    31   146   145    1
    32    39    38    2
    33    44    43    1
    34    43    42    1
    35   150   149   ar
    36   145   144    1
    37   145   148    1
    38    16    15    2
    39    38    37    1
    40   144   139   am
    41   149   148    1
    42   149   151   ar
    43    42    41    1
    44    15    14    1
    45    14    17    1
    46    14    13    1
    47    40    41    1
    48    40    37    1
    49    78    79    1
    50    82    79    1
    51    82    83    1
    52   139   140    2
    53   139   138    1
    54    79    80    1
    55    17    18    1
    56    37    36    1
    57   138   137    1
    58   138   141    1
    59   142   141    1
    60    84    83    1
    61    84    85    1
    62    80    86   am
    63    80    81    2
    64   141   143    1
    65    18    19   ar
    66    18    20   ar
    67    86    87    1
    68    34    33    2
    69    19    21   ar
    70    20    22   ar
    71    33    32    1
    72    90    87    1
    73    90    91    1
    74    87    88    1
    75    93    92    2
    76    21    23   ar
    77    30    28    1
    78    22    23   ar
    79    31    32    1
    80    89    88    2
    81    92    91    1
    82    92    94   am
    83    32    35    1
    84    88    95   am
    85    24    25    1
    86   135   134    1
    87    25    28    1
    88    25    26    1
    89    28    29    1
    90    95    96    1
    91   134   133    1
    92   134   136    1
    93    26    27    2
    94   109   108    1
    95   109   110    1
    96   108   107    1
    97   133   130    1
    98   129   130    1
    99    96    97    1
   100    96    99    1
   101    12    11    2
   102   130   131    1
   103    97    98    2
   104    97   103   am
   105    99   100    1
   106   132   131    2
   107    11    10    1
   108   107   104    1
   109   103   104    1
   110   104   105    1
   111   101   100    1
   112     7     6    1
   113    10     9    1
   114   100   102    1
   115     9     3   am
   116   119   116    1
   117   119   120    1
   118     5     6    1
   119     5     2    1
   120     1     2    1
   121     6     8    1
   122   105   106    2
   123   116   115    1
   124   116   117    1
   125     3     2    1
   126     3     4    2
   127   114   113    2
   128   115   113   am
   129   113   112    1
   130   117   118    2
   131   112   111    1
   132   128   126   ar
   133   126   127   ar
   134   126   125    1
   135   121   122    1
   136   125   122    1
   137   122   123    1
   138   123   124    2
