@<TRIPOS>MOLECULE
tmp/5edrA00.pdb
 151 138 0 0 0
SMALL
GASTEIGER

@<TRIPOS>ATOM
      1  N        -47.9110    4.7750  -19.8830 N.3    22  LEU22      -0.1231
      2  CA       -48.6720    3.6070  -19.3960 C.3    22  LEU22       0.1693
      3  C        -47.8760    2.2950  -19.5550 C.2    22  LEU22       0.2592
      4  O        -48.0200    1.3780  -18.7360 O.2    22  LEU22      -0.2718
      5  CB       -50.0490    3.4700  -20.0790 C.3    22  LEU22       0.0284
      6  CG       -51.0730    4.5700  -19.8410 C.3    22  LEU22       0.0019
      7  CD1      -52.1320    4.5580  -20.9220 C.3    22  LEU22       0.0001
      8  CD2      -51.7240    4.4420  -18.4800 C.3    22  LEU22       0.0001
      9  N        -47.0570    2.2250  -20.6060 N.am   23  GLY23      -0.1957
     10  CA       -46.2200    1.0700  -20.9090 C.3    23  GLY23       0.1869
     11  C        -45.1340    1.3630  -21.9190 C.2    23  GLY23       0.2309
     12  O        -45.1690    2.4040  -22.5820 O.2    23  GLY23      -0.2863
     13  N        -42.9810   -2.7690  -29.1170 N.3    27  PHE27      -0.1241
     14  CA       -43.9450   -1.9940  -29.9190 C.3    27  PHE27       0.1605
     15  C        -43.6270   -0.4840  -29.9160 C.2    27  PHE27       0.2264
     16  O        -44.0390    0.2400  -30.8330 O.2    27  PHE27      -0.2867
     17  CB       -45.3890   -2.2290  -29.4130 C.3    27  PHE27       0.0534
     18  CG       -45.5950   -1.9980  -27.9280 C.ar   27  PHE27      -0.0203
     19  CD1      -45.8590   -0.7240  -27.4330 C.ar   27  PHE27      -0.0042
     20  CD2      -45.5350   -3.0560  -27.0270 C.ar   27  PHE27      -0.0042
     21  CE1      -46.0240   -0.5090  -26.0610 C.ar   27  PHE27      -0.0003
     22  CE2      -45.7090   -2.8390  -25.6560 C.ar   27  PHE27      -0.0003
     23  CZ       -45.9610   -1.5690  -25.1840 C.ar   27  PHE27      -0.0000
     24  N        -46.5570    3.5340  -25.0370 N.3    30  VAL30      -0.1245
     25  CA       -47.9600    3.9480  -24.9190 C.3    30  VAL30       0.1561
     26  C        -48.0740    5.0080  -23.7970 C.2    30  VAL30       0.2260
     27  O        -47.6270    4.7760  -22.6640 O.2    30  VAL30      -0.2867
     28  CB       -48.9200    2.7340  -24.6860 C.3    30  VAL30       0.0252
     29  CG1      -50.3640    3.1850  -24.4770 C.3    30  VAL30       0.0019
     30  CG2      -48.8410    1.7270  -25.8300 C.3    30  VAL30       0.0019
     31  N        -55.1830    7.2330  -25.3690 N.3    47  ALA47      -0.1245
     32  CA       -53.9390    6.4690  -25.2700 C.3    47  ALA47       0.1562
     33  C        -53.2080    6.7570  -26.5890 C.2    47  ALA47       0.2260
     34  O        -53.8420    6.7610  -27.6510 O.2    47  ALA47      -0.2867
     35  CB       -54.2090    4.9890  -25.1260 C.3    47  ALA47       0.0290
     36  N        -49.8370    5.7590  -28.9520 N.3    49  LYS49      -0.1245
     37  CA       -48.7440    4.8110  -29.2320 C.3    49  LYS49       0.1561
     38  C        -47.7190    5.4600  -30.1740 C.2    49  LYS49       0.2260
     39  O        -48.0570    5.7320  -31.3270 O.2    49  LYS49      -0.2867
     40  CB       -49.3050    3.5220  -29.8700 C.3    49  LYS49       0.0271
     41  CG       -48.2980    2.4020  -30.1050 C.3    49  LYS49       0.0035
     42  CD       -48.9440    1.2300  -30.8510 C.3    49  LYS49       0.0206
     43  CE       -47.9940    0.0660  -31.0030 C.3    49  LYS49       0.1093
     44  NZ       -48.6700   -1.1360  -31.5510 N.3    49  LYS49      -0.1314
     45  N        -51.8670   -1.5560  -38.8030 N.3    64  GLU64      -0.1245
     46  CA       -52.5660   -1.5610  -37.5230 C.3    64  GLU64       0.1567
     47  C        -53.6740   -0.5060  -37.5570 C.2    64  GLU64       0.2260
     48  O        -54.8120   -0.8280  -37.2260 O.2    64  GLU64      -0.2867
     49  CB       -51.5700   -1.2690  -36.3950 C.3    64  GLU64       0.0388
     50  CG       -52.0800   -1.5180  -34.9850 C.3    64  GLU64       0.1160
     51  CD       -51.0430   -1.2860  -33.9020 C.2    64  GLU64       0.3649
     52  OE1      -49.8320   -1.4730  -34.1660 O.co2  64  GLU64      -0.2457
     53  OE2      -51.4460   -0.8910  -32.7860 O.co2  64  GLU64      -0.2457
     54  N        -57.8190   -1.0560  -37.1790 N.3    68  MET68      -0.1245
     55  CA       -58.4490   -0.3320  -36.0810 C.3    68  MET68       0.1570
     56  C        -59.4760    0.6870  -36.5310 C.2    68  MET68       0.2261
     57  O        -60.4930    0.8380  -35.8670 O.2    68  MET68      -0.2867
     58  CB       -57.3960    0.3210  -35.1960 C.3    68  MET68       0.0387
     59  CG       -56.8070   -0.6200  -34.2160 C.3    68  MET68       0.0595
     60  SD       -55.4330    0.1370  -33.3410 S.3    68  MET68      -0.1393
     61  CE       -54.8260   -1.4000  -32.3340 C.3    68  MET68       0.0692
     62  N        -59.7510    3.1120  -33.4890 N.3    79  LEU79      -0.1245
     63  CA       -58.7740    4.1490  -33.6250 C.3    79  LEU79       0.1561
     64  C        -59.5460    5.4460  -33.6630 C.2    79  LEU79       0.2260
     65  O        -60.6350    5.5020  -34.2550 O.2    79  LEU79      -0.2867
     66  CB       -58.0150    3.9400  -34.9520 C.3    79  LEU79       0.0270
     67  CG       -56.7600    4.8040  -35.1940 C.3    79  LEU79       0.0019
     68  CD1      -55.5880    4.3360  -34.3470 C.3    79  LEU79       0.0001
     69  CD2      -56.3770    4.7950  -36.6400 C.3    79  LEU79       0.0001
     70  N        -50.3390    6.4470  -33.2190 N.3    90  LEU90      -0.1245
     71  CA       -51.7380    6.0100  -33.2200 C.3    90  LEU90       0.1561
     72  C        -52.4330    6.5490  -31.9570 C.2    90  LEU90       0.2260
     73  O        -51.8800    6.4540  -30.8530 O.2    90  LEU90      -0.2867
     74  CB       -51.9050    4.4830  -33.2940 C.3    90  LEU90       0.0270
     75  CG       -51.1900    3.6780  -34.3790 C.3    90  LEU90       0.0019
     76  CD1      -51.4990    2.1980  -34.2350 C.3    90  LEU90       0.0001
     77  CD2      -51.5810    4.1170  -35.7730 C.3    90  LEU90       0.0001
     78  N        -55.9860    6.4920  -29.7360 N.3    92  MET92      -0.1230
     79  CA       -57.0780    5.6240  -29.3430 C.3    92  MET92       0.1702
     80  C        -57.7440    6.2000  -28.1150 C.2    92  MET92       0.2592
     81  O        -57.1090    6.9100  -27.3590 O.2    92  MET92      -0.2718
     82  CB       -56.4230    4.2950  -28.9720 C.3    92  MET92       0.0401
     83  CG       -57.3480    3.1510  -28.8600 C.3    92  MET92       0.0596
     84  SD       -56.3480    1.6730  -28.6880 S.3    92  MET92      -0.1393
     85  CE       -56.0830    1.3390  -30.3620 C.3    92  MET92       0.0692
     86  N        -59.0080    5.8720  -27.9010 N.am   93  GLN93      -0.1966
     87  CA       -59.7720    6.2300  -26.7040 C.3    93  GLN93       0.1733
     88  C        -59.0800    5.5460  -25.5200 C.2    93  GLN93       0.2616
     89  O        -58.7290    4.3680  -25.6240 O.2    93  GLN93      -0.2715
     90  CB       -61.2170    5.6950  -26.8480 C.3    93  GLN93       0.0408
     91  CG       -61.9870    5.4720  -25.5450 C.3    93  GLN93       0.0908
     92  CD       -63.2320    4.6470  -25.7310 C.2    93  GLN93       0.2608
     93  OE1      -63.3000    3.7260  -26.5530 O.2    93  GLN93      -0.2717
     94  NE2      -64.2330    4.9350  -24.9290 N.am   93  GLN93      -0.0878
     95  N        -58.8820    6.2830  -24.4070 N.am   94  LEU94      -0.1963
     96  CA       -58.2800    5.7400  -23.1860 C.3    94  LEU94       0.1728
     97  C        -59.2230    4.7240  -22.5600 C.2    94  LEU94       0.2616
     98  O        -60.4320    4.9560  -22.4810 O.2    94  LEU94      -0.2715
     99  CB       -57.9570    6.8620  -22.1820 C.3    94  LEU94       0.0311
    100  CG       -57.1150    6.4900  -20.9540 C.3    94  LEU94       0.0022
    101  CD1      -55.6740    6.1370  -21.3470 C.3    94  LEU94       0.0001
    102  CD2      -57.0660    7.6340  -19.9740 C.3    94  LEU94       0.0001
    103  N        -58.6590    3.5700  -22.1590 N.am   95  MET95      -0.1977
    104  CA       -59.3300    2.4670  -21.4630 C.3    95  MET95       0.1605
    105  C        -58.6440    2.5470  -20.1140 C.2    95  MET95       0.2287
    106  O        -57.5350    2.0150  -19.9460 O.2    95  MET95      -0.2864
    107  CB       -59.0700    1.1590  -22.2060 C.3    95  MET95       0.0413
    108  CG       -59.5990    1.1880  -23.6430 C.3    95  MET95       0.0598
    109  SD       -61.3940    1.3770  -23.6950 S.3    95  MET95      -0.1393
    110  CE       -61.8860   -0.3230  -23.4170 C.3    95  MET95       0.0692
    111  N        -57.0190   -0.4150  -17.7710 N.3    98  GLY98      -0.1210
    112  CA       -55.9850   -1.2470  -18.3900 C.3    98  GLY98       0.1956
    113  C        -56.5160   -2.5150  -19.0180 C.2    98  GLY98       0.2612
    114  O        -57.6760   -2.5570  -19.4390 O.2    98  GLY98      -0.2717
    115  N        -55.6840   -3.5640  -19.0850 N.am   99  CYS99      -0.1970
    116  CA       -56.1660   -4.8090  -19.6680 C.3    99  CYS99       0.1712
    117  C        -56.8100   -5.7230  -18.6390 C.2    99  CYS99       0.2296
    118  O        -56.4480   -5.7040  -17.4550 O.2    99  CYS99      -0.2864
    119  CB       -55.0980   -5.5240  -20.4840 C.3    99  CYS99       0.0983
    120  SG       -53.9150   -6.4600  -19.4950 S.3    99  CYS99      -0.0798
    121  N        -54.6070   -8.1020  -16.1430 N.3   102  ASP102     -0.1239
    122  CA       -54.0910   -7.4650  -14.9300 C.3   102  ASP102      0.1674
    123  C        -55.2070   -7.0210  -14.0040 C.2   102  ASP102      0.2266
    124  O        -55.0030   -7.0020  -12.7960 O.2   102  ASP102     -0.2867
    125  CB       -53.1760   -6.2780  -15.2490 C.3   102  ASP102      0.1410
    126  CG       -52.0450   -6.5670  -16.2090 C.2   102  ASP102      0.3668
    127  OD1      -51.4300   -7.6520  -16.0960 O.co2 102  ASP102     -0.2456
    128  OD2      -51.7390   -5.6880  -17.0380 O.co2 102  ASP102     -0.2456
    129  N        -59.3890   -4.7720  -23.2690 N.3   146  LEU146     -0.1245
    130  CA       -59.1940   -3.5790  -22.4490 C.3   146  LEU146      0.1561
    131  C        -60.4470   -3.2220  -21.6310 C.2   146  LEU146      0.2260
    132  O        -61.5760   -3.5830  -21.9970 O.2   146  LEU146     -0.2867
    133  CB       -58.6630   -2.3910  -23.2530 C.3   146  LEU146      0.0270
    134  CG       -57.3120   -2.5900  -23.9840 C.3   146  LEU146      0.0019
    135  CD1      -57.0240   -1.4320  -24.8850 C.3   146  LEU146      0.0001
    136  CD2      -56.1510   -2.8380  -23.0280 C.3   146  LEU146      0.0001
    137  N        -59.1720   -5.7700  -28.2880 N.3   156  THR156     -0.1203
    138  CA       -58.1170   -5.0590  -29.0020 C.3   156  THR156      0.1994
    139  C        -57.1200   -6.0750  -29.5780 C.2   156  THR156      0.2617
    140  O        -57.3470   -7.2730  -29.4330 O.2   156  THR156     -0.2717
    141  CB       -57.5000   -4.0220  -28.0610 C.3   156  THR156      0.1784
    142  OG1      -56.7920   -3.0540  -28.8280 O.3   156  THR156     -0.2211
    143  CG2      -56.6070   -4.6510  -26.9980 C.3   156  THR156      0.0376
    144  N        -56.0300   -5.5950  -30.2240 N.am  157  ASP157     -0.1973
    145  CA       -54.9270   -6.3470  -30.8460 C.3   157  ASP157      0.1709
    146  C        -55.3930   -7.3910  -31.8870 C.2   157  ASP157      0.2293
    147  O        -54.7510   -8.4300  -32.0840 O.2   157  ASP157     -0.2864
    148  CB       -53.9930   -6.9670  -29.7910 C.3   157  ASP157      0.1436
    149  CG       -52.5670   -7.1390  -30.2630 C.2   157  ASP157      0.3671
    150  OD1      -51.9430   -6.1260  -30.6380 O.co2 157  ASP157     -0.2456
    151  OD2      -52.0700   -8.2950  -30.2610 O.co2 157  ASP157     -0.2456
@<TRIPOS>BOND
     1    45    46    1
     2    47    46    1
     3    47    48    2
     4    46    49    1
     5    54    55    1
     6    69    67    1
     7    56    55    1
     8    56    57    2
     9    49    50    1
    10    55    58    1
    11    77    75    1
    12    58    59    1
    13    67    66    1
    14    67    68    1
    15    50    51    1
    16    66    63    1
    17    75    76    1
    18    75    74    1
    19    65    64    2
    20    59    60    1
    21    52    51   ar
    22    51    53   ar
    23    64    63    1
    24    63    62    1
    25    60    61    1
    26    74    71    1
    27    71    70    1
    28    71    72    1
    29   147   146    2
    30    72    73    2
    31   146   145    1
    32    44    43    1
    33    39    38    2
    34    43    42    1
    35    42    41    1
    36   145   144    1
    37   145   148    1
    38    16    15    2
    39   150   149   ar
    40    85    84    1
    41   149   151   ar
    42   149   148    1
    43   144   139   am
    44    38    37    1
    45    41    40    1
    46    14    15    1
    47    14    17    1
    48    14    13    1
    49    40    37    1
    50    78    79    1
    51   139   140    2
    52   139   138    1
    53    17    18    1
    54    79    82    1
    55    79    80    1
    56    37    36    1
    57   138   137    1
    58   138   141    1
    59    82    83    1
    60    83    84    1
    61   142   141    1
    62    80    86   am
    63    80    81    2
    64   141   143    1
    65    18    19   ar
    66    18    20   ar
    67    86    87    1
    68    34    33    2
    69    19    21   ar
    70    20    22   ar
    71    90    87    1
    72    90    91    1
    73    87    88    1
    74    33    32    1
    75    93    92    2
    76    21    23   ar
    77    30    28    1
    78    92    91    1
    79    92    94   am
    80    22    23   ar
    81    89    88    2
    82    88    95   am
    83    31    32    1
    84    32    35    1
    85    24    25    1
    86    25    28    1
    87    25    26    1
    88   135   134    1
    89    28    29    1
    90    95    96    1
    91   134   133    1
    92   134   136    1
    93    26    27    2
    94   109   108    1
    95   109   110    1
    96   108   107    1
    97   129   130    1
    98   133   130    1
    99    96    97    1
   100    96    99    1
   101    12    11    2
   102    97    98    2
   103    97   103   am
   104   130   131    1
   105   107   104    1
   106    99   100    1
   107   103   104    1
   108   132   131    2
   109    11    10    1
   110   104   105    1
   111   101   100    1
   112   100   102    1
   113     7     6    1
   114    10     9    1
   115     9     3   am
   116   119   116    1
   117   119   120    1
   118   105   106    2
   119     5     6    1
   120     5     2    1
   121     1     2    1
   122     6     8    1
   123   116   115    1
   124   116   117    1
   125     3     2    1
   126     3     4    2
   127   114   113    2
   128   115   113   am
   129   113   112    1
   130   117   118    2
   131   112   111    1
   132   128   126   ar
   133   126   127   ar
   134   126   125    1
   135   121   122    1
   136   125   122    1
   137   122   123    1
   138   123   124    2
