@<TRIPOS>MOLECULE
tmp/5edsA00.pdb
 173 166 0 0 0
SMALL
GASTEIGER

@<TRIPOS>ATOM
      1  N         14.3270   13.6450   12.3170 N.3   552  LYS552     -0.1231
      2  CA        14.9260   14.9180   11.9100 C.3   552  LYS552      0.1693
      3  C         16.4560   14.8860   11.8400 C.2   552  LYS552      0.2592
      4  O         17.0790   13.8950   12.1760 O.2   552  LYS552     -0.2718
      5  CB        14.4590   16.0590   12.8330 C.3   552  LYS552      0.0285
      6  CG        14.0070   15.6390   14.2190 C.3   552  LYS552      0.0035
      7  CD        14.0200   16.8060   15.1990 C.3   552  LYS552      0.0206
      8  CE        13.2080   16.5020   16.4550 C.3   552  LYS552      0.1093
      9  NZ        13.7550   17.1920   17.6580 N.3   552  LYS552     -0.1314
     10  N         17.0380   15.9830   11.3630 N.am  553  VAL553     -0.1966
     11  CA        18.4790   16.2020   11.3430 C.3   553  VAL553      0.1727
     12  C         18.7740   17.4680   12.1400 C.2   553  VAL553      0.2616
     13  O         17.9290   18.3560   12.1990 O.2   553  VAL553     -0.2715
     14  CB        18.9630   16.3890    9.9010 C.3   553  VAL553      0.0290
     15  CG1       20.4200   16.8260    9.8660 C.3   553  VAL553      0.0023
     16  CG2       18.7570   15.1050    9.1210 C.3   553  VAL553      0.0023
     17  N         19.9540   17.5700   12.7510 N.am  554  MET554     -0.1963
     18  CA        20.2460   18.7250   13.6090 C.3   554  MET554      0.1736
     19  C         20.7700   19.9360   12.8340 C.2   554  MET554      0.2616
     20  O         21.4680   19.7900   11.8300 O.2   554  MET554     -0.2715
     21  CB        21.2420   18.3580   14.7220 C.3   554  MET554      0.0427
     22  CG        21.4150   19.4580   15.7680 C.3   554  MET554      0.0599
     23  SD        22.1620   18.9600   17.3360 S.3   554  MET554     -0.1393
     24  CE        23.6090   18.0540   16.7820 C.3   554  MET554      0.0692
     25  N         20.4160   21.1310   13.3150 N.am  555  ALA555     -0.1977
     26  CA        21.1160   22.3620   12.9390 C.3   555  ALA555      0.1597
     27  C         22.5430   22.2570   13.4790 C.2   555  ALA555      0.2287
     28  O         22.8530   22.7540   14.5660 O.2   555  ALA555     -0.2864
     29  CB        20.4100   23.5800   13.5150 C.3   555  ALA555      0.0319
     30  N         23.5500   14.6360   12.3790 N.3   560  PRO560     -0.2116
     31  CA        23.1180   13.3350   12.8740 C.3   560  PRO560      0.1372
     32  C         21.6230   13.0790   12.6580 C.2   560  PRO560      0.2244
     33  O         20.8290   13.9870   12.8390 O.2   560  PRO560     -0.2868
     34  CB        23.4200   13.4020   14.3820 C.3   560  PRO560      0.0268
     35  CG        23.8560   14.7900   14.6840 C.3   560  PRO560      0.0207
     36  CD        23.6840   15.6250   13.4590 C.3   560  PRO560      0.0892
     37  N         18.2400   12.1020   13.9190 N.3   562  TRP562     -0.1241
     38  CA        17.3370   11.8060   15.0180 C.3   562  TRP562      0.1605
     39  C         16.2490   10.9140   14.4930 C.2   562  TRP562      0.2264
     40  O         15.4270   11.3650   13.7150 O.2   562  TRP562     -0.2867
     41  CB        16.7580   13.1060   15.5380 C.3   562  TRP562      0.0550
     42  CG        15.7460   12.9690   16.6390 C.ar  562  TRP562      0.0003
     43  CD1       14.4290   12.5190   16.5490 C.ar  562  TRP562      0.0946
     44  CD2       15.9310   13.3250   18.0470 C.ar  562  TRP562      0.0152
     45  NE1       13.8150   12.5540   17.7760 N.ar  562  TRP562     -0.2442
     46  CE2       14.6600   13.0350   18.7170 C.ar  562  TRP562      0.0810
     47  CE3       16.9850   13.8310   18.7940 C.ar  562  TRP562      0.0012
     48  CZ2       14.4840   13.2460   20.0760 C.ar  562  TRP562      0.0191
     49  CZ3       16.7880   14.0460   20.1640 C.ar  562  TRP562      0.0001
     50  CH2       15.5690   13.7570   20.7870 C.ar  562  TRP562      0.0015
     51  N         19.8190    8.0730   17.6550 N.3   581  ILE581     -0.1245
     52  CA        20.5410    9.0890   16.9040 C.3   581  ILE581      0.1561
     53  C         21.6670    8.3960   16.1670 C.2   581  ILE581      0.2260
     54  O         22.4960    7.7620   16.8030 O.2   581  ILE581     -0.2867
     55  CB        21.1760   10.1410   17.8400 C.3   581  ILE581      0.0252
     56  CG1       20.1200   11.0800   18.4050 C.3   581  ILE581      0.0019
     57  CG2       22.2560   10.9360   17.1290 C.3   581  ILE581      0.0019
     58  CD1       20.6040   11.8320   19.6260 C.3   581  ILE581      0.0001
     59  N         23.9090    7.1310   28.7920 N.3   617  TYR617     -0.1241
     60  CA        23.0490    6.6290   27.7210 C.3   617  TYR617      0.1605
     61  C         23.7540    5.5570   26.8940 C.2   617  TYR617      0.2264
     62  O         24.9850    5.4930   26.8670 O.2   617  TYR617     -0.2867
     63  CB        22.5700    7.7840   26.8110 C.3   617  TYR617      0.0534
     64  CG        23.6720    8.7350   26.3860 C.ar  617  TYR617     -0.0201
     65  CD1       24.0040    9.8370   27.1640 C.ar  617  TYR617     -0.0009
     66  CD2       24.3870    8.5250   25.2180 C.ar  617  TYR617     -0.0009
     67  CE1       25.0240   10.6940   26.8020 C.ar  617  TYR617      0.0417
     68  CE2       25.3970    9.3910   24.8350 C.ar  617  TYR617      0.0417
     69  CZ        25.7150   10.4740   25.6390 C.ar  617  TYR617      0.1957
     70  OH        26.7240   11.3400   25.2750 O.3   617  TYR617     -0.2866
     71  N         23.3890    6.3080   19.1020 N.3   629  ILE629     -0.1231
     72  CA        23.2380    6.8180   20.4590 C.3   629  ILE629      0.1692
     73  C         21.7860    6.6830   20.8940 C.2   629  ILE629      0.2592
     74  O         20.8820    6.9870   20.1230 O.2   629  ILE629     -0.2718
     75  CB        23.6120    8.3000   20.5290 C.3   629  ILE629      0.0266
     76  CG1       25.0710    8.5010   20.1170 C.3   629  ILE629      0.0019
     77  CG2       23.3630    8.8430   21.9260 C.3   629  ILE629      0.0020
     78  CD1       25.4470    9.9630   19.9660 C.3   629  ILE629      0.0001
     79  N         21.5610    6.2350   22.1240 N.am  630  GLU630     -0.1966
     80  CA        20.2060    6.1550   22.6640 C.3   630  GLU630      0.1733
     81  C         19.6800    7.5640   22.9030 C.2   630  GLU630      0.2616
     82  O         20.3900    8.4170   23.4630 O.2   630  GLU630     -0.2715
     83  CB        20.2080    5.3830   23.9770 C.3   630  GLU630      0.0429
     84  CG        18.8730    5.3570   24.7090 C.3   630  GLU630      0.1163
     85  CD        18.9930    4.8430   26.1330 C.2   630  GLU630      0.3649
     86  OE1       17.9500    4.5200   26.7230 O.co2 630  GLU630     -0.2457
     87  OE2       20.1180    4.7620   26.6730 O.co2 630  GLU630     -0.2457
     88  N         18.4410    7.8080   22.4830 N.am  631  ILE631     -0.1963
     89  CA        17.8140    9.1110   22.6760 C.3   631  ILE631      0.1727
     90  C         17.2990    9.1970   24.0980 C.2   631  ILE631      0.2616
     91  O         16.5270    8.3430   24.5160 O.2   631  ILE631     -0.2715
     92  CB        16.6380    9.3350   21.6960 C.3   631  ILE631      0.0290
     93  CG1       17.1760    9.5990   20.2750 C.3   631  ILE631      0.0022
     94  CG2       15.7410   10.4750   22.1760 C.3   631  ILE631      0.0023
     95  CD1       16.1030    9.8190   19.2270 C.3   631  ILE631      0.0001
     96  N         17.7420   10.2090   24.8390 N.am  632  VAL632     -0.1977
     97  CA        17.1660   10.5050   26.1470 C.3   632  VAL632      0.1596
     98  C         16.0070   11.4630   25.9400 C.2   632  VAL632      0.2287
     99  O         16.1930   12.5670   25.4340 O.2   632  VAL632     -0.2864
    100  CB        18.1730   11.1480   27.1150 C.3   632  VAL632      0.0276
    101  CG1       17.4390   11.7220   28.3220 C.3   632  VAL632      0.0022
    102  CG2       19.2220   10.1310   27.5510 C.3   632  VAL632      0.0022
    103  N         14.5400   16.0260   26.7930 N.3   635  ALA635     -0.1231
    104  CA        15.7890   16.6560   27.1970 C.3   635  ALA635      0.1694
    105  C         16.2230   17.7350   26.2240 C.2   635  ALA635      0.2593
    106  O         15.8670   17.7170   25.0500 O.2   635  ALA635     -0.2718
    107  CB        16.8780   15.6090   27.3360 C.3   635  ALA635      0.0304
    108  N         17.0040   18.6800   26.7270 N.am  636  THR636     -0.1939
    109  CA        17.5110   19.7790   25.9140 C.3   636  THR636      0.2028
    110  C         18.8580   20.2430   26.4670 C.2   636  THR636      0.2642
    111  O         19.1980   19.9680   27.6220 O.2   636  THR636     -0.2714
    112  CB        16.5150   20.9650   25.8700 C.3   636  THR636      0.1808
    113  OG1       16.8760   21.8550   24.8090 O.3   636  THR636     -0.2208
    114  CG2       16.4980   21.7350   27.1740 C.3   636  THR636      0.0379
    115  N         19.6180   20.9460   25.6390 N.am  637  THR637     -0.1950
    116  CA        20.9380   21.4080   26.0250 C.3   637  THR637      0.1897
    117  C         20.8130   22.6600   26.8500 C.2   637  THR637      0.2313
    118  O         19.8360   23.3830   26.7180 O.2   637  THR637     -0.2863
    119  CB        21.7940   21.7450   24.8030 C.3   637  THR637      0.1794
    120  OG1       21.2030   22.8420   24.1060 O.3   637  THR637     -0.2208
    121  CG2       21.9090   20.5320   23.8660 C.3   637  THR637      0.0378
    122  N         20.5830   25.9330   24.4810 N.3   640  LYS640     -0.1245
    123  CA        19.2570   26.2270   23.9220 C.3   640  LYS640      0.1561
    124  C         18.3220   26.8750   24.9520 C.2   640  LYS640      0.2260
    125  O         17.4940   27.7190   24.6010 O.2   640  LYS640     -0.2867
    126  CB        18.6120   24.9530   23.3730 C.3   640  LYS640      0.0271
    127  CG        17.4040   25.1850   22.4720 C.3   640  LYS640      0.0035
    128  CD        17.8150   25.6400   21.0800 C.3   640  LYS640      0.0206
    129  CE        16.6390   25.6540   20.1180 C.3   640  LYS640      0.1093
    130  NZ        17.0710   25.9380   18.7190 N.3   640  LYS640     -0.1314
    131  N         26.9240   23.7750   25.4040 N.3   697  ASP697     -0.1239
    132  CA        26.1000   23.1220   24.3770 C.3   697  ASP697      0.1674
    133  C         26.3030   21.5980   24.3560 C.2   697  ASP697      0.2266
    134  O         25.6020   20.8860   23.6350 O.2   697  ASP697     -0.2867
    135  CB        26.3260   23.7320   22.9790 C.3   697  ASP697      0.1410
    136  CG        27.7860   23.7220   22.5410 C.2   697  ASP697      0.3668
    137  OD1       28.6850   23.6030   23.4010 O.co2 697  ASP697     -0.2456
    138  OD2       28.0340   23.8570   21.3230 O.co2 697  ASP697     -0.2456
    139  N         23.3050   18.5230   28.9850 N.3   700  MET700     -0.1245
    140  CA        21.8740   18.3940   28.7660 C.3   700  MET700      0.1570
    141  C         21.1200   18.2490   30.0690 C.2   700  MET700      0.2261
    142  O         21.7090   17.9170   31.0970 O.2   700  MET700     -0.2867
    143  CB        21.5870   17.2070   27.8460 C.3   700  MET700      0.0387
    144  CG        22.1000   17.4160   26.4230 C.3   700  MET700      0.0595
    145  SD        21.2370   16.4610   25.1590 S.3   700  MET700     -0.1393
    146  CE        19.5520   16.9970   25.4060 C.3   700  MET700      0.0692
    147  N         22.9060   15.8210   32.3670 N.3   708  PHE708     -0.1241
    148  CA        23.8960   14.8740   31.8070 C.3   708  PHE708      0.1605
    149  C         24.7680   15.4390   30.6890 C.2   708  PHE708      0.2264
    150  O         24.2790   16.0870   29.7800 O.2   708  PHE708     -0.2867
    151  CB        23.2220   13.5790   31.3280 C.3   708  PHE708      0.0534
    152  CG        22.2290   13.7670   30.2130 C.ar  708  PHE708     -0.0203
    153  CD1       20.9260   14.1790   30.4810 C.ar  708  PHE708     -0.0042
    154  CD2       22.5790   13.5000   28.8990 C.ar  708  PHE708     -0.0042
    155  CE1       20.0000   14.3440   29.4550 C.ar  708  PHE708     -0.0003
    156  CE2       21.6610   13.6620   27.8650 C.ar  708  PHE708     -0.0003
    157  CZ        20.3700   14.0840   28.1420 C.ar  708  PHE708     -0.0000
    158  N         27.3140   15.1170   27.3380 N.3   710  ILE710     -0.1231
    159  CA        27.2160   14.3770   26.0910 C.3   710  ILE710      0.1692
    160  C         28.4430   14.6610   25.2270 C.2   710  ILE710      0.2592
    161  O         29.3500   15.3580   25.6550 O.2   710  ILE710     -0.2718
    162  CB        25.9020   14.6940   25.3190 C.3   710  ILE710      0.0266
    163  CG1       25.8100   16.1790   24.9300 C.3   710  ILE710      0.0019
    164  CG2       24.6780   14.2950   26.1320 C.3   710  ILE710      0.0020
    165  CD1       24.6340   16.5000   24.0310 C.3   710  ILE710      0.0001
    166  N         28.4580   14.0850   24.0280 N.am  711  ASP711     -0.1974
    167  CA        29.5320   14.2370   23.0540 C.3   711  ASP711      0.1709
    168  C         30.9320   14.2310   23.6650 C.2   711  ASP711      0.2293
    169  O         31.7080   15.1630   23.5000 O.2   711  ASP711     -0.2864
    170  CB        29.2670   15.4520   22.1590 C.3   711  ASP711      0.1436
    171  CG        28.1380   15.1950   21.1490 C.2   711  ASP711      0.3671
    172  OD1       28.1890   14.1590   20.4370 O.co2 711  ASP711     -0.2456
    173  OD2       27.1970   16.0210   21.0720 O.co2 711  ASP711     -0.2456
@<TRIPOS>BOND
     1    16    14    1
     2    15    14    1
     3    14    11    1
     4    11    10    1
     5    11    12    1
     6    10     3   am
     7    20    19    2
     8     3     2    1
     9     3     4    2
    10     2     1    1
    11     2     5    1
    12    12    13    2
    13    12    17   am
    14    30    31    1
    15    30    36    1
    16    32    33    2
    17    32    31    1
    18    17    18    1
    19     5     6    1
    20    19    25   am
    21    19    18    1
    22    31    34    1
    23    26    25    1
    24    26    27    1
    25    26    29    1
    26    36    35    1
    27    27    28    2
    28    18    21    1
    29    40    39    2
    30    37    38    1
    31     6     7    1
    32    34    35    1
    33    39    38    1
    34    21    22    1
    35    38    41    1
    36     7     8    1
    37    41    42    1
    38    22    23    1
    39    53    54    2
    40    53    52    1
    41     8     9    1
    42    43    42   ar
    43    43    45   ar
    44    42    44   ar
    45    24    23    1
    46    52    51    1
    47    52    55    1
    48    57    55    1
    49    45    46   ar
    50    55    56    1
    51    44    46   ar
    52    44    47   ar
    53    56    58    1
    54    46    48   ar
    55   130   129    1
    56    47    49   ar
    57    71    72    1
    58    95    93    1
    59    78    76    1
    60    48    50   ar
    61    76    75    1
    62   129   128    1
    63    74    73    2
    64    49    50   ar
    65    93    92    1
    66   172   171   ar
    67    72    75    1
    68    72    73    1
    69    75    77    1
    70    73    79   am
    71   173   171   ar
    72   128   127    1
    73   171   170    1
    74   138   136   ar
    75    92    94    1
    76    92    89    1
    77    79    80    1
    78   170   167    1
    79   127   126    1
    80    88    89    1
    81    88    81   am
    82   136   135    1
    83   136   137   ar
    84    80    81    1
    85    80    83    1
    86    89    90    1
    87    81    82    2
    88   135   132    1
    89   167   168    1
    90   167   166    1
    91   126   123    1
    92   169   168    2
    93   134   133    2
    94   121   119    1
    95   123   122    1
    96   123   124    1
    97    83    84    1
    98   166   160   am
    99   165   163    1
   100    90    91    2
   101    90    96   am
   102   120   119    1
   103   133   132    1
   104   132   131    1
   105   125   124    2
   106    84    85    1
   107   119   116    1
   108   113   112    1
   109    68    66   ar
   110    68    69   ar
   111    96    97    1
   112   163   162    1
   113   106   105    2
   114   145   146    1
   115   145   144    1
   116    66    64   ar
   117   160   161    2
   118   160   159    1
   119    70    69    1
   120   162   159    1
   121   162   164    1
   122    99    98    2
   123   115   116    1
   124   115   110   am
   125    69    67   ar
   126   112   109    1
   127   112   114    1
   128   109   110    1
   129   109   108    1
   130    98    97    1
   131   116   117    1
   132   159   158    1
   133    85    87   ar
   134    85    86   ar
   135    97   100    1
   136   105   108   am
   137   105   104    1
   138    64    63    1
   139    64    65   ar
   140   144   143    1
   141   110   111    2
   142   118   117    2
   143   103   104    1
   144    67    65   ar
   145    63    60    1
   146    62    61    2
   147    61    60    1
   148   100   102    1
   149   100   101    1
   150   104   107    1
   151    60    59    1
   152   143   140    1
   153   156   157   ar
   154   156   154   ar
   155   157   155   ar
   156   140   139    1
   157   140   141    1
   158   154   152   ar
   159   155   153   ar
   160   150   149    2
   161   141   142    2
   162   152   153   ar
   163   152   151    1
   164   149   148    1
   165   151   148    1
   166   148   147    1
