@<TRIPOS>MOLECULE
tmp/5edtA01.pdb
 110 104 0 0 0
SMALL
GASTEIGER

@<TRIPOS>ATOM
      1  N        -11.1370   10.0220    1.3660 N.3    76  THR76      -0.1203
      2  CA       -12.4890   10.2380    1.9010 C.3    76  THR76       0.1994
      3  C        -13.2280   11.2460    1.0300 C.2    76  THR76       0.2617
      4  O        -14.3280   11.6390    1.3370 O.2    76  THR76      -0.2717
      5  CB       -12.4520   10.6510    3.3980 C.3    76  THR76       0.1784
      6  OG1      -12.0360   12.0210    3.5620 O.3    76  THR76      -0.2211
      7  CG2      -11.4840    9.7270    4.1940 C.3    76  THR76       0.0376
      8  N        -12.5890   11.6400   -0.0800 N.am   77  VAL77      -0.1979
      9  CA       -13.1080   12.5660   -1.0800 C.3    77  VAL77       0.1595
     10  C        -12.8790   12.0520   -2.4950 C.2    77  VAL77       0.2287
     11  O        -11.9950   11.2140   -2.7220 O.2    77  VAL77      -0.2864
     12  CB       -12.4790   13.9370   -0.9420 C.3    77  VAL77       0.0276
     13  CG1      -12.8440   14.5360    0.4010 C.3    77  VAL77       0.0022
     14  CG2      -10.9620   13.8630   -1.0460 C.3    77  VAL77       0.0022
     15  N        -24.2300   19.1040    9.7250 N.3   159  LEU159     -0.1245
     16  CA       -23.0060   19.1340    8.9550 C.3   159  LEU159      0.1561
     17  C        -21.7730   18.7030    9.7850 C.2   159  LEU159      0.2260
     18  O        -20.8760   18.0320    9.2540 O.2   159  LEU159     -0.2867
     19  CB       -22.7980   20.4670    8.2660 C.3   159  LEU159      0.0270
     20  CG       -23.8170   20.8530    7.1970 C.3   159  LEU159      0.0019
     21  CD1      -23.6290   22.3330    6.9040 C.3   159  LEU159      0.0001
     22  CD2      -23.6090   20.0240    5.9460 C.3   159  LEU159      0.0001
     23  N        -20.8980   14.8370   10.1400 N.3   162  SER162     -0.1202
     24  CA       -20.1780   14.1600    9.1030 C.3   162  SER162      0.2020
     25  C        -18.6690   14.0360    9.4370 C.2   162  SER162      0.2618
     26  O        -17.9760   13.1680    8.8720 O.2   162  SER162     -0.2717
     27  CB       -20.2940   14.9390    7.7940 C.3   162  SER162      0.2103
     28  OG       -21.5730   14.8040    7.2010 O.3   162  SER162     -0.2182
     29  N        -18.1640   14.9060   10.3320 N.am  163  LEU163     -0.1979
     30  CA       -16.7130   15.0690   10.4960 C.3   163  LEU163      0.1596
     31  C        -15.9460   13.9410   11.1870 C.2   163  LEU163      0.2287
     32  O        -14.7630   13.7230   10.8920 O.2   163  LEU163     -0.2864
     33  CB       -16.3930   16.4160   11.1030 C.3   163  LEU163      0.0297
     34  CG       -16.9180   17.5860   10.2600 C.3   163  LEU163      0.0022
     35  CD1      -16.4010   18.8900   10.8890 C.3   163  LEU163      0.0001
     36  CD2      -16.5030   17.5180    8.7860 C.3   163  LEU163      0.0001
     37  N        -15.5340   12.0020    8.0670 N.3   166  ALA166     -0.1231
     38  CA       -14.8590   12.6680    6.9600 C.3   166  ALA166      0.1694
     39  C        -13.3820   12.7440    7.1310 C.2   166  ALA166      0.2592
     40  O        -12.6470   12.7240    6.1330 O.2   166  ALA166     -0.2718
     41  CB       -15.3800   14.0590    6.7920 C.3   166  ALA166      0.0304
     42  N        -12.9360   12.8470    8.3880 N.am  167  PHE167     -0.1976
     43  CA       -11.5110   13.0090    8.6870 C.3   167  PHE167      0.1639
     44  C        -10.8760   11.7850    9.2890 C.2   167  PHE167      0.2290
     45  O         -9.8110   11.8610    9.9540 O.2   167  PHE167     -0.2864
     46  CB       -11.2790   14.2760    9.4850 C.3   167  PHE167      0.0560
     47  CG       -11.4260   15.5040    8.6290 C.ar  167  PHE167     -0.0200
     48  CD1      -12.6830   16.0490    8.3870 C.ar  167  PHE167     -0.0042
     49  CD2      -10.3160   16.0460    7.9710 C.ar  167  PHE167     -0.0042
     50  CE1      -12.8090   17.1540    7.5420 C.ar  167  PHE167     -0.0003
     51  CE2      -10.4440   17.1440    7.1270 C.ar  167  PHE167     -0.0003
     52  CZ       -11.6890   17.6940    6.8970 C.ar  167  PHE167     -0.0000
     53  N        -18.3490    7.8950    4.3060 N.3   177  ALA177     -0.1245
     54  CA       -17.7920    9.1920    3.8480 C.3   177  ALA177      0.1562
     55  C        -18.4430    9.6480    2.5470 C.2   177  ALA177      0.2260
     56  O        -18.7230   10.8610    2.3590 O.2   177  ALA177     -0.2867
     57  CB       -16.2910    9.1220    3.6980 C.3   177  ALA177      0.0290
     58  N        -22.1010   10.8070    3.3330 N.3   180  ASN180     -0.1225
     59  CA       -22.0700   12.1380    3.9250 C.3   180  ASN180      0.1785
     60  C        -21.6390   13.1460    2.8940 C.2   180  ASN180      0.2597
     61  O        -22.2830   14.1660    2.7350 O.2   180  ASN180     -0.2718
     62  CB       -21.1320   12.2040    5.1220 C.3   180  ASN180      0.1169
     63  CG       -21.7040   11.5180    6.3630 C.2   180  ASN180      0.2627
     64  OD1      -22.9410   11.4370    6.5480 O.2   180  ASN180     -0.2716
     65  ND2      -20.8050   11.0660    7.2520 N.am  180  ASN180     -0.0877
     66  N        -20.5480   12.8730    2.1880 N.am  181  TRP181     -0.1976
     67  CA       -20.0770   13.7770    1.1380 C.3   181  TRP181      0.1640
     68  C        -21.1450   14.1680    0.1600 C.2   181  TRP181      0.2290
     69  O        -21.3970   15.3680   -0.0860 O.2   181  TRP181     -0.2864
     70  CB       -18.9500   13.1190    0.3770 C.3   181  TRP181      0.0576
     71  CG       -18.4520   13.9710   -0.7450 C.ar  181  TRP181      0.0006
     72  CD1      -18.7540   13.8660   -2.1160 C.ar  181  TRP181      0.0946
     73  CD2      -17.5340   15.0920   -0.6380 C.ar  181  TRP181      0.0152
     74  NE1      -18.0840   14.8100   -2.8210 N.ar  181  TRP181     -0.2442
     75  CE2      -17.3400   15.5870   -2.0000 C.ar  181  TRP181      0.0810
     76  CE3      -16.8500   15.7010    0.4150 C.ar  181  TRP181      0.0012
     77  CZ2      -16.5070   16.6520   -2.2730 C.ar  181  TRP181      0.0191
     78  CZ3      -16.0100   16.7780    0.1310 C.ar  181  TRP181      0.0001
     79  CH2      -15.8580   17.2460   -1.1820 C.ar  181  TRP181      0.0015
     80  N        -23.9190   16.2420    1.9540 N.3   184  ASP184     -0.1239
     81  CA       -23.4550   17.5910    2.2480 C.3   184  ASP184      0.1674
     82  C        -23.2130   18.4130    0.9920 C.2   184  ASP184      0.2266
     83  O        -23.3790   19.6230    1.0440 O.2   184  ASP184     -0.2867
     84  CB       -22.2100   17.5490    3.1100 C.3   184  ASP184      0.1410
     85  CG       -22.4740   16.9320    4.4340 C.2   184  ASP184      0.3668
     86  OD1      -23.6660   16.8070    4.8260 O.co2 184  ASP184     -0.2456
     87  OD2      -21.5050   16.5610    5.1020 O.co2 184  ASP184     -0.2456
     88  N        -18.5030   22.5610    1.2850 N.3   227  VAL227     -0.1231
     89  CA       -18.3300   21.3310    2.0670 C.3   227  VAL227      0.1692
     90  C        -16.8940   21.2640    2.6060 C.2   227  VAL227      0.2592
     91  O        -16.6850   21.0330    3.8170 O.2   227  VAL227     -0.2718
     92  CB       -18.6320   20.0190    1.2570 C.3   227  VAL227      0.0266
     93  CG1      -18.2850   18.7860    2.1030 C.3   227  VAL227      0.0020
     94  CG2      -20.0750   19.9920    0.7630 C.3   227  VAL227      0.0020
     95  N        -15.9150   21.4410    1.7090 N.am  228  THR228     -0.1953
     96  CA       -14.5180   21.3870    2.1140 C.3   228  THR228      0.1897
     97  C        -14.0970   22.4700    3.1150 C.2   228  THR228      0.2313
     98  O        -13.2790   22.2170    4.0210 O.2   228  THR228     -0.2863
     99  CB       -13.5640   21.3500    0.9210 C.3   228  THR228      0.1794
    100  OG1      -13.7920   22.4990    0.1080 O.3   228  THR228     -0.2208
    101  CG2      -13.7780   20.0710    0.0940 C.3   228  THR228      0.0378
    102  N        -15.7790   21.6400    6.4700 N.3   231  GLY231     -0.1210
    103  CA       -15.1880   20.4760    7.0950 C.3   231  GLY231      0.1956
    104  C        -13.7560   20.6610    7.5900 C.2   231  GLY231      0.2611
    105  O        -13.4670   20.3540    8.7620 O.2   231  GLY231     -0.2717
    106  N        -12.8480   21.1170    6.7010 N.am  232  ALA232     -0.1979
    107  CA       -11.4680   21.3810    7.0580 C.3   232  ALA232      0.1597
    108  C        -11.3850   22.3660    8.2150 C.2   232  ALA232      0.2287
    109  O        -10.6190   22.1420    9.1500 O.2   232  ALA232     -0.2864
    110  CB       -10.7010   21.9150    5.8710 C.3   232  ALA232      0.0319
@<TRIPOS>BOND
     1    74    72   ar
     2    74    75   ar
     3    11    10    2
     4    10     9    1
     5    77    75   ar
     6    77    79   ar
     7    72    71   ar
     8    75    73   ar
     9    79    78   ar
    10     9    12    1
    11     9     8    1
    12    14    12    1
    13    12    13    1
    14    71    73   ar
    15    71    70    1
    16    73    76   ar
    17    69    68    2
    18     8     3   am
    19   101    99    1
    20   100    99    1
    21    78    76   ar
    22    68    67    1
    23    70    67    1
    24    94    92    1
    25    99    96    1
    26    82    83    2
    27    82    81    1
    28     3     4    2
    29     3     2    1
    30    67    66    1
    31    92    89    1
    32    92    93    1
    33    88    89    1
    34     1     2    1
    35    95    96    1
    36    95    90   am
    37     2     5    1
    38    80    81    1
    39    89    90    1
    40    96    97    1
    41    66    60   am
    42    81    84    1
    43    56    55    2
    44    55    54    1
    45    90    91    2
    46    61    60    2
    47    60    59    1
    48    84    85    1
    49    97    98    2
    50    58    59    1
    51     5     6    1
    52     5     7    1
    53    57    54    1
    54    54    53    1
    55    59    62    1
    56    85    86   ar
    57    85    87   ar
    58    62    63    1
    59   110   107    1
    60    22    20    1
    61    40    39    2
    62    63    64    2
    63    63    65   am
    64   102   103    1
    65   106   107    1
    66   106   104   am
    67    41    38    1
    68    52    51   ar
    69    52    50   ar
    70    21    20    1
    71    38    39    1
    72    38    37    1
    73   107   108    1
    74   103   104    1
    75    51    49   ar
    76    39    42   am
    77    20    19    1
    78    28    27    1
    79    50    48   ar
    80   104   105    2
    81    27    24    1
    82    49    47   ar
    83   108   109    2
    84    19    16    1
    85    48    47   ar
    86    42    43    1
    87    47    46    1
    88    43    44    1
    89    43    46    1
    90    36    34    1
    91    26    25    2
    92    16    15    1
    93    16    17    1
    94    24    25    1
    95    24    23    1
    96    18    17    2
    97    44    45    2
    98    25    29   am
    99    34    35    1
   100    34    33    1
   101    29    30    1
   102    30    33    1
   103    30    31    1
   104    32    31    2
