@<TRIPOS>MOLECULE
tmp/5eduA01.pdb
 180 177 0 0 0
SMALL
GASTEIGER

@<TRIPOS>ATOM
      1  N        -20.0180  -37.3900   22.3100 N.3    10  ASN10      -0.1240
      2  CA       -18.7710  -36.9940   22.9630 C.3    10  ASN10       0.1653
      3  C        -17.7530  -38.1290   23.0660 C.2    10  ASN10       0.2266
      4  O        -18.1190  -39.3040   23.1210 O.2    10  ASN10      -0.2867
      5  CB       -19.0660  -36.4320   24.3540 C.3    10  ASN10       0.1155
      6  CG       -18.0720  -35.3660   24.7720 C.2    10  ASN10       0.2627
      7  OD1      -17.4810  -34.6860   23.9320 O.2    10  ASN10      -0.2716
      8  ND2      -17.8840  -35.2120   26.0780 N.am   10  ASN10      -0.0877
      9  N        -15.8070  -39.1770   25.3770 N.3    12  ASP12      -0.1225
     10  CA       -15.6680  -39.9140   26.6270 C.3    12  ASP12       0.1805
     11  C        -16.6660  -41.0650   26.6960 C.2    12  ASP12       0.2597
     12  O        -16.4960  -42.0040   27.4750 O.2    12  ASP12      -0.2718
     13  CB       -15.8500  -38.9800   27.8260 C.3    12  ASP12       0.1424
     14  CG       -17.2020  -38.2900   27.8300 C.2    12  ASP12       0.3668
     15  OD1      -17.7860  -38.1140   26.7410 O.co2  12  ASP12      -0.2456
     16  OD2      -17.6760  -37.9200   28.9240 O.co2  12  ASP12      -0.2456
     17  N        -17.7030  -40.9880   25.8680 N.am   13  LYS13      -0.1979
     18  CA       -18.7360  -42.0160   25.8320 C.3    13  LYS13       0.1596
     19  C        -18.2720  -43.2410   25.0470 C.2    13  LYS13       0.2287
     20  O        -17.1070  -43.3390   24.6570 O.2    13  LYS13      -0.2864
     21  CB       -20.0230  -41.4580   25.2220 C.3    13  LYS13       0.0298
     22  CG       -20.5620  -40.2190   25.9280 C.3    13  LYS13       0.0038
     23  CD       -20.8870  -40.5050   27.3870 C.3    13  LYS13       0.0206
     24  CE       -21.4270  -39.2680   28.0890 C.3    13  LYS13       0.1093
     25  NZ       -20.4480  -38.1470   28.0720 N.3    13  LYS13      -0.1314
     26  N        -20.1850  -29.5220   21.7930 N.3    42  GLU42      -0.1245
     27  CA       -21.3290  -28.7800   22.3120 C.3    42  GLU42       0.1567
     28  C        -21.2280  -27.3220   21.8730 C.2    42  GLU42       0.2260
     29  O        -22.2090  -26.5800   21.9130 O.2    42  GLU42      -0.2867
     30  CB       -21.4190  -28.8820   23.8380 C.3    42  GLU42       0.0388
     31  CG       -20.4570  -27.9850   24.6020 C.3    42  GLU42       0.1160
     32  CD       -19.1340  -28.6610   24.9020 C.2    42  GLU42       0.3649
     33  OE1      -18.5890  -29.3350   24.0040 O.co2  42  GLU42      -0.2457
     34  OE2      -18.6450  -28.5220   26.0430 O.co2  42  GLU42      -0.2457
     35  N        -25.7070  -35.3560   23.6300 N.3    60  TRP60      -0.1227
     36  CA       -25.1400  -34.5830   24.7320 C.3    60  TRP60       0.1737
     37  C        -26.1150  -34.5820   25.9070 C.2    60  TRP60       0.2595
     38  O        -27.2680  -34.9830   25.7600 O.2    60  TRP60      -0.2718
     39  CB       -24.8280  -33.1500   24.2860 C.3    60  TRP60       0.0564
     40  CG       -23.9570  -32.3780   25.2400 C.ar   60  TRP60       0.0003
     41  CD1      -24.3730  -31.5560   26.2480 C.ar   60  TRP60       0.0946
     42  CD2      -22.5250  -32.3520   25.2690 C.ar   60  TRP60       0.0152
     43  NE1      -23.2920  -31.0270   26.9050 N.ar   60  TRP60      -0.2442
     44  CE2      -22.1440  -31.4980   26.3230 C.ar   60  TRP60       0.0810
     45  CE3      -21.5270  -32.9690   24.5080 C.ar   60  TRP60       0.0012
     46  CZ2      -20.8100  -31.2450   26.6340 C.ar   60  TRP60       0.0191
     47  CZ3      -20.2040  -32.7170   24.8190 C.ar   60  TRP60       0.0001
     48  CH2      -19.8570  -31.8630   25.8720 C.ar   60  TRP60       0.0015
     49  N        -25.6480  -34.1450   27.0720 N.am   61  ALA61      -0.1980
     50  CA       -26.5170  -33.9830   28.2320 C.3    61  ALA61       0.1597
     51  C        -27.5950  -32.9360   27.9510 C.2    61  ALA61       0.2287
     52  O        -27.4080  -32.0440   27.1210 O.2    61  ALA61      -0.2864
     53  CB       -25.7060  -33.6020   29.4580 C.3    61  ALA61       0.0319
     54  N        -28.7530  -30.3850   29.3830 N.3    63  ASP63      -0.1225
     55  CA       -28.6010  -29.0000   29.8240 C.3    63  ASP63       0.1805
     56  C        -28.3760  -28.0160   28.6740 C.2    63  ASP63       0.2597
     57  O        -28.6520  -26.8260   28.8110 O.2    63  ASP63      -0.2718
     58  CB       -27.4500  -28.8920   30.8270 C.3    63  ASP63       0.1424
     59  CG       -26.1100  -29.2430   30.2150 C.2    63  ASP63       0.3668
     60  OD1      -25.8690  -30.4410   29.9610 O.co2  63  ASP63      -0.2456
     61  OD2      -25.2960  -28.3230   29.9940 O.co2  63  ASP63      -0.2456
     62  N        -27.8850  -28.5120   27.5420 N.am   64  ARG64      -0.1979
     63  CA       -27.5750  -27.6550   26.3990 C.3    64  ARG64       0.1597
     64  C        -28.7200  -27.5760   25.3940 C.2    64  ARG64       0.2287
     65  O        -28.7800  -26.6510   24.5820 O.2    64  ARG64      -0.2864
     66  CB       -26.3160  -28.1550   25.6860 C.3    64  ARG64       0.0334
     67  CG       -25.0660  -28.1830   26.5450 C.3    64  ARG64       0.0492
     68  CD       -24.3390  -26.8520   26.5180 C.3    64  ARG64       0.2205
     69  NE       -23.1480  -26.8710   27.3630 N.pl3  64  ARG64      -0.0865
     70  CZ       -22.2600  -25.8850   27.4240 C.cat  64  ARG64       0.5346
     71  NH1      -22.4210  -24.7980   26.6830 N.pl3  64  ARG64       0.1354
     72  NH2      -21.2070  -25.9880   28.2240 N.pl3  64  ARG64       0.1354
     73  N        -26.8890  -39.7590   34.2120 N.3   109  GLU109     -0.1245
     74  CA       -25.5080  -39.8120   34.6740 C.3   109  GLU109      0.1567
     75  C        -25.2250  -38.7930   35.7760 C.2   109  GLU109      0.2260
     76  O        -25.4700  -37.5970   35.6160 O.2   109  GLU109     -0.2867
     77  CB       -24.5470  -39.6030   33.4990 C.3   109  GLU109      0.0388
     78  CG       -24.9020  -38.4400   32.5830 C.3   109  GLU109      0.1160
     79  CD       -24.1290  -38.4690   31.2760 C.2   109  GLU109      0.3649
     80  OE1      -24.0730  -37.4260   30.5910 O.co2 109  GLU109     -0.2457
     81  OE2      -23.5830  -39.5380   30.9310 O.co2 109  GLU109     -0.2457
     82  N        -10.7710  -33.9550   37.7520 N.3   148  ASN148     -0.1240
     83  CA       -10.7410  -32.8710   36.7770 C.3   148  ASN148      0.1653
     84  C        -11.0940  -31.5220   37.3920 C.2   148  ASN148      0.2266
     85  O        -12.1170  -31.3830   38.0610 O.2   148  ASN148     -0.2867
     86  CB       -11.6940  -33.1820   35.6210 C.3   148  ASN148      0.1155
     87  CG       -11.5420  -32.2170   34.4630 C.2   148  ASN148      0.2627
     88  OD1      -10.5520  -31.4920   34.3710 O.2   148  ASN148     -0.2716
     89  ND2      -12.5220  -32.2080   33.5670 N.am  148  ASN148     -0.0877
     90  N        -12.9940  -28.3600   34.3700 N.3   151  GLU151     -0.1231
     91  CA       -14.4190  -28.2780   34.0760 C.3   151  GLU151      0.1684
     92  C        -15.2210  -28.1300   35.3660 C.2   151  GLU151      0.2434
     93  O        -15.0690  -28.9260   36.2930 O.2   151  GLU151     -0.2733
     94  CB       -14.8830  -29.5080   33.2920 C.3   151  GLU151      0.0402
     95  CG       -14.4320  -29.5290   31.8360 C.3   151  GLU151      0.1161
     96  CD       -15.1740  -28.5230   30.9700 C.2   151  GLU151      0.3649
     97  OE1      -16.1610  -27.9250   31.4500 O.co2 151  GLU151     -0.2457
     98  OE2      -14.7720  -28.3300   29.8030 O.co2 151  GLU151     -0.2457
     99  N        -16.0830  -27.1030   35.4220 N.am  152  PRO152     -0.2718
    100  CA       -16.8590  -26.7500   36.6170 C.3   152  PRO152      0.1535
    101  C        -17.8380  -27.8410   37.0440 C.2   152  PRO152      0.2599
    102  O        -18.2860  -27.8530   38.1900 O.2   152  PRO152     -0.2715
    103  CB       -17.6100  -25.4860   36.1830 C.3   152  PRO152      0.0310
    104  CG       -17.6860  -25.5820   34.7000 C.3   152  PRO152      0.0237
    105  CD       -16.4030  -26.2280   34.2810 C.3   152  PRO152      0.0939
    106  N        -18.1560  -28.7450   36.1240 N.am  153  TYR153     -0.1960
    107  CA       -19.0870  -29.8390   36.3800 C.3   153  TYR153      0.1771
    108  C        -18.6170  -30.7580   37.5040 C.2   153  TYR153      0.2619
    109  O        -19.4300  -31.3240   38.2330 O.2   153  TYR153     -0.2715
    110  CB       -19.2960  -30.6460   35.0960 C.3   153  TYR153      0.0574
    111  CG       -20.0650  -31.9380   35.2660 C.ar  153  TYR153     -0.0198
    112  CD1      -21.4470  -31.9370   35.3950 C.ar  153  TYR153     -0.0009
    113  CD2      -19.4080  -33.1610   35.2700 C.ar  153  TYR153     -0.0009
    114  CE1      -22.1520  -33.1170   35.5410 C.ar  153  TYR153      0.0417
    115  CE2      -20.1030  -34.3470   35.4140 C.ar  153  TYR153      0.0417
    116  CZ       -21.4750  -34.3190   35.5500 C.ar  153  TYR153      0.1957
    117  OH       -22.1730  -35.4960   35.6940 O.3   153  TYR153     -0.2866
    118  N        -17.3020  -30.8970   37.6420 N.am  154  PHE154     -0.1974
    119  CA       -16.7290  -31.8250   38.6100 C.3   154  PHE154      0.1639
    120  C        -16.5810  -31.2220   40.0040 C.2   154  PHE154      0.2290
    121  O        -16.5340  -31.9520   40.9940 O.2   154  PHE154     -0.2864
    122  CB       -15.3690  -32.3270   38.1200 C.3   154  PHE154      0.0560
    123  CG       -15.4570  -33.2730   36.9570 C.ar  154  PHE154     -0.0200
    124  CD1      -15.6690  -34.6250   37.1650 C.ar  154  PHE154     -0.0042
    125  CD2      -15.3300  -32.8110   35.6570 C.ar  154  PHE154     -0.0042
    126  CE1      -15.7520  -35.5000   36.0990 C.ar  154  PHE154     -0.0003
    127  CE2      -15.4120  -33.6820   34.5860 C.ar  154  PHE154     -0.0003
    128  CZ       -15.6230  -35.0280   34.8080 C.ar  154  PHE154     -0.0000
    129  N         -8.8080  -33.9680   33.1070 N.3   208  TYR208     -0.1241
    130  CA        -9.4480  -35.2760   33.0200 C.3   208  TYR208      0.1605
    131  C         -8.4230  -36.3780   32.7770 C.2   208  TYR208      0.2264
    132  O         -8.4500  -37.4190   33.4320 O.2   208  TYR208     -0.2867
    133  CB       -10.5010  -35.2890   31.9070 C.3   208  TYR208      0.0534
    134  CG       -11.3370  -36.5530   31.8610 C.ar  208  TYR208     -0.0201
    135  CD1      -10.9110  -37.6690   31.1500 C.ar  208  TYR208     -0.0009
    136  CD2      -12.5540  -36.6280   32.5270 C.ar  208  TYR208     -0.0009
    137  CE1      -11.6700  -38.8240   31.1080 C.ar  208  TYR208      0.0417
    138  CE2      -13.3210  -37.7790   32.4890 C.ar  208  TYR208      0.0417
    139  CZ       -12.8730  -38.8740   31.7780 C.ar  208  TYR208      0.1957
    140  OH       -13.6310  -40.0220   31.7350 O.3   208  TYR208     -0.2866
    141  N        -19.1410  -43.5540   32.7530 N.3   228  TRP228     -0.1241
    142  CA       -18.3920  -43.7550   31.5170 C.3   228  TRP228      0.1605
    143  C        -16.9440  -44.1300   31.7870 C.2   228  TRP228      0.2264
    144  O        -16.2910  -44.7740   30.9690 O.2   228  TRP228     -0.2867
    145  CB       -18.4410  -42.4930   30.6610 C.3   228  TRP228      0.0550
    146  CG       -17.9390  -41.2780   31.3790 C.ar  228  TRP228      0.0003
    147  CD1      -16.6380  -40.8880   31.5190 C.ar  228  TRP228      0.0946
    148  CD2      -18.7240  -40.2950   32.0590 C.ar  228  TRP228      0.0152
    149  NE1      -16.5630  -39.7270   32.2420 N.ar  228  TRP228     -0.2442
    150  CE2      -17.8330  -39.3400   32.5850 C.ar  228  TRP228      0.0810
    151  CE3      -20.0950  -40.1260   32.2750 C.ar  228  TRP228      0.0012
    152  CZ2      -18.2640  -38.2360   33.3090 C.ar  228  TRP228      0.0191
    153  CZ3      -20.5200  -39.0310   32.9950 C.ar  228  TRP228      0.0001
    154  CH2      -19.6090  -38.1000   33.5030 C.ar  228  TRP228      0.0015
    155  N        -27.2790  -35.0000   34.8890 N.3   258  GLY258     -0.1225
    156  CA       -27.5730  -34.8050   33.4820 C.3   258  GLY258      0.1811
    157  C        -28.1650  -36.0350   32.8220 C.2   258  GLY258      0.2280
    158  O        -27.9980  -37.1530   33.3080 O.2   258  GLY258     -0.2866
    159  N        -30.1880  -31.0160   36.1630 N.3   328  MET328     -0.1245
    160  CA       -29.8150  -29.7730   35.4910 C.3   328  MET328      0.1570
    161  C        -30.9810  -29.1240   34.7500 C.2   328  MET328      0.2261
    162  O        -31.8200  -29.8140   34.1680 O.2   328  MET328     -0.2867
    163  CB       -28.6660  -30.0220   34.5090 C.3   328  MET328      0.0387
    164  CG       -27.3360  -30.3110   35.1760 C.3   328  MET328      0.0595
    165  SD       -25.9240  -30.1730   34.0610 S.3   328  MET328     -0.1393
    166  CE       -26.2030  -31.5580   32.9660 C.3   328  MET328      0.0692
    167  N        -22.4320  -22.1430   32.7150 N.3   338  TRP338     -0.1241
    168  CA       -21.2700  -23.0210   32.7940 C.3   338  TRP338      0.1605
    169  C        -19.9740  -22.2820   32.4870 C.2   338  TRP338      0.2264
    170  O        -18.9330  -22.5780   33.0710 O.2   338  TRP338     -0.2867
    171  CB       -21.4240  -24.2120   31.8450 C.3   338  TRP338      0.0550
    172  CG       -22.3460  -25.2790   32.3530 C.ar  338  TRP338      0.0003
    173  CD1      -23.4820  -25.7360   31.7500 C.ar  338  TRP338      0.0946
    174  CD2      -22.2120  -26.0240   33.5700 C.ar  338  TRP338      0.0152
    175  NE1      -24.0600  -26.7200   32.5130 N.ar  338  TRP338     -0.2442
    176  CE2      -23.3010  -26.9150   33.6380 C.ar  338  TRP338      0.0810
    177  CE3      -21.2760  -26.0250   34.6100 C.ar  338  TRP338      0.0012
    178  CZ2      -23.4810  -27.7960   34.7020 C.ar  338  TRP338      0.0191
    179  CZ3      -21.4570  -26.9010   35.6660 C.ar  338  TRP338      0.0001
    180  CH2      -22.5500  -27.7740   35.7040 C.ar  338  TRP338      0.0015
@<TRIPOS>BOND
     1    26    27    1
     2    28    29    2
     3    28    27    1
     4     1     2    1
     5    27    30    1
     6     2     3    1
     7     2     5    1
     8     3     4    2
     9    35    36    1
    10    30    31    1
    11     7     6    2
    12    33    32   ar
    13    39    36    1
    14    39    40    1
    15     5     6    1
    16    45    47   ar
    17    45    42   ar
    18    65    64    2
    19    31    32    1
    20    20    19    2
    21    36    37    1
    22     6     8   am
    23    47    48   ar
    24    32    34   ar
    25    19    18    1
    26    21    18    1
    27    21    22    1
    28    40    42   ar
    29    40    41   ar
    30    42    44   ar
    31     9    10    1
    32    64    63    1
    33    66    63    1
    34    66    67    1
    35    38    37    2
    36    18    17    1
    37    17    11   am
    38    48    46   ar
    39    37    49   am
    40    22    23    1
    41    41    43   ar
    42    44    46   ar
    43    44    43   ar
    44    63    62    1
    45    68    67    1
    46    68    69    1
    47    10    11    1
    48    10    13    1
    49    71    70    1
    50    11    12    2
    51    15    14   ar
    52    49    50    1
    53    52    51    2
    54    69    70    2
    55    23    24    1
    56    70    72    1
    57    62    56   am
    58    13    14    1
    59    14    16   ar
    60    51    50    1
    61    25    24    1
    62    50    53    1
    63    56    57    2
    64    56    55    1
    65    54    55    1
    66    98    96   ar
    67    55    58    1
    68    60    59   ar
    69    61    59   ar
    70    59    58    1
    71    80    79   ar
    72   145   146    1
    73   145   142    1
    74    81    79   ar
    75   144   143    2
    76    96    97   ar
    77    96    95    1
    78   137   135   ar
    79   137   139   ar
    80   135   134   ar
    81    79    78    1
    82   146   147   ar
    83   146   148   ar
    84   142   143    1
    85   142   141    1
    86   147   149   ar
    87   140   139    1
    88   173   172   ar
    89   173   175   ar
    90   139   138   ar
    91    95    94    1
    92   171   172    1
    93   171   168    1
    94   134   133    1
    95   134   136   ar
    96   133   130    1
    97   148   151   ar
    98   148   150   ar
    99   149   150   ar
   100   151   153   ar
   101   172   174   ar
   102   169   168    1
   103   169   170    2
   104   138   136   ar
   105   175   176   ar
   106    78    77    1
   107   150   152   ar
   108   167   168    1
   109   131   130    1
   110   131   132    2
   111   157   158    2
   112   157   156    1
   113   166   165    1
   114   153   154   ar
   115   130   129    1
   116    94    91    1
   117   152   154   ar
   118   156   155    1
   119    77    74    1
   120    89    87   am
   121   174   176   ar
   122   174   177   ar
   123   176   178   ar
   124   165   164    1
   125    91    90    1
   126    91    92    1
   127   162   161    2
   128    73    74    1
   129   105   104    1
   130   105    99    1
   131    88    87    2
   132    87    86    1
   133   163   164    1
   134   163   160    1
   135   127   128   ar
   136   127   125   ar
   137   177   179   ar
   138    74    75    1
   139   104   103    1
   140   178   180   ar
   141   161   160    1
   142   128   126   ar
   143   110   111    1
   144   110   107    1
   145   111   113   ar
   146   111   112   ar
   147   113   115   ar
   148    92    99   am
   149    92    93    2
   150   112   114   ar
   151   115   116   ar
   152    99   100    1
   153   160   159    1
   154   114   116   ar
   155   116   117    1
   156    76    75    2
   157    86    83    1
   158   125   123   ar
   159   179   180   ar
   160   126   124   ar
   161   106   107    1
   162   106   101   am
   163   103   100    1
   164   107   108    1
   165   100   101    1
   166    83    84    1
   167    83    82    1
   168   123   124   ar
   169   123   122    1
   170   101   102    2
   171    84    85    2
   172   108   118   am
   173   108   109    2
   174   118   119    1
   175   122   119    1
   176   119   120    1
   177   120   121    2
