@<TRIPOS>MOLECULE
tmp/5eduA00.pdb
 159 156 0 0 0
SMALL
GASTEIGER

@<TRIPOS>ATOM
      1  N         -1.7600   20.9640   10.2930 N.3   387  ASP387     -0.1239
      2  CA        -2.4710   20.3770    9.1630 C.3   387  ASP387      0.1674
      3  C         -3.8390   19.8400    9.5840 C.2   387  ASP387      0.2266
      4  O         -3.9360   18.8260   10.2740 O.2   387  ASP387     -0.2867
      5  CB        -1.6330   19.2630    8.5290 C.3   387  ASP387      0.1410
      6  CG        -2.0620   18.9410    7.1060 C.2   387  ASP387      0.3668
      7  OD1       -3.2580   19.1070    6.7850 O.co2 387  ASP387     -0.2456
      8  OD2       -1.2000   18.5210    6.3070 O.co2 387  ASP387     -0.2456
      9  N         -6.0160   18.8360    7.4310 N.3   389  HIS389     -0.1226
     10  CA        -6.4010   17.8640    6.4140 C.3   389  HIS389      0.1752
     11  C         -5.8830   16.4650    6.7340 C.2   389  HIS389      0.2596
     12  O         -6.1270   15.5200    5.9840 O.2   389  HIS389     -0.2718
     13  CB        -5.8890   18.2970    5.0350 C.3   389  HIS389      0.0759
     14  CG        -6.6020   19.5100    4.4910 C.ar  389  HIS389      0.0818
     15  ND1       -7.5340   20.1940    5.1970 N.ar  389  HIS389     -0.2268
     16  CD2       -6.4770   20.1230    3.2810 C.ar  389  HIS389      0.1154
     17  CE1       -7.9880   21.2150    4.4550 C.ar  389  HIS389      0.1986
     18  NE2       -7.3620   21.1800    3.3060 N.ar  389  HIS389     -0.2212
     19  N         -5.1660   16.3370    7.8450 N.am  390  HIS390     -0.1962
     20  CA        -4.6490   15.0400    8.2610 C.3   390  HIS390      0.1772
     21  C         -5.8050   14.1060    8.6180 C.2   390  HIS390      0.2462
     22  O         -6.7210   14.4990    9.3350 O.2   390  HIS390     -0.2730
     23  CB        -3.6950   15.1920    9.4460 C.3   390  HIS390      0.0785
     24  CG        -2.8480   13.9840    9.6930 C.ar  390  HIS390      0.0821
     25  ND1       -3.3390   12.8380   10.2820 N.ar  390  HIS390     -0.2267
     26  CD2       -1.5440   13.7390    9.4260 C.ar  390  HIS390      0.1154
     27  CE1       -2.3750   11.9410   10.3680 C.ar  390  HIS390      0.1986
     28  NE2       -1.2730   12.4640    9.8570 N.ar  390  HIS390     -0.2212
     29  N         -5.7630   12.8640    8.1110 N.am  391  PRO391     -0.2727
     30  CA        -6.8830   11.9220    8.2470 C.3   391  PRO391      0.1402
     31  C         -7.0780   11.3620    9.6580 C.2   391  PRO391      0.2269
     32  O         -8.1830   10.9300    9.9860 O.2   391  PRO391     -0.2865
     33  CB        -6.5100   10.8030    7.2710 C.3   391  PRO391      0.0296
     34  CG        -5.0270   10.8460    7.2060 C.3   391  PRO391      0.0237
     35  CD        -4.6590   12.2980    7.3150 C.3   391  PRO391      0.0939
     36  N          6.1170    9.7380    9.3390 N.3   458  SER458     -0.1217
     37  CA         4.6810   10.0300    9.3070 C.3   458  SER458      0.1889
     38  C          4.0850   10.1900   10.7050 C.2   458  SER458      0.2288
     39  O          3.2300    9.4070   11.1180 O.2   458  SER458     -0.2866
     40  CB         3.9300    8.9360    8.5440 C.3   458  SER458      0.2089
     41  OG         4.4660    8.7620    7.2430 O.3   458  SER458     -0.2183
     42  N         -3.5480    5.2460   16.9130 N.3   498  PRO498     -0.2116
     43  CA        -3.2720    3.8340   16.6170 C.3   498  PRO498      0.1372
     44  C         -1.9380    3.3990   17.2160 C.2   498  PRO498      0.2244
     45  O         -1.1780    4.2530   17.6710 O.2   498  PRO498     -0.2868
     46  CB        -3.2250    3.7920   15.0850 C.3   498  PRO498      0.0268
     47  CG        -3.9620    5.0080   14.6410 C.3   498  PRO498      0.0207
     48  CD        -3.6920    6.0440   15.6830 C.3   498  PRO498      0.0892
     49  N         -0.2220   -0.1350   16.1480 N.3   500  HIS500     -0.1226
     50  CA         0.4190   -1.3150   15.5640 C.3   500  HIS500      0.1752
     51  C          1.6680   -0.9970   14.7310 C.2   500  HIS500      0.2596
     52  O          2.3700   -1.9080   14.2910 O.2   500  HIS500     -0.2718
     53  CB        -0.5890   -2.1040   14.7170 C.3   500  HIS500      0.0759
     54  CG        -0.9890   -1.4290   13.4450 C.ar  500  HIS500      0.0818
     55  ND1       -1.4870   -2.1180   12.3610 N.ar  500  HIS500     -0.2268
     56  CD2       -0.9720   -0.1220   13.0780 C.ar  500  HIS500      0.1154
     57  CE1       -1.7530   -1.2740   11.3820 C.ar  500  HIS500      0.1986
     58  NE2       -1.4490   -0.0530   11.7950 N.ar  500  HIS500     -0.2212
     59  N          1.9500    0.2870   14.5280 N.am  501  HIS501     -0.1975
     60  CA         3.1590    0.6990   13.8120 C.3   501  HIS501      0.1656
     61  C          4.2870    1.0990   14.7610 C.2   501  HIS501      0.2291
     62  O          5.4480    1.1670   14.3600 O.2   501  HIS501     -0.2864
     63  CB         2.8580    1.8640   12.8670 C.3   501  HIS501      0.0771
     64  CG         2.1680    1.4630   11.6030 C.ar  501  HIS501      0.0820
     65  ND1        1.3860    2.3340   10.8750 N.ar  501  HIS501     -0.2267
     66  CD2        2.1500    0.2890   10.9250 C.ar  501  HIS501      0.1154
     67  CE1        0.9150    1.7140    9.8080 C.ar  501  HIS501      0.1986
     68  NE2        1.3640    0.4710    9.8170 N.ar  501  HIS501     -0.2212
     69  N          3.8980    5.8700   11.5900 N.3   509  GLY509     -0.1210
     70  CA         2.5510    5.7060   11.0680 C.3   509  GLY509      0.1956
     71  C          1.4360    6.0750   12.0270 C.2   509  GLY509      0.2612
     72  O          0.5230    5.2800   12.2600 O.2   509  GLY509     -0.2717
     73  N          1.5310    7.2770   12.5910 N.am  510  PHE510     -0.1962
     74  CA         0.5290    7.8370   13.5020 C.3   510  PHE510      0.1771
     75  C          0.4870    7.0880   14.8330 C.2   510  PHE510      0.2619
     76  O         -0.4760    7.2200   15.5870 O.2   510  PHE510     -0.2715
     77  CB        -0.8800    7.8270   12.8790 C.3   510  PHE510      0.0574
     78  CG        -0.9410    8.3160   11.4520 C.ar  510  PHE510     -0.0200
     79  CD1        0.0060    9.1920   10.9450 C.ar  510  PHE510     -0.0042
     80  CD2       -1.9690    7.9010   10.6210 C.ar  510  PHE510     -0.0042
     81  CE1       -0.0620    9.6250    9.6360 C.ar  510  PHE510     -0.0003
     82  CE2       -2.0470    8.3380    9.3140 C.ar  510  PHE510     -0.0003
     83  CZ        -1.0940    9.2040    8.8230 C.ar  510  PHE510     -0.0000
     84  N          1.5240    6.3060   15.1240 N.am  511  CYS511     -0.1968
     85  CA         1.5300    5.4790   16.3300 C.3   511  CYS511      0.1712
     86  C          2.6430    5.8580   17.3010 C.2   511  CYS511      0.2296
     87  O          3.7050    6.3260   16.8950 O.2   511  CYS511     -0.2864
     88  CB         1.6570    4.0010   15.9620 C.3   511  CYS511      0.0983
     89  SG         0.3910    3.4110   14.8210 S.3   511  CYS511     -0.0798
     90  N         -6.0550   -4.4760    9.5690 N.3   539  ASP539     -0.1239
     91  CA        -5.8070   -3.1230    9.0840 C.3   539  ASP539      0.1674
     92  C         -5.2190   -3.2180    7.6830 C.2   539  ASP539      0.2266
     93  O         -4.5900   -4.2170    7.3420 O.2   539  ASP539     -0.2867
     94  CB        -4.8590   -2.3720   10.0260 C.3   539  ASP539      0.1410
     95  CG        -4.6970   -0.9080    9.6540 C.2   539  ASP539      0.3668
     96  OD1       -3.9260   -0.6090    8.7160 O.co2 539  ASP539     -0.2456
     97  OD2       -5.3280   -0.0530   10.3110 O.co2 539  ASP539     -0.2456
     98  N         -2.8510   -1.5990    6.4810 N.3   541  HIS541     -0.1241
     99  CA        -1.4020   -1.4480    6.5590 C.3   541  HIS541      0.1621
    100  C         -0.7910   -2.5600    7.4000 C.2   541  HIS541      0.2264
    101  O         -1.4200   -3.0570    8.3310 O.2   541  HIS541     -0.2867
    102  CB        -1.0250   -0.0880    7.1490 C.3   541  HIS541      0.0745
    103  CG        -1.5620    1.0780    6.3810 C.ar  541  HIS541      0.0817
    104  ND1       -2.7620    1.6790    6.6820 N.ar  541  HIS541     -0.2268
    105  CD2       -1.0550    1.7560    5.3210 C.ar  541  HIS541      0.1154
    106  CE1       -2.9770    2.6780    5.8410 C.ar  541  HIS541      0.1986
    107  NE2       -1.9550    2.7420    5.0070 N.ar  541  HIS541     -0.2212
    108  N          2.7780    1.6710    2.2700 N.3   570  PHE570     -0.1241
    109  CA         3.2540    1.9540    3.6200 C.3   570  PHE570      0.1605
    110  C          3.0260    0.7470    4.5340 C.2   570  PHE570      0.2264
    111  O          1.9830    0.1100    4.4500 O.2   570  PHE570     -0.2867
    112  CB         2.5370    3.1970    4.1570 C.3   570  PHE570      0.0534
    113  CG         3.0310    3.6540    5.4810 C.ar  570  PHE570     -0.0203
    114  CD1        4.1050    4.5140    5.5650 C.ar  570  PHE570     -0.0042
    115  CD2        2.4280    3.2200    6.6450 C.ar  570  PHE570     -0.0042
    116  CE1        4.5700    4.9350    6.7910 C.ar  570  PHE570     -0.0003
    117  CE2        2.8880    3.6380    7.8700 C.ar  570  PHE570     -0.0003
    118  CZ         3.9590    4.4960    7.9430 C.ar  570  PHE570     -0.0000
    119  N         -9.4330    0.8370    7.6750 N.3   632  ASP632     -0.1239
    120  CA        -8.9970    1.5610    6.4840 C.3   632  ASP632      0.1674
    121  C         -8.9290    0.6320    5.2760 C.2   632  ASP632      0.2266
    122  O         -8.5230    1.0370    4.1880 O.2   632  ASP632     -0.2867
    123  CB        -7.6410    2.2270    6.7260 C.3   632  ASP632      0.1410
    124  CG        -6.6420    1.2970    7.3860 C.2   632  ASP632      0.3668
    125  OD1       -7.0600    0.2350    7.8920 O.co2 632  ASP632     -0.2456
    126  OD2       -5.4410    1.6380    7.4100 O.co2 632  ASP632     -0.2456
    127  N         -7.6470    6.0190    1.7850 N.3   639  LEU639     -0.1245
    128  CA        -6.2460    5.6120    1.7840 C.3   639  LEU639      0.1561
    129  C         -6.0200    4.1780    1.3070 C.2   639  LEU639      0.2260
    130  O         -5.0460    3.9040    0.6050 O.2   639  LEU639     -0.2867
    131  CB        -5.6430    5.7670    3.1810 C.3   639  LEU639      0.0270
    132  CG        -5.4300    7.1700    3.7450 C.3   639  LEU639      0.0019
    133  CD1       -4.4120    7.1370    4.8790 C.3   639  LEU639      0.0001
    134  CD2       -4.9920    8.1370    2.6630 C.3   639  LEU639      0.0001
    135  N         -7.4470    0.6020   15.2600 N.3   669  GLU669     -0.1231
    136  CA        -6.1860    1.0720   14.7000 C.3   669  GLU669      0.1699
    137  C         -6.4420    2.1760   13.6790 C.2   669  GLU669      0.2592
    138  O         -6.6890    3.3220   14.0440 O.2   669  GLU669     -0.2718
    139  CB        -5.4150   -0.0810   14.0540 C.3   669  GLU669      0.0402
    140  CG        -5.1100   -1.2410   14.9950 C.3   669  GLU669      0.1161
    141  CD        -3.9630   -0.9540   15.9490 C.2   669  GLU669      0.3649
    142  OE1       -3.6140   -1.8500   16.7460 O.co2 669  GLU669     -0.2457
    143  OE2       -3.4040    0.1610   15.9030 O.co2 669  GLU669     -0.2457
    144  N         -6.3850    1.8260   12.3990 N.am  670  GLY670     -0.1957
    145  CA        -6.6130    2.7890   11.3370 C.3   670  GLY670      0.1869
    146  C         -8.0740    2.9130   10.9480 C.2   670  GLY670      0.2309
    147  O         -8.9600    2.4290   11.6510 O.2   670  GLY670     -0.2863
    148  N        -10.2280    5.9080    8.2230 N.3   672  TYR672     -0.1241
    149  CA       -10.2320    7.3630    8.1000 C.3   672  TYR672      0.1605
    150  C        -11.4520    7.9350    7.3770 C.2   672  TYR672      0.2264
    151  O        -11.5210    9.1370    7.1190 O.2   672  TYR672     -0.2867
    152  CB        -8.9440    7.8070    7.4060 C.3   672  TYR672      0.0534
    153  CG        -7.7290    7.2320    8.0900 C.ar  672  TYR672     -0.0201
    154  CD1       -7.2170    7.8210    9.2370 C.ar  672  TYR672     -0.0009
    155  CD2       -7.1250    6.0720    7.6190 C.ar  672  TYR672     -0.0009
    156  CE1       -6.1220    7.2880    9.8810 C.ar  672  TYR672      0.0417
    157  CE2       -6.0300    5.5310    8.2580 C.ar  672  TYR672      0.0417
    158  CZ        -5.5330    6.1460    9.3900 C.ar  672  TYR672      0.1957
    159  OH        -4.4420    5.6200   10.0370 O.3   672  TYR672     -0.2866
@<TRIPOS>BOND
     1   130   129    2
     2   129   128    1
     3   128   127    1
     4   128   131    1
     5   108   109    1
     6   134   132    1
     7   131   132    1
     8    16    18   ar
     9    16    14   ar
    10    18    17   ar
    11   109   112    1
    12   109   110    1
    13   132   133    1
    14   112   113    1
    15   122   121    2
    16   111   110    2
    17    17    15   ar
    18    14    13    1
    19    14    15   ar
    20   107   105   ar
    21   107   106   ar
    22    13    10    1
    23   121   120    1
    24   105   103   ar
    25   113   114   ar
    26   113   115   ar
    27   114   116   ar
    28   106   104   ar
    29    12    11    2
    30     8     6   ar
    31   103   104   ar
    32   103   102    1
    33    10    11    1
    34    10     9    1
    35    98    99    1
    36   120   123    1
    37   120   119    1
    38    99   102    1
    39    99   100    1
    40   115   117   ar
    41   123   124    1
    42    11    19   am
    43     7     6   ar
    44   116   118   ar
    45     6     5    1
    46   151   150    2
    47    34    33    1
    48    34    35    1
    49    41    40    1
    50    33    30    1
    51    35    29    1
    52    93    92    2
    53   150   149    1
    54   124   126   ar
    55   124   125   ar
    56   100   101    2
    57   152   153    1
    58   152   149    1
    59   155   153   ar
    60   155   157   ar
    61    92    91    1
    62    19    20    1
    63   117   118   ar
    64   153   154   ar
    65   149   148    1
    66    29    30    1
    67    29    21   am
    68    30    31    1
    69   157   158   ar
    70    20    21    1
    71    20    23    1
    72     5     2    1
    73    40    37    1
    74    21    22    2
    75    96    95   ar
    76    83    82   ar
    77    83    81   ar
    78    91    90    1
    79    91    94    1
    80     2     3    1
    81     2     1    1
    82   154   156   ar
    83    37    36    1
    84    37    38    1
    85    82    80   ar
    86   158   156   ar
    87   158   159    1
    88    26    24   ar
    89    26    28   ar
    90    23    24    1
    91     3     4    2
    92    81    79   ar
    93    95    94    1
    94    95    97   ar
    95    31    32    2
    96    24    25   ar
    97    67    68   ar
    98    67    65   ar
    99    68    66   ar
   100    28    27   ar
   101    25    27   ar
   102    80    78   ar
   103    38    39    2
   104    65    64   ar
   105    66    64   ar
   106    79    78   ar
   107   146   145    1
   108   146   147    2
   109    70    69    1
   110    70    71    1
   111   145   144    1
   112    57    58   ar
   113    57    55   ar
   114    78    77    1
   115    64    63    1
   116    58    56   ar
   117    71    72    2
   118    71    73   am
   119    55    54   ar
   120   144   137   am
   121    73    74    1
   122    63    60    1
   123    77    74    1
   124    56    54   ar
   125    54    53    1
   126    74    75    1
   127   137   138    2
   128   137   136    1
   129    60    59    1
   130    60    61    1
   131   139   136    1
   132   139   140    1
   133    52    51    2
   134    62    61    2
   135    59    51   am
   136    47    46    1
   137    47    48    1
   138   136   135    1
   139    53    50    1
   140    51    50    1
   141    89    88    1
   142    75    84   am
   143    75    76    2
   144   140   141    1
   145    46    43    1
   146    84    85    1
   147    50    49    1
   148    48    42    1
   149   143   141   ar
   150   141   142   ar
   151    88    85    1
   152    85    86    1
   153    43    42    1
   154    43    44    1
   155    87    86    2
   156    44    45    2
