@<TRIPOS>MOLECULE
tmp/5ee3B00.pdb
 150 145 0 0 0
SMALL
GASTEIGER

@<TRIPOS>ATOM
      1  N        -48.0290  -36.8170   39.5720 N.3    19  LEU19      -0.1231
      2  CA       -48.5610  -37.8080   38.6290 C.3    19  LEU19       0.1678
      3  C        -49.1650  -38.9990   39.3870 C.2    19  LEU19       0.2434
      4  O        -49.1070  -39.0350   40.6200 O.2    19  LEU19      -0.2733
      5  CB       -47.4540  -38.2780   37.6760 C.3    19  LEU19       0.0284
      6  CG       -46.8660  -37.1970   36.7610 C.3    19  LEU19       0.0019
      7  CD1      -45.7520  -37.7670   35.8960 C.3    19  LEU19       0.0001
      8  CD2      -47.9450  -36.5460   35.9000 C.3    19  LEU19       0.0001
      9  N        -49.7850  -39.9530   38.6640 N.am   20  PRO20      -0.2718
     10  CA       -50.2930  -41.1500   39.3480 C.3    20  PRO20       0.1535
     11  C        -49.2180  -42.0630   39.9590 C.2    20  PRO20       0.2599
     12  O        -48.1130  -42.1700   39.4280 O.2    20  PRO20      -0.2715
     13  CB       -51.0540  -41.8820   38.2410 C.3    20  PRO20       0.0310
     14  CG       -51.5090  -40.7950   37.3290 C.3    20  PRO20       0.0237
     15  CD       -50.3790  -39.8110   37.3180 C.3    20  PRO20       0.0939
     16  N        -49.5740  -42.7050   41.0710 N.am   21  ASN21      -0.1959
     17  CA       -48.7240  -43.6740   41.7750 C.3    21  ASN21       0.1819
     18  C        -47.3420  -43.1650   42.1930 C.2    21  ASN21       0.2621
     19  O        -46.3500  -43.8920   42.1140 O.2    21  ASN21      -0.2715
     20  CB       -48.6110  -44.9690   40.9560 C.3    21  ASN21       0.1195
     21  CG       -49.9570  -45.6260   40.7110 C.2    21  ASN21       0.2630
     22  OD1      -50.9290  -45.3800   41.4300 O.2    21  ASN21      -0.2716
     23  ND2      -50.0200  -46.4740   39.6920 N.am   21  ASN21      -0.0877
     24  N        -47.2950  -41.9140   42.6480 N.am   22  VAL22      -0.1963
     25  CA       -46.0830  -41.3330   43.2530 C.3    22  VAL22       0.1727
     26  C        -46.1220  -41.3110   44.7930 C.2    22  VAL22       0.2617
     27  O        -45.0770  -41.2290   45.4240 O.2    22  VAL22      -0.2715
     28  CB       -45.7790  -39.9190   42.6980 C.3    22  VAL22       0.0290
     29  CG1      -45.7940  -39.9360   41.1740 C.3    22  VAL22       0.0023
     30  CG2      -46.7480  -38.8680   43.2410 C.3    22  VAL22       0.0023
     31  N        -47.3120  -41.4020   45.3870 N.am   23  GLY23      -0.1940
     32  CA       -47.4790  -41.3970   46.8490 C.3    23  GLY23       0.2014
     33  C        -48.2230  -40.2090   47.4570 C.2    23  GLY23       0.2639
     34  O        -48.0610  -39.9230   48.6450 O.2    23  GLY23      -0.2714
     35  N        -49.0490  -39.5320   46.6610 N.am   24  LYS24      -0.1963
     36  CA       -49.8370  -38.3930   47.1320 C.3    24  LYS24       0.1728
     37  C        -50.8580  -38.7950   48.1830 C.2    24  LYS24       0.2617
     38  O        -50.9290  -38.1930   49.2570 O.2    24  LYS24      -0.2715
     39  CB       -50.5960  -37.7540   45.9760 C.3    24  LYS24       0.0311
     40  CG       -49.7250  -37.1410   44.9000 C.3    24  LYS24       0.0038
     41  CD       -50.5830  -36.4310   43.8720 C.3    24  LYS24       0.0206
     42  CE       -51.3200  -37.4070   42.9700 C.3    24  LYS24       0.1093
     43  NZ       -52.0840  -36.6800   41.9230 N.3    24  LYS24      -0.1314
     44  N        -51.6610  -39.8010   47.8470 N.am   25  SER25      -0.1936
     45  CA       -52.7280  -40.2820   48.7190 C.3    25  SER25       0.2055
     46  C        -52.1530  -40.8730   49.9980 C.2    25  SER25       0.2643
     47  O        -52.6610  -40.6110   51.0860 O.2    25  SER25      -0.2714
     48  CB       -53.5900  -41.3120   47.9910 C.3    25  SER25       0.2130
     49  OG       -54.1810  -40.7310   46.8380 O.3    25  SER25      -0.2179
     50  N        -51.0830  -41.6500   49.8600 N.am   26  THR26      -0.1950
     51  CA       -50.3440  -42.1620   51.0080 C.3    26  THR26       0.1897
     52  C        -49.8510  -41.0240   51.8950 C.2    26  THR26       0.2313
     53  O        -50.0080  -41.0810   53.1160 O.2    26  THR26      -0.2863
     54  CB       -49.1440  -43.0230   50.5620 C.3    26  THR26       0.1794
     55  OG1      -49.6120  -44.0560   49.6880 O.3    26  THR26      -0.2208
     56  CG2      -48.4240  -43.6520   51.7690 C.3    26  THR26       0.0378
     57  N        -55.8770  -35.0980   44.0550 N.3    83  ALA83      -0.1245
     58  CA       -56.1580  -36.3360   43.3150 C.3    83  ALA83       0.1562
     59  C        -57.5220  -36.9530   43.6490 C.2    83  ALA83       0.2260
     60  O        -58.1990  -37.4660   42.7550 O.2    83  ALA83      -0.2867
     61  CB       -55.0550  -37.3580   43.5580 C.3    83  ALA83       0.0290
     62  N        -60.5070  -38.3140   40.2860 N.3    87  ARG87      -0.1245
     63  CA       -60.8530  -39.7300   40.0440 C.3    87  ARG87       0.1563
     64  C        -61.6140  -39.9720   38.7340 C.2    87  ARG87       0.2260
     65  O        -61.0220  -40.3170   37.7100 O.2    87  ARG87      -0.2867
     66  CB       -61.6450  -40.3000   41.2290 C.3    87  ARG87       0.0307
     67  CG       -60.7830  -40.3890   42.4920 C.3    87  ARG87       0.0489
     68  CD       -60.0040  -41.7060   42.4240 C.3    87  ARG87       0.2205
     69  NE       -59.3030  -41.8920   43.7380 N.pl3  87  ARG87      -0.0865
     70  CZ       -58.1450  -41.2850   43.9970 C.cat  87  ARG87       0.5346
     71  NH1      -57.4730  -40.5550   43.1090 N.pl3  87  ARG87       0.1354
     72  NH2      -57.7010  -41.2710   45.2690 N.pl3  87  ARG87       0.1354
     73  N        -41.8950  -39.2470   42.1050 N.3   110  ARG110     -0.1245
     74  CA       -41.4910  -40.6480   42.2570 C.3   110  ARG110      0.1563
     75  C        -39.9830  -40.7490   42.0590 C.2   110  ARG110      0.2260
     76  O        -39.4680  -40.3880   41.0050 O.2   110  ARG110     -0.2867
     77  CB       -42.2220  -41.5580   41.2540 C.3   110  ARG110      0.0307
     78  CG       -41.8390  -43.0090   41.4790 C.3   110  ARG110      0.0489
     79  CD       -42.8790  -43.8450   40.7860 C.3   110  ARG110      0.2205
     80  NE       -43.0690  -45.1260   41.4670 N.pl3 110  ARG110     -0.0865
     81  CZ       -42.9940  -46.2750   40.7320 C.cat 110  ARG110      0.5346
     82  NH1      -42.8050  -46.2990   39.4050 N.pl3 110  ARG110      0.1354
     83  NH2      -43.0730  -47.4030   41.4370 N.pl3 110  ARG110      0.1354
     84  N        -38.2510  -43.8200   43.2850 N.3   112  PHE112     -0.1227
     85  CA       -38.0760  -45.1780   43.7960 C.3   112  PHE112      0.1736
     86  C        -38.5390  -46.2130   42.7770 C.2   112  PHE112      0.2595
     87  O        -39.2540  -45.8900   41.8260 O.2   112  PHE112     -0.2718
     88  CB       -38.8160  -45.3670   45.1280 C.3   112  PHE112      0.0547
     89  CG       -40.3190  -45.3530   45.0080 C.ar  112  PHE112     -0.0202
     90  CD1      -41.0250  -44.1540   45.0530 C.ar  112  PHE112     -0.0042
     91  CD2      -41.0320  -46.5440   44.8600 C.ar  112  PHE112     -0.0042
     92  CE1      -42.4080  -44.1410   44.9460 C.ar  112  PHE112     -0.0003
     93  CE2      -42.4170  -46.5370   44.7470 C.ar  112  PHE112     -0.0003
     94  CZ       -43.1060  -45.3330   44.7880 C.ar  112  PHE112     -0.0000
     95  N        -38.1270  -47.4570   43.0090 N.am  113  GLU113     -0.1965
     96  CA       -38.4240  -48.5880   42.1320 C.3   113  GLU113      0.1733
     97  C        -39.2870  -49.5820   42.9100 C.2   113  GLU113      0.2616
     98  O        -39.0980  -49.7510   44.1160 O.2   113  GLU113     -0.2715
     99  CB       -37.1220  -49.2640   41.6760 C.3   113  GLU113      0.0429
    100  CG       -35.9830  -48.3210   41.2660 C.3   113  GLU113      0.1163
    101  CD       -36.1540  -47.7010   39.8870 C.2   113  GLU113      0.3649
    102  OE1      -35.1400  -47.2280   39.3310 O.co2 113  GLU113     -0.2457
    103  OE2      -37.2830  -47.6850   39.3460 O.co2 113  GLU113     -0.2457
    104  N        -40.2340  -50.2240   42.2250 N.am  114  ASP114     -0.1971
    105  CA       -41.1730  -51.1580   42.8680 C.3   114  ASP114      0.1709
    106  C        -41.8530  -52.0700   41.8370 C.2   114  ASP114      0.2293
    107  O        -41.4070  -52.1400   40.6870 O.2   114  ASP114     -0.2864
    108  CB       -42.2160  -50.3770   43.6790 C.3   114  ASP114      0.1436
    109  CG       -42.7860  -51.1190   44.8720 C.2   114  ASP114      0.3671
    110  OD1      -42.5370  -52.3040   45.0650 O.co2 114  ASP114     -0.2456
    111  OD2      -43.5720  -50.4560   45.5770 O.co2 114  ASP114     -0.2456
    112  N        -40.0650  -38.3920   46.8830 N.3   207  ASN207     -0.1225
    113  CA       -40.4710  -39.6410   47.5290 C.3   207  ASN207      0.1785
    114  C        -39.5630  -40.8170   47.1450 C.2   207  ASN207      0.2597
    115  O        -39.4070  -41.1290   45.9640 O.2   207  ASN207     -0.2718
    116  CB       -41.9260  -39.9620   47.1770 C.3   207  ASN207      0.1169
    117  CG       -42.4780  -41.1440   47.9640 C.2   207  ASN207      0.2627
    118  OD1      -42.0360  -41.4380   49.0750 O.2   207  ASN207     -0.2716
    119  ND2      -43.4560  -41.8290   47.3850 N.am  207  ASN207     -0.0877
    120  N        -38.9840  -41.4670   48.1510 N.am  208  MET208     -0.1965
    121  CA       -38.0370  -42.5650   47.9430 C.3   208  MET208      0.1736
    122  C        -38.1950  -43.6720   48.9830 C.2   208  MET208      0.2617
    123  O        -38.9160  -43.5120   49.9680 O.2   208  MET208     -0.2715
    124  CB       -36.6040  -42.0320   47.9720 C.3   208  MET208      0.0427
    125  CG       -36.1780  -41.4030   49.2880 C.3   208  MET208      0.0599
    126  SD       -34.6480  -40.4660   49.1430 S.3   208  MET208     -0.1393
    127  CE       -35.0940  -39.2120   47.9410 C.3   208  MET208      0.0692
    128  N        -37.5160  -44.7940   48.7500 N.am  209  SER209     -0.1950
    129  CA       -37.5030  -45.9130   49.6940 C.3   209  SER209      0.1924
    130  C        -36.9780  -45.4700   51.0570 C.2   209  SER209      0.2314
    131  O        -36.2050  -44.5140   51.1360 O.2   209  SER209     -0.2863
    132  CB       -36.6090  -47.0270   49.1630 C.3   209  SER209      0.2116
    133  OG       -35.2600  -46.5920   49.1030 O.3   209  SER209     -0.2180
    134  N        -39.6110  -40.4250   52.6690 N.3   240  SER240     -0.1202
    135  CA       -40.1240  -41.7490   52.3260 C.3   240  SER240      0.2020
    136  C        -41.5110  -41.9440   52.9180 C.2   240  SER240      0.2619
    137  O        -41.6460  -42.0710   54.1330 O.2   240  SER240     -0.2717
    138  CB       -39.1780  -42.8310   52.8640 C.3   240  SER240      0.2103
    139  OG       -39.7340  -44.1320   52.7300 O.3   240  SER240     -0.2182
    140  N        -42.5320  -41.9630   52.0620 N.am  241  CYS241     -0.1955
    141  CA       -43.8940  -42.3530   52.4720 C.3   241  CYS241      0.1843
    142  C        -43.9450  -43.6510   53.2700 C.2   241  CYS241      0.2625
    143  O        -44.6130  -43.7200   54.3080 O.2   241  CYS241     -0.2714
    144  CB       -44.8180  -42.4860   51.2640 C.3   241  CYS241      0.0997
    145  SG       -45.6480  -40.9420   50.8880 S.3   241  CYS241     -0.0797
    146  N        -43.2370  -44.6650   52.7740 N.am  242  ALA242     -0.1977
    147  CA       -43.1600  -45.9660   53.4250 C.3   242  ALA242      0.1597
    148  C        -42.7370  -45.8010   54.8820 C.2   242  ALA242      0.2287
    149  O        -43.4370  -46.2430   55.7970 O.2   242  ALA242     -0.2864
    150  CB       -42.1850  -46.8700   52.6820 C.3   242  ALA242      0.0319
@<TRIPOS>BOND
     1     7     6    1
     2     8     6    1
     3     6     5    1
     4    15    14    1
     5    15     9    1
     6    14    13    1
     7     5     2    1
     8    65    64    2
     9    13    10    1
    10     2     3    1
    11     2     1    1
    12     9    10    1
    13     9     3   am
    14    64    63    1
    15   102   101   ar
    16   103   101   ar
    17    10    11    1
    18     3     4    2
    19    82    81    1
    20    12    11    2
    21    23    21   am
    22   101   100    1
    23    11    16   am
    24    63    62    1
    25    63    66    1
    26   107   106    2
    27    21    20    1
    28    21    22    2
    29    81    83    1
    30    81    80    2
    31    79    80    1
    32    79    78    1
    33    20    17    1
    34    76    75    2
    35    16    17    1
    36    29    28    1
    37    66    67    1
    38    77    78    1
    39    77    74    1
    40   100    99    1
    41    99    96    1
    42    17    18    1
    43    87    86    2
    44   106   105    1
    45    43    42    1
    46    75    74    1
    47    73    74    1
    48    19    18    2
    49    96    97    1
    50    96    95    1
    51    18    24   am
    52   104   105    1
    53   104    97   am
    54    68    67    1
    55    68    69    1
    56    24    25    1
    57    28    30    1
    58    28    25    1
    59    60    59    2
    60    86    95   am
    61    86    85    1
    62   105   108    1
    63    97    98    2
    64    42    41    1
    65    71    70    1
    66    25    26    1
    67    84    85    1
    68    58    61    1
    69    58    59    1
    70    58    57    1
    71   108   109    1
    72    69    70    2
    73    85    88    1
    74    41    40    1
    75    70    72    1
    76    93    94   ar
    77    93    91   ar
    78    94    92   ar
    79    26    31   am
    80    26    27    2
    81    91    89   ar
    82   109   110   ar
    83   109   111   ar
    84    40    39    1
    85    92    90   ar
    86    89    90   ar
    87    89    88    1
    88    31    32    1
    89   115   114    2
    90    39    36    1
    91    35    36    1
    92    35    33   am
    93    49    48    1
    94    32    33    1
    95   112   113    1
    96    36    37    1
    97   114   113    1
    98   114   120   am
    99   116   113    1
   100   116   117    1
   101   119   117   am
   102    33    34    2
   103    44    37   am
   104    44    45    1
   105   127   126    1
   106   121   124    1
   107   121   120    1
   108   121   122    1
   109   117   118    2
   110   124   125    1
   111    48    45    1
   112    37    38    2
   113    45    46    1
   114   128   122   am
   115   128   129    1
   116   122   123    2
   117   133   132    1
   118   126   125    1
   119   132   129    1
   120    55    54    1
   121   129   130    1
   122    50    46   am
   123    50    51    1
   124    46    47    2
   125    54    51    1
   126    54    56    1
   127   145   144    1
   128    51    52    1
   129   130   131    2
   130   144   141    1
   131    52    53    2
   132   140   141    1
   133   140   136   am
   134   135   134    1
   135   135   138    1
   136   135   136    1
   137   141   142    1
   138   150   147    1
   139   139   138    1
   140   146   142   am
   141   146   147    1
   142   136   137    2
   143   142   143    2
   144   147   148    1
   145   148   149    2
