@<TRIPOS>MOLECULE
tmp/5ee7A06.pdb
 101 96 0 0 0
SMALL
GASTEIGER

@<TRIPOS>ATOM
      1  N        -22.6460   -2.5530  -45.2990 N.3   360  LEU360     -0.1245
      2  CA       -23.1940   -1.7960  -46.4200 C.3   360  LEU360      0.1561
      3  C        -22.0800   -1.3930  -47.3650 C.2   360  LEU360      0.2260
      4  O        -22.1270   -1.6840  -48.5680 O.2   360  LEU360     -0.2867
      5  CB       -23.9440   -0.5570  -45.9280 C.3   360  LEU360      0.0270
      6  CG       -24.8130    0.1940  -46.9410 C.3   360  LEU360      0.0019
      7  CD1      -25.8240   -0.7420  -47.5830 C.3   360  LEU360      0.0001
      8  CD2      -25.5210    1.3580  -46.2690 C.3   360  LEU360      0.0001
      9  N        -21.1140   -3.1900  -50.8930 N.3   364  HIS364     -0.1241
     10  CA       -21.1310   -2.2930  -52.0370 C.3   364  HIS364      0.1621
     11  C        -19.8010   -2.3180  -52.7850 C.2   364  HIS364      0.2264
     12  O        -19.7800   -2.3350  -54.0180 O.2   364  HIS364     -0.2867
     13  CB       -21.4420   -0.8590  -51.6180 C.3   364  HIS364      0.0745
     14  CG       -21.0200    0.1530  -52.6340 C.ar  364  HIS364      0.0817
     15  ND1      -21.7710    0.4430  -53.7530 N.ar  364  HIS364     -0.2268
     16  CD2      -19.9010    0.9100  -52.7250 C.ar  364  HIS364      0.1154
     17  CE1      -21.1400    1.3490  -54.4800 C.ar  364  HIS364      0.1986
     18  NE2      -20.0030    1.6490  -53.8780 N.ar  364  HIS364     -0.2212
     19  N        -19.4780   -5.6400  -54.7150 N.3   367  VAL367     -0.1245
     20  CA       -20.3550   -5.6110  -55.8770 C.3   367  VAL367      0.1561
     21  C        -19.7460   -4.7410  -56.9680 C.2   367  VAL367      0.2260
     22  O        -19.7540   -5.1060  -58.1450 O.2   367  VAL367     -0.2867
     23  CB       -21.7630   -5.0780  -55.5060 C.3   367  VAL367      0.0252
     24  CG1      -22.5050   -4.5830  -56.7380 C.3   367  VAL367      0.0019
     25  CG2      -22.5660   -6.1480  -54.7790 C.3   367  VAL367      0.0019
     26  N        -26.2350    2.8740  -61.2220 N.3   382  PHE382     -0.1227
     27  CA       -27.1270    2.8060  -60.0740 C.3   382  PHE382      0.1736
     28  C        -26.3350    2.7940  -58.7710 C.2   382  PHE382      0.2595
     29  O        -26.5770    3.6110  -57.8660 O.2   382  PHE382     -0.2718
     30  CB       -28.0220    1.5670  -60.1640 C.3   382  PHE382      0.0547
     31  CG       -29.0030    1.4480  -59.0340 C.ar  382  PHE382     -0.0202
     32  CD1      -30.1790    2.1780  -59.0410 C.ar  382  PHE382     -0.0042
     33  CD2      -28.7470    0.6100  -57.9620 C.ar  382  PHE382     -0.0042
     34  CE1      -31.0810    2.0750  -57.9980 C.ar  382  PHE382     -0.0003
     35  CE2      -29.6480    0.5030  -56.9170 C.ar  382  PHE382     -0.0003
     36  CZ       -30.8160    1.2350  -56.9370 C.ar  382  PHE382     -0.0000
     37  N        -25.3680    1.8840  -58.6930 N.am  383  ASP383     -0.1974
     38  CA       -24.5820    1.7340  -57.4760 C.3   383  ASP383      0.1709
     39  C        -23.7550    2.9730  -57.1650 C.2   383  ASP383      0.2293
     40  O        -23.5930    3.3290  -56.0040 O.2   383  ASP383     -0.2864
     41  CB       -23.6590    0.5160  -57.5780 C.3   383  ASP383      0.1436
     42  CG       -24.3740   -0.7850  -57.2820 C.2   383  ASP383      0.3671
     43  OD1      -25.2750   -0.7850  -56.4150 O.co2 383  ASP383     -0.2456
     44  OD2      -24.0310   -1.8080  -57.9100 O.co2 383  ASP383     -0.2456
     45  N        -26.1580    5.7980  -55.8780 N.3   386  LEU386     -0.1231
     46  CA       -26.4270    5.6420  -54.4510 C.3   386  LEU386      0.1693
     47  C        -25.1800    5.8360  -53.5810 C.2   386  LEU386      0.2592
     48  O        -25.2660    6.3540  -52.4660 O.2   386  LEU386     -0.2718
     49  CB       -27.0430    4.2710  -54.1750 C.3   386  LEU386      0.0284
     50  CG       -28.4420    4.0630  -54.7530 C.3   386  LEU386      0.0019
     51  CD1      -29.0420    2.7660  -54.2450 C.3   386  LEU386      0.0001
     52  CD2      -29.3360    5.2390  -54.4100 C.3   386  LEU386      0.0001
     53  N        -24.0220    5.4340  -54.0940 N.am  387  SER387     -0.1952
     54  CA       -22.7860    5.5100  -53.3210 C.3   387  SER387      0.1924
     55  C        -22.3170    6.9480  -53.1340 C.2   387  SER387      0.2314
     56  O        -21.5600    7.2450  -52.2080 O.2   387  SER387     -0.2863
     57  CB       -21.6790    4.6870  -53.9840 C.3   387  SER387      0.2116
     58  OG       -21.0110    5.4250  -54.9920 O.3   387  SER387     -0.2180
     59  N        -24.0200    9.2600  -52.0760 N.3   389  PHE389     -0.1227
     60  CA       -24.6720    9.7570  -50.8570 C.3   389  PHE389      0.1736
     61  C        -24.0900    9.1740  -49.5620 C.2   389  PHE389      0.2595
     62  O        -24.5800    9.4620  -48.4560 O.2   389  PHE389     -0.2718
     63  CB       -26.1780    9.4750  -50.9130 C.3   389  PHE389      0.0547
     64  CG       -26.9230   10.3470  -51.8880 C.ar  389  PHE389     -0.0202
     65  CD1      -27.0180    9.9900  -53.2220 C.ar  389  PHE389     -0.0042
     66  CD2      -27.5280   11.5260  -51.4680 C.ar  389  PHE389     -0.0042
     67  CE1      -27.6990   10.7880  -54.1230 C.ar  389  PHE389     -0.0003
     68  CE2      -28.2140   12.3320  -52.3640 C.ar  389  PHE389     -0.0003
     69  CZ       -28.2990   11.9610  -53.6930 C.ar  389  PHE389     -0.0000
     70  N        -23.0530    8.3530  -49.6930 N.am  390  GLN390     -0.1979
     71  CA       -22.4950    7.6530  -48.5370 C.3   390  GLN390      0.1601
     72  C        -21.9180    8.5940  -47.4800 C.2   390  GLN390      0.2287
     73  O        -21.9910    8.2980  -46.2860 O.2   390  GLN390     -0.2864
     74  CB       -21.4180    6.6660  -48.9920 C.3   390  GLN390      0.0394
     75  CG       -21.9790    5.3550  -49.5280 C.3   390  GLN390      0.0908
     76  CD       -20.9010    4.4450  -50.0880 C.2   390  GLN390      0.2608
     77  OE1      -19.7580    4.8580  -50.2570 O.2   390  GLN390     -0.2717
     78  NE2      -21.2650    3.2010  -50.3820 N.am  390  GLN390     -0.0878
     79  N        -23.0370   11.5330  -46.7870 N.3   392  LEU392     -0.1231
     80  CA       -24.2160   12.0240  -46.0970 C.3   392  LEU392      0.1693
     81  C        -24.6860   10.9860  -45.0930 C.2   392  LEU392      0.2591
     82  O        -25.0060   11.3200  -43.9500 O.2   392  LEU392     -0.2718
     83  CB       -25.3310   12.3420  -47.0950 C.3   392  LEU392      0.0284
     84  CG       -26.7140   12.6750  -46.5270 C.3   392  LEU392      0.0019
     85  CD1      -26.6500   13.9250  -45.6780 C.3   392  LEU392      0.0001
     86  CD2      -27.7280   12.8420  -47.6450 C.3   392  LEU392      0.0001
     87  N        -24.6790    9.7170  -45.5020 N.am  393  LEU393     -0.1980
     88  CA       -25.1470    8.6590  -44.6080 C.3   393  LEU393      0.1596
     89  C        -24.2640    8.5240  -43.3730 C.2   393  LEU393      0.2287
     90  O        -24.7640    8.3550  -42.2590 O.2   393  LEU393     -0.2864
     91  CB       -25.2080    7.3200  -45.3370 C.3   393  LEU393      0.0297
     92  CG       -25.6380    6.1520  -44.4460 C.3   393  LEU393      0.0022
     93  CD1      -27.0780    6.3330  -43.9900 C.3   393  LEU393      0.0001
     94  CD2      -25.4550    4.8250  -45.1570 C.3   393  LEU393      0.0001
     95  N        -24.8200   11.4390  -41.0450 N.3   396  VAL396     -0.1245
     96  CA       -26.0920   11.3300  -40.3450 C.3   396  VAL396      0.1561
     97  C        -26.0240   10.2910  -39.2290 C.2   396  VAL396      0.2260
     98  O        -26.4580   10.5410  -38.1030 O.2   396  VAL396     -0.2867
     99  CB       -27.2410   10.9680  -41.3140 C.3   396  VAL396      0.0252
    100  CG1      -28.4760   10.5240  -40.5430 C.3   396  VAL396      0.0019
    101  CG2      -27.5650   12.1450  -42.2200 C.3   396  VAL396      0.0019
@<TRIPOS>BOND
     1    26    27    1
     2    30    27    1
     3    30    31    1
     4    27    28    1
     5    32    31   ar
     6    32    34   ar
     7    31    33   ar
     8    28    37   am
     9    28    29    2
    10    37    38    1
    11    22    21    2
    12    34    36   ar
    13    33    35   ar
    14    44    42   ar
    15    41    38    1
    16    41    42    1
    17    38    39    1
    18    42    43   ar
    19    39    40    2
    20    21    20    1
    21    36    35   ar
    22    24    23    1
    23    45    46    1
    24    20    23    1
    25    20    19    1
    26    23    25    1
    27    58    57    1
    28    50    52    1
    29    50    51    1
    30    50    49    1
    31    17    18   ar
    32    17    15   ar
    33    46    49    1
    34    46    47    1
    35    67    69   ar
    36    67    65   ar
    37    53    47   am
    38    53    54    1
    39    12    11    2
    40    57    54    1
    41    18    16   ar
    42    15    14   ar
    43    69    68   ar
    44    47    48    2
    45    54    55    1
    46    65    64   ar
    47    55    56    2
    48    11    10    1
    49    16    14   ar
    50    14    13    1
    51    68    66   ar
    52    59    60    1
    53    10    13    1
    54    10     9    1
    55    64    66   ar
    56    64    63    1
    57    63    60    1
    58    60    61    1
    59    78    76   am
    60    77    76    2
    61    76    75    1
    62    70    61   am
    63    70    71    1
    64    61    62    2
    65    75    74    1
    66    74    71    1
    67     4     3    2
    68    71    72    1
    69    86    84    1
    70     7     6    1
    71    72    73    2
    72     3     2    1
    73    83    84    1
    74    83    80    1
    75     6     8    1
    76     6     5    1
    77    79    80    1
    78    84    85    1
    79     2     5    1
    80     2     1    1
    81    80    81    1
    82    87    81   am
    83    87    88    1
    84    91    88    1
    85    91    92    1
    86    94    92    1
    87    81    82    2
    88    88    89    1
    89    92    93    1
    90    89    90    2
    91   101    99    1
    92    99   100    1
    93    99    96    1
    94    95    96    1
    95    96    97    1
    96    97    98    2
