@<TRIPOS>MOLECULE
tmp/5ee7A02.pdb
 238 228 0 0 0
SMALL
GASTEIGER

@<TRIPOS>ATOM
      1  N        -26.1730    9.2480  -69.1990 N.3     1  TYR1       -0.1241
      2  CA       -25.0840    9.7170  -68.3520 C.3     1  TYR1        0.1605
      3  C        -25.3880   11.0920  -67.7650 C.2     1  TYR1        0.2264
      4  O        -24.8440   11.4640  -66.7240 O.2     1  TYR1       -0.2867
      5  CB       -23.7720    9.7660  -69.1390 C.3     1  TYR1        0.0534
      6  CG       -22.5540    9.9530  -68.2630 C.ar    1  TYR1       -0.0201
      7  CD1      -22.0700   11.2240  -67.9680 C.ar    1  TYR1       -0.0009
      8  CD2      -21.8930    8.8600  -67.7230 C.ar    1  TYR1       -0.0009
      9  CE1      -20.9610   11.3970  -67.1590 C.ar    1  TYR1        0.0417
     10  CE2      -20.7830    9.0230  -66.9170 C.ar    1  TYR1        0.0417
     11  CZ       -20.3210   10.2930  -66.6370 C.ar    1  TYR1        0.1957
     12  OH       -19.2150   10.4560  -65.8340 O.3     1  TYR1       -0.2866
     13  N        -27.1860   10.5450  -64.5620 N.3     4  PHE4       -0.1241
     14  CA       -26.2500    9.9320  -63.6270 C.3     4  PHE4        0.1605
     15  C        -25.2950   10.9810  -63.0740 C.2     4  PHE4        0.2264
     16  O        -24.9900   11.0020  -61.8720 O.2     4  PHE4       -0.2867
     17  CB       -25.4770    8.8030  -64.3210 C.3     4  PHE4        0.0534
     18  CG       -24.3130    8.2790  -63.5300 C.ar    4  PHE4       -0.0203
     19  CD1      -24.5130    7.5690  -62.3570 C.ar    4  PHE4       -0.0042
     20  CD2      -23.0160    8.4790  -63.9710 C.ar    4  PHE4       -0.0042
     21  CE1      -23.4370    7.0810  -61.6300 C.ar    4  PHE4       -0.0003
     22  CE2      -21.9390    7.9920  -63.2510 C.ar    4  PHE4       -0.0003
     23  CZ       -22.1520    7.2900  -62.0780 C.ar    4  PHE4       -0.0000
     24  N        -24.9750   11.9650  -59.0720 N.3     8  TYR8       -0.1241
     25  CA       -23.7930   11.8980  -58.2170 C.3     8  TYR8        0.1605
     26  C        -23.2630   13.2940  -57.8750 C.2     8  TYR8        0.2264
     27  O        -22.5770   13.4580  -56.8640 O.2     8  TYR8       -0.2867
     28  CB       -22.6860   11.0070  -58.8230 C.3     8  TYR8        0.0534
     29  CG       -21.9110   11.5230  -60.0240 C.ar    8  TYR8       -0.0201
     30  CD1      -21.0650   12.6250  -59.9280 C.ar    8  TYR8       -0.0009
     31  CD2      -21.9650   10.8500  -61.2390 C.ar    8  TYR8       -0.0009
     32  CE1      -20.3460   13.0730  -61.0180 C.ar    8  TYR8        0.0417
     33  CE2      -21.2470   11.2870  -62.3320 C.ar    8  TYR8        0.0417
     34  CZ       -20.4400   12.3990  -62.2170 C.ar    8  TYR8        0.1957
     35  OH       -19.7230   12.8330  -63.3060 O.3     8  TYR8       -0.2866
     36  N        -22.5640   13.9250  -53.9900 N.3    12  TYR12      -0.1241
     37  CA       -21.2860   14.3300  -53.4180 C.3    12  TYR12       0.1605
     38  C        -21.3040   15.7390  -52.8340 C.2    12  TYR12       0.2264
     39  O        -20.6470   15.9920  -51.8220 O.2    12  TYR12      -0.2867
     40  CB       -20.1730   14.2100  -54.4580 C.3    12  TYR12       0.0534
     41  CG       -19.7410   12.7810  -54.6770 C.ar   12  TYR12      -0.0201
     42  CD1      -19.1550   12.0520  -53.6510 C.ar   12  TYR12      -0.0009
     43  CD2      -19.9320   12.1540  -55.8990 C.ar   12  TYR12      -0.0009
     44  CE1      -18.7670   10.7430  -53.8360 C.ar   12  TYR12       0.0417
     45  CE2      -19.5450   10.8430  -56.0970 C.ar   12  TYR12       0.0417
     46  CZ       -18.9630   10.1430  -55.0610 C.ar   12  TYR12       0.1957
     47  OH       -18.5760    8.8370  -55.2470 O.3    12  TYR12      -0.2866
     48  N        -14.0280   11.0990  -46.4560 N.3    47  PHE47      -0.1241
     49  CA       -15.1170   11.3050  -47.4160 C.3    47  PHE47       0.1605
     50  C        -15.1320   12.7210  -48.0020 C.2    47  PHE47       0.2264
     51  O        -15.5620   12.9230  -49.1370 O.2    47  PHE47      -0.2867
     52  CB       -16.4710   10.9800  -46.7840 C.3    47  PHE47       0.0534
     53  CG       -16.7840    9.5130  -46.7500 C.ar   47  PHE47      -0.0203
     54  CD1      -17.2510    8.8670  -47.8860 C.ar   47  PHE47      -0.0042
     55  CD2      -16.5940    8.7760  -45.5930 C.ar   47  PHE47      -0.0042
     56  CE1      -17.5300    7.5160  -47.8680 C.ar   47  PHE47      -0.0003
     57  CE2      -16.8700    7.4210  -45.5660 C.ar   47  PHE47      -0.0003
     58  CZ       -17.3410    6.7900  -46.7060 C.ar   47  PHE47      -0.0000
     59  N        -12.6560   12.6450  -50.7450 N.3    50  LYS50      -0.1245
     60  CA       -13.2020   11.9560  -51.9010 C.3    50  LYS50       0.1561
     61  C        -14.1570   12.8560  -52.6690 C.2    50  LYS50       0.2260
     62  O        -13.9930   13.0500  -53.8740 O.2    50  LYS50      -0.2867
     63  CB       -13.9280   10.6750  -51.4940 C.3    50  LYS50       0.0271
     64  CG       -14.5320    9.9570  -52.6850 C.3    50  LYS50       0.0035
     65  CD       -15.3560    8.7530  -52.2890 C.3    50  LYS50       0.0206
     66  CE       -15.8250    8.0200  -53.5330 C.3    50  LYS50       0.1093
     67  NZ       -16.7300    6.8870  -53.2160 N.3    50  LYS50      -0.1314
     68  N        -13.9070   14.3960  -56.4540 N.3    54  VAL54      -0.1245
     69  CA       -14.8760   14.0190  -57.4760 C.3    54  VAL54       0.1561
     70  C        -15.4910   15.2490  -58.1230 C.2    54  VAL54       0.2260
     71  O        -15.5670   15.3450  -59.3480 O.2    54  VAL54      -0.2867
     72  CB       -16.0170   13.1440  -56.9020 C.3    54  VAL54       0.0252
     73  CG1      -17.1160   12.9570  -57.9390 C.3    54  VAL54       0.0019
     74  CG2      -15.4860   11.8010  -56.4400 C.3    54  VAL54       0.0019
     75  N        -12.7660   17.0510  -60.3310 N.3    57  ILE57      -0.1231
     76  CA       -12.4890   16.3260  -61.5660 C.3    57  ILE57       0.1692
     77  C        -13.6640   16.4570  -62.5250 C.2    57  ILE57       0.2592
     78  O        -13.4880   16.6330  -63.7370 O.2    57  ILE57      -0.2718
     79  CB       -12.2260   14.8230  -61.2890 C.3    57  ILE57       0.0266
     80  CG1      -10.8990   14.6330  -60.5540 C.3    57  ILE57       0.0019
     81  CG2      -12.2410   14.0180  -62.5780 C.3    57  ILE57       0.0020
     82  CD1      -10.5870   13.1880  -60.2320 C.3    57  ILE57       0.0001
     83  N        -14.8660   16.3980  -61.9620 N.am   58  ASP58      -0.1974
     84  CA       -16.0800   16.5280  -62.7460 C.3    58  ASP58       0.1709
     85  C        -16.1730   17.9190  -63.3540 C.2    58  ASP58       0.2293
     86  O        -16.6010   18.0810  -64.4970 O.2    58  ASP58      -0.2864
     87  CB       -17.3060   16.2480  -61.8780 C.3    58  ASP58       0.1436
     88  CG       -18.4240   15.5860  -62.6490 C.2    58  ASP58       0.3671
     89  OD1      -18.1400   14.6430  -63.4160 O.co2  58  ASP58      -0.2456
     90  OD2      -19.5870   16.0110  -62.4910 O.co2  58  ASP58      -0.2456
     91  N        -13.5900   18.0580  -66.3060 N.3    61  LEU61      -0.1231
     92  CA       -13.6970   17.1650  -67.4590 C.3    61  LEU61       0.1693
     93  C        -15.0950   17.0240  -68.0580 C.2    61  LEU61       0.2591
     94  O        -15.2320   16.6080  -69.2100 O.2    61  LEU61      -0.2718
     95  CB       -13.1850   15.7730  -67.0830 C.3    61  LEU61       0.0284
     96  CG       -11.6750   15.6220  -66.8970 C.3    61  LEU61       0.0019
     97  CD1      -11.3290   14.1950  -66.4970 C.3    61  LEU61       0.0001
     98  CD2      -10.9370   16.0240  -68.1660 C.3    61  LEU61       0.0001
     99  N        -16.1300   17.3550  -67.2920 N.am   62  ARG62      -0.1980
    100  CA       -17.4900   17.0590  -67.7330 C.3    62  ARG62       0.1597
    101  C        -18.4780   18.2170  -67.6160 C.2    62  ARG62       0.2287
    102  O        -19.6790   18.0240  -67.8050 O.2    62  ARG62      -0.2864
    103  CB       -18.0370   15.8680  -66.9480 C.3    62  ARG62       0.0334
    104  CG       -17.2700   14.5760  -67.1470 C.3    62  ARG62       0.0492
    105  CD       -17.9460   13.4300  -66.4170 C.3    62  ARG62       0.2205
    106  NE       -17.2810   12.1570  -66.6670 N.pl3  62  ARG62      -0.0865
    107  CZ       -16.2400   11.7150  -65.9730 C.cat  62  ARG62       0.5346
    108  NH1      -15.6930   10.5440  -66.2670 N.pl3  62  ARG62       0.1354
    109  NH2      -15.7440   12.4470  -64.9840 N.pl3  62  ARG62       0.1354
    110  N         -8.4810   11.4470  -54.8430 N.3    83  MET83      -0.1245
    111  CA        -9.6880   10.6390  -54.9180 C.3    83  MET83       0.1570
    112  C         -9.3940    9.1970  -54.5300 C.2    83  MET83       0.2261
    113  O        -10.1170    8.6110  -53.7120 O.2    83  MET83      -0.2867
    114  CB       -10.2970   10.6900  -56.3210 C.3    83  MET83       0.0387
    115  CG       -11.6170    9.9320  -56.4470 C.3    83  MET83       0.0595
    116  SD       -12.3610   10.0650  -58.0850 S.3    83  MET83      -0.1393
    117  CE       -11.1270    9.2420  -59.0880 C.3    83  MET83       0.0692
    118  N        -10.7370    7.1920  -51.1960 N.3    87  ILE87      -0.1245
    119  CA       -11.5210    5.9700  -51.2890 C.3    87  ILE87       0.1561
    120  C        -10.9300    4.8780  -50.4030 C.2    87  ILE87       0.2260
    121  O        -11.6550    4.2540  -49.6280 O.2    87  ILE87      -0.2867
    122  CB       -11.6310    5.4650  -52.7380 C.3    87  ILE87       0.0252
    123  CG1      -12.5210    6.3990  -53.5580 C.3    87  ILE87       0.0019
    124  CG2      -12.2010    4.0540  -52.7690 C.3    87  ILE87       0.0019
    125  CD1      -12.7430    5.9470  -54.9860 C.3    87  ILE87       0.0001
    126  N        -11.4160    5.6370  -46.7360 N.3    90  ASN90      -0.1225
    127  CA       -12.7670    5.3980  -46.2440 C.3    90  ASN90       0.1785
    128  C        -12.8680    4.0390  -45.5680 C.2    90  ASN90       0.2597
    129  O        -13.2880    3.9320  -44.4130 O.2    90  ASN90      -0.2718
    130  CB       -13.7900    5.4750  -47.3820 C.3    90  ASN90       0.1169
    131  CG       -13.9390    6.8720  -47.9460 C.2    90  ASN90       0.2627
    132  OD1      -14.1350    7.0460  -49.1460 O.2    90  ASN90      -0.2716
    133  ND2      -13.8440    7.8770  -47.0850 N.am   90  ASN90      -0.0877
    134  N        -12.4680    3.0020  -46.2940 N.am   91  TYR91      -0.1976
    135  CA       -12.5260    1.6440  -45.7730 C.3    91  TYR91       0.1639
    136  C        -11.5340    1.4000  -44.6400 C.2    91  TYR91       0.2290
    137  O        -11.8250    0.6460  -43.7050 O.2    91  TYR91      -0.2864
    138  CB       -12.3110    0.6510  -46.9130 C.3    91  TYR91       0.0560
    139  CG       -13.4590    0.6850  -47.8920 C.ar   91  TYR91      -0.0198
    140  CD1      -14.6300   -0.0180  -47.6360 C.ar   91  TYR91      -0.0009
    141  CD2      -13.3930    1.4540  -49.0460 C.ar   91  TYR91      -0.0009
    142  CE1      -15.6950    0.0230  -48.5150 C.ar   91  TYR91       0.0417
    143  CE2      -14.4520    1.5020  -49.9310 C.ar   91  TYR91       0.0417
    144  CZ       -15.6010    0.7840  -49.6610 C.ar   91  TYR91       0.1957
    145  OH       -16.6610    0.8280  -50.5370 O.3    91  TYR91      -0.2866
    146  N         -7.3930    8.5260  -65.5610 N.3   302  THR302     -0.1218
    147  CA        -8.8100    8.3100  -65.2980 C.3   302  THR302      0.1862
    148  C         -9.2740    6.9400  -65.7810 C.2   302  THR302      0.2287
    149  O         -8.5340    6.2280  -66.4580 O.2   302  THR302     -0.2866
    150  CB        -9.6720    9.4010  -65.9660 C.3   302  THR302      0.1770
    151  OG1       -9.2380    9.5920  -67.3190 O.3   302  THR302     -0.2211
    152  CG2       -9.5440   10.7160  -65.2160 C.3   302  THR302      0.0375
    153  N        -14.4930    3.5340  -63.5050 N.3   304  MET304     -0.1230
    154  CA       -15.2320    4.7270  -63.0940 C.3   304  MET304      0.1702
    155  C        -14.4630    5.6040  -62.1040 C.2   304  MET304      0.2593
    156  O        -15.0500    6.1700  -61.1830 O.2   304  MET304     -0.2718
    157  CB       -16.5790    4.3260  -62.4890 C.3   304  MET304      0.0401
    158  CG       -17.4410    3.4560  -63.3950 C.3   304  MET304      0.0596
    159  SD       -18.1230    4.3500  -64.8050 S.3   304  MET304     -0.1393
    160  CE       -19.1560    5.5580  -63.9810 C.3   304  MET304      0.0692
    161  N        -13.1530    5.7180  -62.3030 N.am  305  GLY305     -0.1942
    162  CA       -12.3290    6.5930  -61.4900 C.3   305  GLY305      0.2014
    163  C        -11.3490    5.8640  -60.5900 C.2   305  GLY305      0.2638
    164  O        -10.1500    6.1380  -60.6180 O.2   305  GLY305     -0.2714
    165  N        -11.8660    4.9460  -59.7790 N.am  306  PHE306     -0.1973
    166  CA       -11.0520    4.1670  -58.8480 C.3   306  PHE306      0.1639
    167  C        -10.0340    3.2930  -59.5830 C.2   306  PHE306      0.2290
    168  O        -10.3800    2.6120  -60.5420 O.2   306  PHE306     -0.2864
    169  CB       -11.9720    3.3130  -57.9710 C.3   306  PHE306      0.0560
    170  CG       -11.2570    2.4670  -56.9630 C.ar  306  PHE306     -0.0200
    171  CD1      -10.6670    3.0380  -55.8500 C.ar  306  PHE306     -0.0042
    172  CD2      -11.2100    1.0930  -57.1080 C.ar  306  PHE306     -0.0042
    173  CE1      -10.0230    2.2550  -54.9120 C.ar  306  PHE306     -0.0003
    174  CE2      -10.5690    0.3070  -56.1730 C.ar  306  PHE306     -0.0003
    175  CZ        -9.9770    0.8900  -55.0730 C.ar  306  PHE306     -0.0000
    176  N        -21.0620   -0.7510  -46.8040 N.3   361  LEU361     -0.1245
    177  CA       -19.9220   -0.3010  -47.5880 C.3   361  LEU361      0.1561
    178  C        -19.1170   -1.4750  -48.1360 C.2   361  LEU361      0.2260
    179  O        -18.6210   -1.4240  -49.2620 O.2   361  LEU361     -0.2867
    180  CB       -19.0270    0.6120  -46.7490 C.3   361  LEU361      0.0270
    181  CG       -19.7100    1.8430  -46.1410 C.3   361  LEU361      0.0019
    182  CD1      -18.6880    2.8440  -45.6240 C.3   361  LEU361      0.0001
    183  CD2      -20.6360    2.4990  -47.1460 C.3   361  LEU361      0.0001
    184  N        -21.1140   -3.1900  -50.8930 N.3   364  HIS364     -0.1226
    185  CA       -21.1310   -2.2930  -52.0370 C.3   364  HIS364      0.1752
    186  C        -19.8010   -2.3180  -52.7850 C.2   364  HIS364      0.2596
    187  O        -19.7800   -2.3350  -54.0180 O.2   364  HIS364     -0.2718
    188  CB       -21.4420   -0.8590  -51.6180 C.3   364  HIS364      0.0759
    189  CG       -21.0200    0.1530  -52.6340 C.ar  364  HIS364      0.0818
    190  ND1      -21.7710    0.4430  -53.7530 N.ar  364  HIS364     -0.2268
    191  CD2      -19.9010    0.9100  -52.7250 C.ar  364  HIS364      0.1154
    192  CE1      -21.1400    1.3490  -54.4800 C.ar  364  HIS364      0.1986
    193  NE2      -20.0030    1.6490  -53.8780 N.ar  364  HIS364     -0.2212
    194  N        -18.6900   -2.3280  -52.0500 N.am  365  PHE365     -0.1976
    195  CA       -17.3980   -2.3440  -52.7240 C.3   365  PHE365      0.1639
    196  C        -17.1670   -3.6620  -53.4520 C.2   365  PHE365      0.2290
    197  O        -16.5900   -3.6750  -54.5380 O.2   365  PHE365     -0.2864
    198  CB       -16.2450   -2.0870  -51.7530 C.3   365  PHE365      0.0560
    199  CG       -14.9230   -1.9040  -52.4430 C.ar  365  PHE365     -0.0200
    200  CD1      -14.5170   -0.6450  -52.8630 C.ar  365  PHE365     -0.0042
    201  CD2      -14.1010   -2.9930  -52.7050 C.ar  365  PHE365     -0.0042
    202  CE1      -13.3090   -0.4710  -53.5150 C.ar  365  PHE365     -0.0003
    203  CE2      -12.8930   -2.8300  -53.3590 C.ar  365  PHE365     -0.0003
    204  CZ       -12.4950   -1.5660  -53.7640 C.ar  365  PHE365     -0.0000
    205  N        -19.1770   -3.6100  -56.5650 N.3   368  PHE368     -0.1241
    206  CA       -18.5490   -2.7000  -57.5130 C.3   368  PHE368      0.1605
    207  C        -17.3690   -3.3750  -58.1950 C.2   368  PHE368      0.2264
    208  O        -17.1650   -3.2370  -59.4070 O.2   368  PHE368     -0.2867
    209  CB       -18.0930   -1.4250  -56.7970 C.3   368  PHE368      0.0534
    210  CG       -17.0050   -0.6750  -57.5130 C.ar  368  PHE368     -0.0203
    211  CD1      -17.3180    0.2860  -58.4580 C.ar  368  PHE368     -0.0042
    212  CD2      -15.6670   -0.9180  -57.2270 C.ar  368  PHE368     -0.0042
    213  CE1      -16.3180    0.9840  -59.1140 C.ar  368  PHE368     -0.0003
    214  CE2      -14.6650   -0.2300  -57.8830 C.ar  368  PHE368     -0.0003
    215  CZ       -14.9900    0.7220  -58.8280 C.ar  368  PHE368     -0.0000
    216  N        -23.2450    3.6360  -58.1970 N.3   384  LEU384     -0.1245
    217  CA       -22.4390    4.8310  -57.9770 C.3   384  LEU384      0.1561
    218  C        -23.3190    6.0220  -57.6230 C.2   384  LEU384      0.2260
    219  O        -22.9250    6.8850  -56.8230 O.2   384  LEU384     -0.2867
    220  CB       -21.5780    5.1320  -59.2030 C.3   384  LEU384      0.0270
    221  CG       -20.4810    4.0830  -59.4150 C.3   384  LEU384      0.0019
    222  CD1      -19.6540    4.3950  -60.6410 C.3   384  LEU384      0.0001
    223  CD2      -19.5990    3.9770  -58.1820 C.3   384  LEU384      0.0001
    224  N        -24.0220    5.4340  -54.0940 N.3   387  SER387     -0.1217
    225  CA       -22.7860    5.5100  -53.3210 C.3   387  SER387      0.1889
    226  C        -22.3170    6.9480  -53.1340 C.2   387  SER387      0.2288
    227  O        -21.5600    7.2450  -52.2080 O.2   387  SER387     -0.2866
    228  CB       -21.6790    4.6870  -53.9840 C.3   387  SER387      0.2089
    229  OG       -21.0110    5.4250  -54.9920 O.3   387  SER387     -0.2183
    230  N        -23.0530    8.3530  -49.6930 N.3   390  GLN390     -0.1245
    231  CA       -22.4950    7.6530  -48.5370 C.3   390  GLN390      0.1566
    232  C        -21.9180    8.5940  -47.4800 C.2   390  GLN390      0.2260
    233  O        -21.9910    8.2980  -46.2860 O.2   390  GLN390     -0.2867
    234  CB       -21.4180    6.6660  -48.9920 C.3   390  GLN390      0.0367
    235  CG       -21.9790    5.3550  -49.5280 C.3   390  GLN390      0.0905
    236  CD       -20.9010    4.4450  -50.0880 C.2   390  GLN390      0.2608
    237  OE1      -19.7580    4.8580  -50.2570 O.2   390  GLN390     -0.2717
    238  NE2      -21.2650    3.2010  -50.3820 N.am  390  GLN390     -0.0878
@<TRIPOS>BOND
     1    94    93    2
     2     1     2    1
     3     5     2    1
     4     5     6    1
     5     2     3    1
     6     6     7   ar
     7     6     8   ar
     8    98    96    1
     9    93    92    1
    10    93    99   am
    11     7     9   ar
    12   102   101    2
    13     3     4    2
    14   100   101    1
    15   100    99    1
    16   100   103    1
    17     8    10   ar
    18    92    95    1
    19    92    91    1
    20   151   150    1
    21     9    11   ar
    22   104   103    1
    23   104   105    1
    24    95    96    1
    25    10    11   ar
    26    96    97    1
    27   106   105    1
    28   106   107    2
    29    11    12    1
    30   149   148    2
    31   108   107    1
    32   107   109    1
    33   150   147    1
    34   150   152    1
    35   148   147    1
    36   146   147    1
    37   159   160    1
    38   159   158    1
    39    13    14    1
    40    86    85    2
    41    17    14    1
    42    17    18    1
    43    20    18   ar
    44    20    22   ar
    45    78    77    2
    46    14    15    1
    47    18    19   ar
    48   153   154    1
    49    89    88   ar
    50   158   157    1
    51    85    84    1
    52    35    34    1
    53    22    23   ar
    54   154   157    1
    55   154   155    1
    56    15    16    2
    57    84    83    1
    58    84    87    1
    59    88    90   ar
    60    88    87    1
    61    81    79    1
    62    77    83   am
    63    77    76    1
    64    19    21   ar
    65    33    34   ar
    66    33    31   ar
    67   161   155   am
    68   161   162    1
    69    34    32   ar
    70   155   156    2
    71    23    21   ar
    72    76    79    1
    73    76    75    1
    74   162   163    1
    75    79    80    1
    76    31    29   ar
    77    32    30   ar
    78   222   221    1
    79   164   163    2
    80   163   165   am
    81    80    82    1
    82   168   167    2
    83    29    30   ar
    84    29    28    1
    85   165   166    1
    86   167   166    1
    87   221   220    1
    88   221   223    1
    89   208   207    2
    90    71    70    2
    91   220   217    1
    92   213   215   ar
    93   213   211   ar
    94   117   116    1
    95    24    25    1
    96   166   169    1
    97   215   214   ar
    98    28    25    1
    99   211   210   ar
   100    25    26    1
   101   216   217    1
   102   207   206    1
   103    70    69    1
   104   116   115    1
   105   217   218    1
   106   169   170    1
   107    73    72    1
   108   214   212   ar
   109    26    27    2
   110   218   219    2
   111   206   209    1
   112   206   205    1
   113   210   212   ar
   114   210   209    1
   115    69    72    1
   116    69    68    1
   117   172   170   ar
   118   172   174   ar
   119   170   171   ar
   120    72    74    1
   121   115   114    1
   122   114   111    1
   123   174   175   ar
   124    45    43   ar
   125    45    46   ar
   126    43    41   ar
   127   171   173   ar
   128    47    46    1
   129   175   173   ar
   130    46    44   ar
   131   229   228    1
   132   125   123    1
   133   111   110    1
   134   111   112    1
   135    41    40    1
   136    41    42   ar
   137   197   196    2
   138   112   113    2
   139   192   193   ar
   140   192   190   ar
   141    40    37    1
   142   224   225    1
   143   187   186    2
   144    36    37    1
   145   228   225    1
   146   193   191   ar
   147    62    61    2
   148    44    42   ar
   149   204   202   ar
   150   204   203   ar
   151   190   189   ar
   152   123   122    1
   153    66    67    1
   154    66    65    1
   155   202   200   ar
   156   196   195    1
   157    37    38    1
   158   203   201   ar
   159   225   226    1
   160   226   227    2
   161   200   199   ar
   162    38    39    2
   163   186   194   am
   164   186   185    1
   165   124   122    1
   166   122   119    1
   167   191   189   ar
   168   195   194    1
   169   195   198    1
   170   201   199   ar
   171    64    65    1
   172    64    63    1
   173    61    60    1
   174   189   188    1
   175   199   198    1
   176   185   188    1
   177   185   184    1
   178    60    63    1
   179    60    59    1
   180   119   118    1
   181   119   120    1
   182   145   144    1
   183   120   121    2
   184   238   236   am
   185   237   236    2
   186   236   235    1
   187   143   144   ar
   188   143   141   ar
   189   230   231    1
   190   144   142   ar
   191   235   234    1
   192   179   178    2
   193   132   131    2
   194    51    50    2
   195   141   139   ar
   196   234   231    1
   197   231   232    1
   198   142   140   ar
   199   178   177    1
   200    50    49    1
   201   131   130    1
   202   131   133   am
   203   139   140   ar
   204   139   138    1
   205    54    56   ar
   206    54    53   ar
   207    56    58   ar
   208   177   176    1
   209   177   180    1
   210   232   233    2
   211    49    52    1
   212    49    48    1
   213   130   127    1
   214   183   181    1
   215   138   135    1
   216    52    53    1
   217    53    55   ar
   218   180   181    1
   219   126   127    1
   220    58    57   ar
   221   134   135    1
   222   134   128   am
   223   127   128    1
   224   181   182    1
   225   135   136    1
   226    55    57   ar
   227   128   129    2
   228   136   137    2
