@<TRIPOS>MOLECULE
tmp/5ee7A04.pdb
 126 121 0 0 0
SMALL
GASTEIGER

@<TRIPOS>ATOM
      1  N        -21.8480   -8.2860  -28.3670 N.3   332  LEU332     -0.1245
      2  CA       -23.0820   -7.5410  -28.1250 C.3   332  LEU332      0.1561
      3  C        -24.1300   -8.4320  -27.4850 C.2   332  LEU332      0.2260
      4  O        -24.6100   -8.1470  -26.3830 O.2   332  LEU332     -0.2867
      5  CB       -23.6380   -6.9510  -29.4210 C.3   332  LEU332      0.0270
      6  CG       -22.9340   -5.7310  -30.0060 C.3   332  LEU332      0.0019
      7  CD1      -23.7510   -5.1600  -31.1470 C.3   332  LEU332      0.0001
      8  CD2      -22.7040   -4.6840  -28.9350 C.3   332  LEU332      0.0001
      9  N        -24.1600    3.6950  -24.7690 N.3   346  TYR346     -0.1241
     10  CA       -23.4150    4.2740  -25.8780 C.3   346  TYR346      0.1605
     11  C        -22.8100    3.2280  -26.8130 C.2   346  TYR346      0.2264
     12  O        -22.7420    3.4390  -28.0250 O.2   346  TYR346     -0.2867
     13  CB       -22.2970    5.1810  -25.3590 C.3   346  TYR346      0.0534
     14  CG       -21.4640    5.7560  -26.4790 C.ar  346  TYR346     -0.0201
     15  CD1      -21.9870    6.7290  -27.3160 C.ar  346  TYR346     -0.0009
     16  CD2      -20.1670    5.3100  -26.7170 C.ar  346  TYR346     -0.0009
     17  CE1      -21.2460    7.2550  -28.3500 C.ar  346  TYR346      0.0417
     18  CE2      -19.4160    5.8320  -27.7550 C.ar  346  TYR346      0.0417
     19  CZ       -19.9620    6.8050  -28.5670 C.ar  346  TYR346      0.1957
     20  OH       -19.2280    7.3340  -29.6040 O.3   346  TYR346     -0.2866
     21  N        -23.9550    0.3000  -27.5910 N.3   348  PHE348     -0.1227
     22  CA       -25.0100   -0.2550  -28.4250 C.3   348  PHE348      0.1736
     23  C        -25.3630    0.7080  -29.5500 C.2   348  PHE348      0.2595
     24  O        -25.4540    0.3160  -30.7170 O.2   348  PHE348     -0.2718
     25  CB       -26.2520   -0.5610  -27.5840 C.3   348  PHE348      0.0547
     26  CG       -27.3400   -1.2610  -28.3440 C.ar  348  PHE348     -0.0202
     27  CD1      -27.3800   -2.6430  -28.4030 C.ar  348  PHE348     -0.0042
     28  CD2      -28.3240   -0.5380  -28.9970 C.ar  348  PHE348     -0.0042
     29  CE1      -28.3770   -3.2890  -29.0990 C.ar  348  PHE348     -0.0003
     30  CE2      -29.3230   -1.1800  -29.6940 C.ar  348  PHE348     -0.0003
     31  CZ       -29.3500   -2.5560  -29.7460 C.ar  348  PHE348     -0.0000
     32  N        -25.5500    1.9750  -29.1900 N.am  349  ARG349     -0.1966
     33  CA       -25.9390    2.9900  -30.1570 C.3   349  ARG349      0.1729
     34  C        -24.8440    3.2090  -31.2010 C.2   349  ARG349      0.2616
     35  O        -25.1350    3.4610  -32.3690 O.2   349  ARG349     -0.2715
     36  CB       -26.2800    4.3000  -29.4400 C.3   349  ARG349      0.0348
     37  CG       -27.5010    4.1890  -28.5320 C.3   349  ARG349      0.0492
     38  CD       -27.9410    5.5390  -27.9710 C.3   349  ARG349      0.2205
     39  NE       -27.1240    5.9790  -26.8440 N.pl3 349  ARG349     -0.0865
     40  CZ       -26.2190    6.9500  -26.9080 C.cat 349  ARG349      0.5346
     41  NH1      -26.0090    7.5930  -28.0490 N.pl3 349  ARG349      0.1354
     42  NH2      -25.5240    7.2820  -25.8290 N.pl3 349  ARG349      0.1354
     43  N        -23.5890    3.0950  -30.7820 N.am  350  LEU350     -0.1963
     44  CA       -22.4740    3.1520  -31.7200 C.3   350  LEU350      0.1728
     45  C        -22.4930    1.9370  -32.6400 C.2   350  LEU350      0.2616
     46  O        -22.2110    2.0360  -33.8420 O.2   350  LEU350     -0.2715
     47  CB       -21.1450    3.2280  -30.9650 C.3   350  LEU350      0.0311
     48  CG       -19.8720    3.3150  -31.8050 C.3   350  LEU350      0.0022
     49  CD1      -19.9010    4.5490  -32.6950 C.3   350  LEU350      0.0001
     50  CD2      -18.6430    3.3280  -30.9050 C.3   350  LEU350      0.0001
     51  N        -22.8510    0.7920  -32.0670 N.am  351  ALA351     -0.1963
     52  CA       -22.9380   -0.4440  -32.8300 C.3   351  ALA351      0.1728
     53  C        -24.0390   -0.3650  -33.8800 C.2   351  ALA351      0.2616
     54  O        -23.9410   -0.9940  -34.9300 O.2   351  ALA351     -0.2715
     55  CB       -23.1720   -1.6300  -31.9040 C.3   351  ALA351      0.0334
     56  N        -25.0820    0.4120  -33.6050 N.am  352  LYS352     -0.1963
     57  CA       -26.1650    0.5580  -34.5710 C.3   352  LYS352      0.1728
     58  C        -25.6510    1.1640  -35.8700 C.2   352  LYS352      0.2616
     59  O        -26.0250    0.7260  -36.9520 O.2   352  LYS352     -0.2715
     60  CB       -27.2920    1.4250  -33.9980 C.3   352  LYS352      0.0311
     61  CG       -28.0880    0.7650  -32.8850 C.3   352  LYS352      0.0038
     62  CD       -28.9340    1.7770  -32.1310 C.3   352  LYS352      0.0206
     63  CE       -29.8940    2.5190  -33.0510 C.3   352  LYS352      0.1093
     64  NZ       -30.7130    3.5160  -32.3010 N.3   352  LYS352     -0.1314
     65  N        -24.7610    2.1470  -35.7590 N.am  353  SER353     -0.1950
     66  CA       -24.2070    2.7950  -36.9400 C.3   353  SER353      0.1924
     67  C        -23.1020    1.9620  -37.5760 C.2   353  SER353      0.2314
     68  O        -23.1220    1.6960  -38.7810 O.2   353  SER353     -0.2863
     69  CB       -23.6580    4.1780  -36.5870 C.3   353  SER353      0.2116
     70  OG       -24.6450    4.9950  -35.9830 O.3   353  SER353     -0.2180
     71  N        -22.2380   -1.2230  -37.2740 N.3   355  LEU355     -0.1231
     72  CA       -22.5970   -2.5500  -37.7610 C.3   355  LEU355      0.1693
     73  C        -23.5280   -2.5110  -38.9640 C.2   355  LEU355      0.2592
     74  O        -23.7710   -3.5430  -39.5780 O.2   355  LEU355     -0.2718
     75  CB       -23.2380   -3.3870  -36.6550 C.3   355  LEU355      0.0284
     76  CG       -22.3160   -3.8850  -35.5420 C.3   355  LEU355      0.0019
     77  CD1      -23.0350   -4.9290  -34.7050 C.3   355  LEU355      0.0001
     78  CD2      -21.0230   -4.4480  -36.1150 C.3   355  LEU355      0.0001
     79  N        -24.0920   -1.3500  -39.2810 N.am  356  THR356     -0.1953
     80  CA       -24.7810   -1.2210  -40.5610 C.3   356  THR356      0.1897
     81  C        -23.8040   -0.7580  -41.6260 C.2   356  THR356      0.2313
     82  O        -23.8230   -1.2480  -42.7540 O.2   356  THR356     -0.2863
     83  CB       -25.9700   -0.2310  -40.5130 C.3   356  THR356      0.1794
     84  OG1      -25.5060    1.0680  -40.1310 O.3   356  THR356     -0.2208
     85  CG2      -27.0160   -0.6990  -39.5350 C.3   356  THR356      0.0378
     86  N        -24.6790    9.7170  -45.5020 N.3   393  LEU393     -0.1245
     87  CA       -25.1470    8.6590  -44.6080 C.3   393  LEU393      0.1561
     88  C        -24.2640    8.5240  -43.3730 C.2   393  LEU393      0.2260
     89  O        -24.7640    8.3550  -42.2590 O.2   393  LEU393     -0.2867
     90  CB       -25.2080    7.3200  -45.3370 C.3   393  LEU393      0.0270
     91  CG       -25.6380    6.1520  -44.4460 C.3   393  LEU393      0.0019
     92  CD1      -27.0780    6.3330  -43.9900 C.3   393  LEU393      0.0001
     93  CD2      -25.4550    4.8250  -45.1570 C.3   393  LEU393      0.0001
     94  N        -25.4670    9.1280  -39.5460 N.3   397  LEU397     -0.1245
     95  CA       -25.3930    8.0350  -38.5830 C.3   397  LEU397      0.1561
     96  C        -24.4710    8.3140  -37.3920 C.2   397  LEU397      0.2260
     97  O        -24.7890    7.9350  -36.2650 O.2   397  LEU397     -0.2867
     98  CB       -24.9450    6.7530  -39.2880 C.3   397  LEU397      0.0270
     99  CG       -26.0340    5.7340  -39.6350 C.3   397  LEU397      0.0019
    100  CD1      -27.2030    6.3930  -40.3460 C.3   397  LEU397      0.0001
    101  CD2      -25.4610    4.6090  -40.4810 C.3   397  LEU397      0.0001
    102  N        -27.7750   11.8880  -35.8100 N.3   401  LEU401     -0.1231
    103  CA       -28.6620   11.0150  -35.0410 C.3   401  LEU401      0.1693
    104  C        -28.1130   10.6990  -33.6570 C.2   401  LEU401      0.2592
    105  O        -28.8120   10.1160  -32.8280 O.2   401  LEU401     -0.2718
    106  CB       -28.9190    9.7100  -35.7950 C.3   401  LEU401      0.0284
    107  CG       -29.7900    9.7850  -37.0480 C.3   401  LEU401      0.0019
    108  CD1      -30.0990    8.3850  -37.5560 C.3   401  LEU401      0.0001
    109  CD2      -31.0720   10.5600  -36.7700 C.3   401  LEU401      0.0001
    110  N        -26.8610   11.0760  -33.4130 N.am  402  ASN402     -0.1960
    111  CA       -26.1990   10.7550  -32.1560 C.3   402  ASN402      0.1819
    112  C        -26.8670   11.4500  -30.9750 C.2   402  ASN402      0.2621
    113  O        -27.1810   12.6400  -31.0420 O.2   402  ASN402     -0.2715
    114  CB       -24.7190   11.1350  -32.2300 C.3   402  ASN402      0.1195
    115  CG       -23.9870   10.8700  -30.9400 C.2   402  ASN402      0.2630
    116  OD1      -23.5680   11.8000  -30.2510 O.2   402  ASN402     -0.2716
    117  ND2      -23.8370    9.5950  -30.5940 N.am  402  ASN402     -0.0877
    118  N        -27.0810   10.7090  -29.8920 N.am  403  LYS403     -0.1977
    119  CA       -27.8120   11.2370  -28.7460 C.3   403  LYS403      0.1596
    120  C        -27.0620   12.3470  -28.0190 C.2   403  LYS403      0.2287
    121  O        -27.6660   13.3210  -27.5860 O.2   403  LYS403     -0.2864
    122  CB       -28.1410   10.1110  -27.7620 C.3   403  LYS403      0.0298
    123  CG       -28.8970   10.5640  -26.5210 C.3   403  LYS403      0.0038
    124  CD       -29.1620    9.4020  -25.5740 C.3   403  LYS403      0.0206
    125  CE       -29.8240    9.8710  -24.2890 C.3   403  LYS403      0.1093
    126  NZ       -30.0720    8.7390  -23.3550 N.3   403  LYS403     -0.1314
@<TRIPOS>BOND
     1    86    87    1
     2    90    87    1
     3    90    91    1
     4    93    91    1
     5    87    88    1
     6    91    92    1
     7    88    89    2
     8    82    81    2
     9    81    80    1
    10    80    83    1
    11    80    79    1
    12    83    84    1
    13    83    85    1
    14   101    99    1
    15   100    99    1
    16    99    98    1
    17    74    73    2
    18    94    95    1
    19    98    95    1
    20    79    73   am
    21    73    72    1
    22    68    67    2
    23    95    96    1
    24    72    71    1
    25    72    75    1
    26    67    66    1
    27   108   107    1
    28    96    97    2
    29   107   109    1
    30   107   106    1
    31    59    58    2
    32    66    69    1
    33    66    65    1
    34    75    76    1
    35    69    70    1
    36    78    76    1
    37    58    65   am
    38    58    57    1
    39   102   103    1
    40   106   103    1
    41    76    77    1
    42   103   104    1
    43    54    53    2
    44    57    60    1
    45    57    56    1
    46    60    61    1
    47    53    56   am
    48    53    52    1
    49    46    45    2
    50   104   110   am
    51   104   105    2
    52   110   111    1
    53    63    64    1
    54    63    62    1
    55    61    62    1
    56    52    51    1
    57    52    55    1
    58    49    48    1
    59    45    51   am
    60    45    44    1
    61    35    34    2
    62   114   111    1
    63   114   115    1
    64   111   112    1
    65    48    47    1
    66    48    50    1
    67    44    47    1
    68    44    43    1
    69    34    43   am
    70    34    33    1
    71     7     6    1
    72   113   112    2
    73   112   118   am
    74   115   117   am
    75   115   116    2
    76    24    23    2
    77    33    36    1
    78    33    32    1
    79     6     5    1
    80     6     8    1
    81   118   119    1
    82    31    30   ar
    83    31    29   ar
    84    30    28   ar
    85    20    19    1
    86    23    32   am
    87    23    22    1
    88    36    37    1
    89     5     2    1
    90    29    27   ar
    91    28    26   ar
    92   119   120    1
    93   119   122    1
    94    19    17   ar
    95    19    18   ar
    96    37    38    1
    97    22    21    1
    98    22    25    1
    99    27    26   ar
   100     1     2    1
   101    17    15   ar
   102    26    25    1
   103     2     3    1
   104    41    40    1
   105    12    11    2
   106   120   121    2
   107    38    39    1
   108   122   123    1
   109    18    16   ar
   110     3     4    2
   111    15    14   ar
   112    40    39    2
   113    40    42    1
   114    11    10    1
   115    16    14   ar
   116   123   124    1
   117    14    13    1
   118    10    13    1
   119    10     9    1
   120   124   125    1
   121   125   126    1
