@<TRIPOS>MOLECULE
tmp/5ee7A10.pdb
 116 111 0 0 0
SMALL
GASTEIGER

@<TRIPOS>ATOM
      1  N        -15.7510   15.7730  -27.2550 N.3    33  HIS33      -0.1226
      2  CA       -14.3770   15.4110  -27.5860 C.3    33  HIS33       0.1752
      3  C        -13.9640   14.0910  -26.9500 C.2    33  HIS33       0.2596
      4  O        -13.3100   14.0600  -25.9100 O.2    33  HIS33      -0.2718
      5  CB       -13.4130   16.5200  -27.1650 C.3    33  HIS33       0.0759
      6  CG       -13.4060   17.6930  -28.0940 C.ar   33  HIS33       0.0818
      7  ND1      -12.5490   18.7610  -27.9410 N.ar   33  HIS33      -0.2268
      8  CD2      -14.1520   17.9630  -29.1920 C.ar   33  HIS33       0.1154
      9  CE1      -12.7680   19.6400  -28.9030 C.ar   33  HIS33       0.1986
     10  NE2      -13.7360   19.1800  -29.6750 N.ar   33  HIS33      -0.2212
     11  N        -14.3620   13.0000  -27.5920 N.am   34  CYS34      -0.1956
     12  CA       -13.9650   11.6640  -27.1830 C.3    34  CYS34       0.1843
     13  C        -13.1360   11.0320  -28.2950 C.2    34  CYS34       0.2626
     14  O        -12.9810   11.6190  -29.3670 O.2    34  CYS34      -0.2714
     15  CB       -15.1930   10.8100  -26.8610 C.3    34  CYS34       0.0997
     16  SG       -16.4100   10.7350  -28.1890 S.3    34  CYS34      -0.0797
     17  N        -12.5810    9.8520  -28.0380 N.am   35  THR35      -0.1950
     18  CA       -11.8050    9.1520  -29.0540 C.3    35  THR35       0.1897
     19  C        -12.6860    8.7570  -30.2390 C.2    35  THR35       0.2313
     20  O        -12.2730    8.8490  -31.4040 O.2    35  THR35      -0.2863
     21  CB       -11.1340    7.8900  -28.4690 C.3    35  THR35       0.1794
     22  OG1      -10.3320    8.2570  -27.3410 O.3    35  THR35      -0.2208
     23  CG2      -10.2550    7.2070  -29.5110 C.3    35  THR35       0.0378
     24  N        -13.1250   11.5860  -32.5610 N.3    38  ALA38      -0.1245
     25  CA       -11.9180   11.8530  -33.3380 C.3    38  ALA38       0.1562
     26  C        -11.8530   10.8970  -34.5240 C.2    38  ALA38       0.2260
     27  O        -11.5030   11.2890  -35.6530 O.2    38  ALA38      -0.2867
     28  CB       -10.6780   11.7180  -32.4720 C.3    38  ALA38       0.0290
     29  N        -12.0650   11.8770  -38.5400 N.3    42  ASN42      -0.1240
     30  CA       -11.1330   11.4610  -39.5850 C.3    42  ASN42       0.1653
     31  C        -11.8270   10.7240  -40.7350 C.2    42  ASN42       0.2266
     32  O        -11.4620   10.8950  -41.9110 O.2    42  ASN42      -0.2867
     33  CB       -10.0230   10.6010  -38.9890 C.3    42  ASN42       0.1155
     34  CG        -9.0340   11.4160  -38.1680 C.2    42  ASN42       0.2627
     35  OD1       -8.0850   11.9860  -38.7070 O.2    42  ASN42      -0.2716
     36  ND2       -9.2600   11.4810  -36.8620 N.am   42  ASN42      -0.0877
     37  N        -13.3880   13.2950  -42.8160 N.3    45  LEU45      -0.1245
     38  CA       -12.3890   13.9480  -43.6470 C.3    45  LEU45       0.1561
     39  C        -12.0600   13.1150  -44.8730 C.2    45  LEU45       0.2260
     40  O        -11.8860   13.6650  -45.9660 O.2    45  LEU45      -0.2867
     41  CB       -11.1090   14.2140  -42.8560 C.3    45  LEU45       0.0270
     42  CG       -11.0620   15.4110  -41.9100 C.3    45  LEU45       0.0019
     43  CD1       -9.6890   15.4740  -41.2590 C.3    45  LEU45       0.0001
     44  CD2      -11.3700   16.7080  -42.6480 C.3    45  LEU45       0.0001
     45  N        -12.4900   14.4380  -48.6800 N.3    49  LEU49      -0.1245
     46  CA       -11.4250   14.4070  -49.6640 C.3    49  LEU49       0.1561
     47  C        -11.9260   13.7430  -50.9270 C.2    49  LEU49       0.2260
     48  O        -11.6910   14.2290  -52.0470 O.2    49  LEU49      -0.2867
     49  CB       -10.2090   13.6640  -49.1050 C.3    49  LEU49       0.0270
     50  CG        -8.9210   13.7310  -49.9190 C.3    49  LEU49       0.0019
     51  CD1       -8.4950   15.1770  -50.0920 C.3    49  LEU49       0.0001
     52  CD2       -7.8340   12.9280  -49.2290 C.3    49  LEU49       0.0001
     53  N         -5.8540   12.2780  -54.9210 N.3    82  PHE82      -0.1241
     54  CA        -6.6260   12.5260  -53.7070 C.3    82  PHE82       0.1605
     55  C         -7.9060   11.6990  -53.6720 C.2    82  PHE82       0.2264
     56  O         -8.3570   11.2830  -52.6040 O.2    82  PHE82      -0.2867
     57  CB        -6.9600   14.0100  -53.5720 C.3    82  PHE82       0.0534
     58  CG        -5.7850   14.8590  -53.2010 C.ar   82  PHE82      -0.0203
     59  CD1       -4.6630   14.2940  -52.6180 C.ar   82  PHE82      -0.0042
     60  CD2       -5.7990   16.2210  -53.4300 C.ar   82  PHE82      -0.0042
     61  CE1       -3.5770   15.0740  -52.2730 C.ar   82  PHE82      -0.0003
     62  CE2       -4.7190   17.0060  -53.0860 C.ar   82  PHE82      -0.0003
     63  CZ        -3.6050   16.4310  -52.5080 C.ar   82  PHE82      -0.0000
     64  N         -6.9270    8.1070  -52.7880 N.3    85  TYR85      -0.1241
     65  CA        -6.5000    8.1240  -51.3980 C.3    85  TYR85       0.1605
     66  C         -7.6920    8.1950  -50.4650 C.2    85  TYR85       0.2264
     67  O         -7.7280    7.5180  -49.4310 O.2    85  TYR85      -0.2867
     68  CB        -5.5720    9.3090  -51.1470 C.3    85  TYR85       0.0534
     69  CG        -5.0460    9.3820  -49.7410 C.ar   85  TYR85      -0.0201
     70  CD1       -4.0290    8.5360  -49.3200 C.ar   85  TYR85      -0.0009
     71  CD2       -5.5590   10.2960  -48.8330 C.ar   85  TYR85      -0.0009
     72  CE1       -3.5370    8.5940  -48.0330 C.ar   85  TYR85       0.0417
     73  CE2       -5.0750   10.3640  -47.5410 C.ar   85  TYR85       0.0417
     74  CZ        -4.0610    9.5100  -47.1460 C.ar   85  TYR85       0.1957
     75  OH        -3.5630    9.5630  -45.8630 O.3    85  TYR85      -0.2866
     76  N        -11.7910    6.3100  -22.5920 N.3   262  ASP262     -0.1239
     77  CA       -10.8610    6.8760  -23.5680 C.3   262  ASP262      0.1674
     78  C         -9.3910    6.7250  -23.1860 C.2   262  ASP262      0.2266
     79  O         -8.5260    6.6560  -24.0580 O.2   262  ASP262     -0.2867
     80  CB       -11.1700    8.3560  -23.7870 C.3   262  ASP262      0.1410
     81  CG       -12.3410    8.5740  -24.7190 C.2   262  ASP262      0.3668
     82  OD1      -13.2400    7.7080  -24.7630 O.co2 262  ASP262     -0.2456
     83  OD2      -12.3610    9.6090  -25.4130 O.co2 262  ASP262     -0.2456
     84  N         -3.9660    5.7040  -30.2890 N.3   270  PHE270     -0.1241
     85  CA        -4.6270    6.4060  -31.3780 C.3   270  PHE270      0.1605
     86  C         -3.7000    6.6000  -32.5760 C.2   270  PHE270      0.2264
     87  O         -4.1600    6.7480  -33.7080 O.2   270  PHE270     -0.2867
     88  CB        -5.1480    7.7570  -30.8890 C.3   270  PHE270      0.0534
     89  CG        -6.0680    8.4420  -31.8600 C.ar  270  PHE270     -0.0203
     90  CD1       -7.2750    7.8660  -32.2130 C.ar  270  PHE270     -0.0042
     91  CD2       -5.7350    9.6710  -32.4020 C.ar  270  PHE270     -0.0042
     92  CE1       -8.1260    8.4930  -33.1010 C.ar  270  PHE270     -0.0003
     93  CE2       -6.5850   10.3050  -33.2870 C.ar  270  PHE270     -0.0003
     94  CZ        -7.7810    9.7130  -33.6390 C.ar  270  PHE270     -0.0000
     95  N         -4.2480    6.2600  -36.5720 N.3   274  LEU274     -0.1245
     96  CA        -3.8030    7.2080  -37.5800 C.3   274  LEU274      0.1561
     97  C         -3.0220    6.5080  -38.6780 C.2   274  LEU274      0.2260
     98  O         -3.1510    6.8380  -39.8580 O.2   274  LEU274     -0.2867
     99  CB        -2.9340    8.2910  -36.9400 C.3   274  LEU274      0.0270
    100  CG        -3.4920    9.7080  -36.8340 C.3   274  LEU274      0.0019
    101  CD1       -4.8730    9.6950  -36.2190 C.3   274  LEU274      0.0001
    102  CD2       -2.5480   10.5580  -36.0110 C.3   274  LEU274      0.0001
    103  N         -4.7500    6.6820  -42.2500 N.3   278  TRP278     -0.1241
    104  CA        -4.1170    7.6060  -43.1840 C.3   278  TRP278      0.1605
    105  C         -2.8450    7.0280  -43.8070 C.2   278  TRP278      0.2264
    106  O         -2.6200    7.1840  -45.0050 O.2   278  TRP278     -0.2867
    107  CB        -3.8100    8.9450  -42.4980 C.3   278  TRP278      0.0550
    108  CG        -5.0350    9.7340  -42.1000 C.ar  278  TRP278      0.0003
    109  CD1       -5.3370   10.2060  -40.8530 C.ar  278  TRP278      0.0946
    110  CD2       -6.1200   10.1360  -42.9520 C.ar  278  TRP278      0.0152
    111  NE1       -6.5360   10.8800  -40.8760 N.ar  278  TRP278     -0.2442
    112  CE2       -7.0380   10.8480  -42.1520 C.ar  278  TRP278      0.0810
    113  CE3       -6.4030    9.9630  -44.3120 C.ar  278  TRP278      0.0012
    114  CZ2       -8.2210   11.3860  -42.6680 C.ar  278  TRP278      0.0191
    115  CZ3       -7.5770   10.4990  -44.8230 C.ar  278  TRP278      0.0001
    116  CH2       -8.4700   11.2020  -44.0020 C.ar  278  TRP278      0.0015
@<TRIPOS>BOND
     1    53    54    1
     2    54    55    1
     3    54    57    1
     4    55    56    2
     5    57    58    1
     6    60    58   ar
     7    60    62   ar
     8    58    59   ar
     9    62    63   ar
    10    64    65    1
    11    59    61   ar
    12    63    61   ar
    13    48    47    2
    14    65    68    1
    15    65    66    1
    16    68    69    1
    17    47    46    1
    18    66    67    2
    19    51    50    1
    20    50    52    1
    21    50    49    1
    22    69    70   ar
    23    69    71   ar
    24    46    49    1
    25    46    45    1
    26    70    72   ar
    27    71    73   ar
    28    72    74   ar
    29    73    74   ar
    30    74    75    1
    31    40    39    2
    32   106   105    2
    33    39    38    1
    34   115   113   ar
    35   115   116   ar
    36   113   110   ar
    37   116   114   ar
    38   105   104    1
    39    38    41    1
    40    38    37    1
    41   104   107    1
    42   104   103    1
    43   110   112   ar
    44   110   108   ar
    45    41    42    1
    46   114   112   ar
    47    44    42    1
    48   107   108    1
    49   112   111   ar
    50   108   109   ar
    51    32    31    2
    52    42    43    1
    53   111   109   ar
    54    31    30    1
    55    98    97    2
    56    30    33    1
    57    30    29    1
    58    33    34    1
    59    35    34    2
    60    97    96    1
    61    34    36   am
    62    96    99    1
    63    96    95    1
    64    99   100    1
    65   100   101    1
    66   100   102    1
    67    27    26    2
    68    26    25    1
    69    87    86    2
    70    94    93   ar
    71    94    92   ar
    72    25    24    1
    73    25    28    1
    74    93    91   ar
    75    92    90   ar
    76    86    85    1
    77    91    89   ar
    78    90    89   ar
    79    89    88    1
    80    20    19    2
    81    85    88    1
    82    85    84    1
    83    19    18    1
    84    10     8   ar
    85    10     9   ar
    86    23    21    1
    87    14    13    2
    88     8     6   ar
    89    18    21    1
    90    18    17    1
    91     9     7   ar
    92    21    22    1
    93    13    17   am
    94    13    12    1
    95    16    15    1
    96     6     7   ar
    97     6     5    1
    98    11    12    1
    99    11     3   am
   100     2     1    1
   101     2     5    1
   102     2     3    1
   103    12    15    1
   104     3     4    2
   105    83    81   ar
   106    82    81   ar
   107    81    80    1
   108    79    78    2
   109    80    77    1
   110    77    78    1
   111    77    76    1
