@<TRIPOS>MOLECULE
tmp/5ee7A12.pdb
 92 85 0 0 0
SMALL
GASTEIGER

@<TRIPOS>ATOM
      1  N         -1.0040   22.0680  -69.5740 N.3    70  ASP70      -0.1239
      2  CA        -0.0430   21.7710  -68.5120 C.3    70  ASP70       0.1674
      3  C         -0.5710   21.9720  -67.0890 C.2    70  ASP70       0.2266
      4  O         -0.2590   21.1830  -66.1980 O.2    70  ASP70      -0.2867
      5  CB         1.2140   22.6250  -68.7020 C.3    70  ASP70       0.1410
      6  CG         0.9220   24.1170  -68.6430 C.2    70  ASP70       0.3668
      7  OD1       -0.2190   24.5150  -68.9580 O.co2  70  ASP70      -0.2456
      8  OD2        1.8340   24.8900  -68.2820 O.co2  70  ASP70      -0.2456
      9  N         -3.7030   19.1650  -66.6460 N.3    73  VAL73      -0.1231
     10  CA        -3.2950   17.7900  -66.3700 C.3    73  VAL73       0.1692
     11  C         -2.7600   17.6610  -64.9500 C.2    73  VAL73       0.2591
     12  O         -2.9380   16.6310  -64.3040 O.2    73  VAL73      -0.2718
     13  CB        -2.2120   17.2810  -67.3590 C.3    73  VAL73       0.0266
     14  CG1       -2.7860   17.1180  -68.7510 C.3    73  VAL73       0.0020
     15  CG2       -0.9990   18.2060  -67.3770 C.3    73  VAL73       0.0020
     16  N         -2.1210   18.7180  -64.4610 N.am   74  ALA74      -0.1980
     17  CA        -1.5430   18.6920  -63.1290 C.3    74  ALA74       0.1597
     18  C         -2.6400   18.6960  -62.0720 C.2    74  ALA74       0.2287
     19  O         -2.6770   17.8170  -61.2030 O.2    74  ALA74      -0.2864
     20  CB        -0.6040   19.8750  -62.9320 C.3    74  ALA74       0.0319
     21  N         -4.5450   15.3800  -62.2330 N.3    77  ARG77      -0.1231
     22  CA        -3.8230   14.2460  -61.6540 C.3    77  ARG77       0.1694
     23  C         -3.7450   14.3120  -60.1290 C.2    77  ARG77       0.2591
     24  O         -3.8580   13.2870  -59.4450 O.2    77  ARG77      -0.2718
     25  CB        -2.4090   14.1680  -62.2280 C.3    77  ARG77       0.0321
     26  CG        -2.3050   13.4890  -63.5790 C.3    77  ARG77       0.0489
     27  CD        -1.1110   14.0210  -64.3580 C.3    77  ARG77       0.2205
     28  NE        -0.7910   13.2160  -65.5340 N.pl3  77  ARG77      -0.0865
     29  CZ        -1.5180   13.1850  -66.6470 C.cat  77  ARG77       0.5346
     30  NH1       -2.6290   13.9030  -66.7400 N.pl3  77  ARG77       0.1354
     31  NH2       -1.1400   12.4250  -67.6670 N.pl3  77  ARG77       0.1354
     32  N         -3.5670   15.5190  -59.5950 N.am   78  VAL78      -0.1980
     33  CA        -3.5130   15.6850  -58.1470 C.3    78  VAL78       0.1595
     34  C         -4.8640   15.3130  -57.5460 C.2    78  VAL78       0.2287
     35  O         -4.9440   14.6070  -56.5260 O.2    78  VAL78      -0.2864
     36  CB        -3.1460   17.1300  -57.7500 C.3    78  VAL78       0.0276
     37  CG1       -3.2360   17.3100  -56.2490 C.3    78  VAL78       0.0022
     38  CG2       -1.7540   17.4780  -58.2400 C.3    78  VAL78       0.0022
     39  N         -5.2590   11.5260  -57.5350 N.3    81  VAL81      -0.1245
     40  CA        -4.5520   10.8940  -56.4300 C.3    81  VAL81       0.1561
     41  C         -5.3400   11.0710  -55.1390 C.2    81  VAL81       0.2260
     42  O         -5.5100   10.1220  -54.3660 O.2    81  VAL81      -0.2867
     43  CB        -3.1330   11.4720  -56.2450 C.3    81  VAL81       0.0252
     44  CG1       -2.4570   10.8380  -55.0390 C.3    81  VAL81       0.0019
     45  CG2       -2.3020   11.2540  -57.4940 C.3    81  VAL81       0.0019
     46  N          0.4950    5.8330  -52.9580 N.3   286  VAL286     -0.1245
     47  CA         1.6930    6.5290  -53.4390 C.3   286  VAL286      0.1561
     48  C          2.5080    5.7410  -54.4840 C.2   286  VAL286      0.2260
     49  O          2.7840    6.2670  -55.5680 O.2   286  VAL286     -0.2867
     50  CB         2.6240    6.9380  -52.2620 C.3   286  VAL286      0.0252
     51  CG1        3.9550    7.4430  -52.7920 C.3   286  VAL286      0.0019
     52  CG2        1.9600    7.9920  -51.3940 C.3   286  VAL286      0.0019
     53  N          0.7220    5.6920  -57.7130 N.3   289  ALA289     -0.1231
     54  CA         0.7810    6.9960  -58.3510 C.3   289  ALA289      0.1694
     55  C          2.1200    7.1280  -59.0660 C.2   289  ALA289      0.2591
     56  O          2.2080    7.7230  -60.1420 O.2   289  ALA289     -0.2718
     57  CB         0.5980    8.1110  -57.3290 C.3   289  ALA289      0.0304
     58  N          3.1570    6.5410  -58.4740 N.am  290  VAL290     -0.1980
     59  CA         4.4740    6.5360  -59.0950 C.3   290  VAL290      0.1595
     60  C          4.4590    5.7230  -60.3870 C.2   290  VAL290      0.2287
     61  O          5.0070    6.1530  -61.4050 O.2   290  VAL290     -0.2864
     62  CB         5.5460    5.9670  -58.1390 C.3   290  VAL290      0.0276
     63  CG1        6.8720    5.7900  -58.8550 C.3   290  VAL290      0.0022
     64  CG2        5.7040    6.8600  -56.9200 C.3   290  VAL290      0.0022
     65  N          2.5110    7.7890  -63.0390 N.3   293  CYS293     -0.1235
     66  CA         3.3150    8.8880  -63.5520 C.3   293  CYS293      0.1677
     67  C          4.4630    8.3980  -64.4330 C.2   293  CYS293      0.2270
     68  O          4.8550    9.0720  -65.3840 O.2   293  CYS293     -0.2867
     69  CB         3.8630    9.7190  -62.3880 C.3   293  CYS293      0.0956
     70  SG         4.8400   11.1520  -62.8840 S.3   293  CYS293     -0.0801
     71  N          1.3210    7.6360  -67.7760 N.3   297  ASN297     -0.1240
     72  CA         1.0720    9.0650  -67.6430 C.3   297  ASN297      0.1653
     73  C          0.3920    9.6090  -68.8930 C.2   297  ASN297      0.2266
     74  O          1.0150   10.2750  -69.7210 O.2   297  ASN297     -0.2867
     75  CB         2.3790    9.8130  -67.3690 C.3   297  ASN297      0.1155
     76  CG         2.1590   11.2800  -67.0560 C.2   297  ASN297      0.2627
     77  OD1        1.6070   11.6280  -66.0120 O.2   297  ASN297     -0.2716
     78  ND2        2.5990   12.1500  -67.9570 N.am  297  ASN297     -0.0877
     79  N         -5.0470    9.8480  -65.8090 N.3   301  TRP301     -0.1241
     80  CA        -5.0270    8.6070  -65.0350 C.3   301  TRP301      0.1605
     81  C         -6.4510    8.1730  -64.6920 C.2   301  TRP301      0.2264
     82  O         -6.6880    7.5300  -63.6700 O.2   301  TRP301     -0.2867
     83  CB        -4.2050    8.7740  -63.7500 C.3   301  TRP301      0.0550
     84  CG        -2.8190    9.3130  -63.9540 C.ar  301  TRP301      0.0003
     85  CD1       -2.1490    9.4300  -65.1360 C.ar  301  TRP301      0.0946
     86  CD2       -1.9350    9.8120  -62.9410 C.ar  301  TRP301      0.0152
     87  NE1       -0.9030    9.9710  -64.9220 N.ar  301  TRP301     -0.2442
     88  CE2       -0.7480   10.2130  -63.5820 C.ar  301  TRP301      0.0810
     89  CE3       -2.0340    9.9570  -61.5530 C.ar  301  TRP301      0.0012
     90  CZ2        0.3340   10.7500  -62.8850 C.ar  301  TRP301      0.0191
     91  CZ3       -0.9580   10.4900  -60.8620 C.ar  301  TRP301      0.0001
     92  CH2        0.2090   10.8790  -61.5290 C.ar  301  TRP301      0.0015
@<TRIPOS>BOND
     1    74    73    2
     2     1     2    1
     3     7     6   ar
     4    73    72    1
     5    14    13    1
     6     5     6    1
     7     5     2    1
     8     6     8   ar
     9     2     3    1
    10    78    76   am
    11    71    72    1
    12    31    29    1
    13    72    75    1
    14    15    13    1
    15    75    76    1
    16    13    10    1
    17     3     4    2
    18    76    77    2
    19    30    29    1
    20    29    28    2
    21     9    10    1
    22    10    11    1
    23    79    80    1
    24    28    27    1
    25    68    67    2
    26    85    87   ar
    27    85    84   ar
    28    80    81    1
    29    80    83    1
    30    11    16   am
    31    11    12    2
    32    87    88   ar
    33    81    82    2
    34    16    17    1
    35    67    66    1
    36    27    26    1
    37    84    83    1
    38    84    86   ar
    39    88    86   ar
    40    88    90   ar
    41    26    25    1
    42    66    65    1
    43    66    69    1
    44    17    20    1
    45    17    18    1
    46    86    89   ar
    47    90    92   ar
    48    70    69    1
    49    21    22    1
    50    25    22    1
    51    18    19    2
    52    22    23    1
    53    89    91   ar
    54    92    91   ar
    55    61    60    2
    56    60    59    1
    57    56    55    2
    58    23    32   am
    59    23    24    2
    60    32    33    1
    61    59    58    1
    62    59    62    1
    63    55    58   am
    64    55    54    1
    65    63    62    1
    66    54    53    1
    67    54    57    1
    68    38    36    1
    69    33    36    1
    70    33    34    1
    71    62    64    1
    72    36    37    1
    73    34    35    2
    74    39    40    1
    75    45    43    1
    76    40    43    1
    77    40    41    1
    78    43    44    1
    79    49    48    2
    80    41    42    2
    81    48    47    1
    82    47    46    1
    83    47    50    1
    84    51    50    1
    85    50    52    1
