@<TRIPOS>MOLECULE
tmp/5ee8A02.pdb
 112 102 0 0 0
SMALL
GASTEIGER

@<TRIPOS>ATOM
      1  N         37.8980    2.3110    9.1130 N.3     1  SER1       -0.1217
      2  CA        36.8210    2.8930    9.9730 C.3     1  SER1        0.1889
      3  C         37.1290    2.6480   11.4490 C.2     1  SER1        0.2288
      4  O         37.7420    1.6380   11.7990 O.2     1  SER1       -0.2866
      5  CB        35.4370    2.2980    9.6330 C.3     1  SER1        0.2089
      6  OG        35.0460    2.6040    8.2910 O.3     1  SER1       -0.2183
      7  N         15.7480    0.8330   -0.6440 N.3   192  ALA192     -0.1245
      8  CA        17.1700    0.9240   -0.3110 C.3   192  ALA192      0.1562
      9  C         17.9460   -0.3840   -0.5510 C.2   192  ALA192      0.2260
     10  O         19.1670   -0.3320   -0.7040 O.2   192  ALA192     -0.2867
     11  CB        17.3530    1.3720    1.1120 C.3   192  ALA192      0.0290
     12  N         20.4050   -0.4890   -3.5830 N.3   195  LEU195     -0.1231
     13  CA        21.5060    0.4880   -3.3810 C.3   195  LEU195      0.1693
     14  C         22.4600   -0.0410   -2.3230 C.2   195  LEU195      0.2591
     15  O         23.6860   -0.0130   -2.5130 O.2   195  LEU195     -0.2718
     16  CB        20.9530    1.8330   -2.9400 C.3   195  LEU195      0.0284
     17  CG        21.9960    2.8940   -2.5390 C.3   195  LEU195      0.0019
     18  CD1       22.9830    3.1540   -3.6600 C.3   195  LEU195      0.0001
     19  CD2       21.3340    4.1930   -2.0900 C.3   195  LEU195      0.0001
     20  N         21.9210   -0.5370   -1.1970 N.am  196  ILE196     -0.1980
     21  CA        22.7880   -1.1070   -0.1790 C.3   196  ILE196      0.1595
     22  C         23.6670   -2.2530   -0.7200 C.2   196  ILE196      0.2287
     23  O         24.8940   -2.3190   -0.4780 O.2   196  ILE196     -0.2864
     24  CB        21.9840   -1.5690    1.0580 C.3   196  ILE196      0.0276
     25  CG1       21.3760   -0.3580    1.7580 C.3   196  ILE196      0.0022
     26  CG2       22.9250   -2.2400    2.0390 C.3   196  ILE196      0.0022
     27  CD1       20.2940   -0.6750    2.7650 C.3   196  ILE196      0.0001
     28  N         26.8600   -1.2770   -2.6000 N.3   199  VAL199     -0.1245
     29  CA        27.9930   -0.7620   -1.8110 C.3   199  VAL199      0.1561
     30  C         28.4800   -1.7500   -0.7330 C.2   199  VAL199      0.2260
     31  O         29.4580   -1.4820   -0.0300 O.2   199  VAL199     -0.2867
     32  CB        27.7000    0.6170   -1.1740 C.3   199  VAL199      0.0252
     33  CG1       27.4710    1.6350   -2.2950 C.3   199  VAL199      0.0019
     34  CG2       26.5100    0.6020   -0.2210 C.3   199  VAL199      0.0019
     35  N         13.3830    0.9290    5.4460 N.3   210  THR210     -0.1218
     36  CA        13.8120    2.2860    5.7620 C.3   210  THR210      0.1862
     37  C         12.6260    3.1560    6.2020 C.2   210  THR210      0.2287
     38  O         11.4670    2.7920    6.1000 O.2   210  THR210     -0.2866
     39  CB        14.5250    2.9520    4.5870 C.3   210  THR210      0.1770
     40  OG1       13.6200    3.0220    3.5030 O.3   210  THR210     -0.2211
     41  CG2       15.8500    2.1980    4.2320 C.3   210  THR210      0.0375
     42  N         15.2460    9.9180   10.3220 N.3   218  ARG218     -0.1231
     43  CA        15.6560    8.9520    9.3210 C.3   218  ARG218      0.1694
     44  C         15.9890    7.6700   10.0390 C.2   218  ARG218      0.2593
     45  O         16.4900    7.6940   11.1750 O.2   218  ARG218     -0.2718
     46  CB        16.9030    9.4990    8.6430 C.3   218  ARG218      0.0321
     47  CG        17.5770    8.6390    7.5940 C.3   218  ARG218      0.0489
     48  CD        16.7460    8.7110    6.4000 C.3   218  ARG218      0.2205
     49  NE        17.3250    7.9900    5.2660 N.pl3 218  ARG218     -0.0865
     50  CZ        16.6730    7.1370    4.4760 C.cat 218  ARG218      0.5346
     51  NH1       17.2790    6.6820    3.3950 N.pl3 218  ARG218      0.1354
     52  NH2       15.4420    6.7590    4.7220 N.pl3 218  ARG218      0.1354
     53  N         15.7210    6.5320    9.4320 N.am  219  GLY219     -0.1942
     54  CA        15.9850    5.2850   10.1310 C.3   219  GLY219      0.2014
     55  C         15.9610    4.0750    9.2320 C.2   219  GLY219      0.2638
     56  O         15.5220    4.1230    8.0710 O.2   219  GLY219     -0.2714
     57  N         16.5020    2.9970    9.7720 N.am  220  ILE220     -0.1977
     58  CA        16.5200    1.7050    9.0680 C.3   220  ILE220      0.1596
     59  C         16.5000    0.6120   10.1090 C.2   220  ILE220      0.2287
     60  O         17.1810    0.6870   11.1350 O.2   220  ILE220     -0.2864
     61  CB        17.7390    1.6060    8.1340 C.3   220  ILE220      0.0276
     62  CG1       17.7100    0.3190    7.2720 C.3   220  ILE220      0.0022
     63  CG2       19.0500    1.6810    8.9160 C.3   220  ILE220      0.0022
     64  CD1       18.6660    0.3710    6.1030 C.3   220  ILE220      0.0001
     65  N         22.2560    9.6150    5.0600 N.3   249  ASN249     -0.1225
     66  CA        22.5270    8.2910    4.4680 C.3   249  ASN249      0.1785
     67  C         23.9910    7.9000    4.5530 C.2   249  ASN249      0.2597
     68  O         24.2980    6.7320    4.8110 O.2   249  ASN249     -0.2718
     69  CB        22.0710    8.2410    3.0250 C.3   249  ASN249      0.1169
     70  CG        20.5620    8.2980    2.8610 C.2   249  ASN249      0.2627
     71  OD1       19.8290    8.0080    3.7770 O.2   249  ASN249     -0.2716
     72  ND2       20.1190    8.7310    1.7020 N.am  249  ASN249     -0.0877
     73  N         24.8950    8.8550    4.2910 N.am  250  GLN250     -0.1979
     74  CA        26.3280    8.5990    4.4230 C.3   250  GLN250      0.1601
     75  C         26.7400    8.2030    5.8260 C.2   250  GLN250      0.2287
     76  O         27.5740    7.3170    6.0050 O.2   250  GLN250     -0.2864
     77  CB        27.1360    9.8290    3.9950 C.3   250  GLN250      0.0394
     78  CG        27.1840    9.9830    2.5080 C.3   250  GLN250      0.0908
     79  CD        27.5770   11.3860    2.1190 C.2   250  GLN250      0.2608
     80  OE1       28.2600   12.0940    2.8710 O.2   250  GLN250     -0.2717
     81  NE2       27.1490   11.7920    0.9490 N.am  250  GLN250     -0.0878
     82  N         24.7090    6.8350    8.2040 N.3   252  ILE252     -0.1231
     83  CA        24.1770    5.5030    8.4730 C.3   252  ILE252      0.1692
     84  C         25.1070    4.4630    7.8250 C.2   252  ILE252      0.2592
     85  O         25.4600    3.4230    8.4310 O.2   252  ILE252     -0.2718
     86  CB        22.7220    5.3700    8.0280 C.3   252  ILE252      0.0266
     87  CG1       21.8320    6.2240    8.9460 C.3   252  ILE252      0.0019
     88  CG2       22.2660    3.9140    8.0860 C.3   252  ILE252      0.0020
     89  CD1       20.3980    6.3780    8.4780 C.3   252  ILE252      0.0001
     90  N         25.4980    4.7180    6.5870 N.am  253  ALA253     -0.1966
     91  CA        26.4050    3.8070    5.8710 C.3   253  ALA253      0.1728
     92  C         27.7320    3.7060    6.5700 C.2   253  ALA253      0.2616
     93  O         28.3180    2.6080    6.5920 O.2   253  ALA253     -0.2715
     94  CB        26.6340    4.2610    4.4200 C.3   253  ALA253      0.0334
     95  N         28.2530    4.8260    7.0760 N.am  254  GLY254     -0.1955
     96  CA        29.5100    4.8030    7.8310 C.3   254  GLY254      0.1869
     97  C         29.4390    3.9530    9.0910 C.2   254  GLY254      0.2309
     98  O         30.4110    3.2710    9.4370 O.2   254  GLY254     -0.2863
     99  N         29.7390    0.5310    7.8260 N.3   257  ALA257     -0.1245
    100  CA        31.1180    0.2230    7.4970 C.3   257  ALA257      0.1562
    101  C         31.8770   -0.1910    8.7280 C.2   257  ALA257      0.2260
    102  O         32.6580   -1.1330    8.6990 O.2   257  ALA257     -0.2867
    103  CB        31.7720    1.4090    6.8110 C.3   257  ALA257      0.0290
    104  N         33.7560   -3.7810    9.3040 N.3   261  GLU261     -0.1245
    105  CA        35.1920   -3.8730    9.5480 C.3   261  GLU261      0.1567
    106  C         35.5180   -4.5000   10.9070 C.2   261  GLU261      0.2260
    107  O         36.5990   -5.0360   11.0810 O.2   261  GLU261     -0.2867
    108  CB        35.8390   -2.5000    9.4510 C.3   261  GLU261      0.0388
    109  CG        35.8080   -1.9580    8.0460 C.3   261  GLU261      0.1160
    110  CD        36.4110   -0.5780    7.9430 C.2   261  GLU261      0.3649
    111  OE1       35.8250    0.2830    7.2570 O.co2 261  GLU261     -0.2457
    112  OE2       37.4670   -0.3510    8.5810 O.co2 261  GLU261     -0.2457
@<TRIPOS>BOND
     1    18    17    1
     2    12    13    1
     3    13    16    1
     4    13    14    1
     5    16    17    1
     6    28    29    1
     7    17    19    1
     8    15    14    2
     9    14    20   am
    10    33    32    1
    11    29    32    1
    12    29    30    1
    13    20    21    1
    14    32    34    1
    15    30    31    2
    16    22    23    2
    17    22    21    1
    18    10     9    2
    19     7     8    1
    20     9     8    1
    21     8    11    1
    22    21    24    1
    23    81    79   am
    24    24    25    1
    25    24    26    1
    26    72    70   am
    27    25    27    1
    28    79    78    1
    29    79    80    2
    30    78    77    1
    31    70    69    1
    32    70    71    2
    33    69    66    1
    34    51    50    1
    35    40    39    1
    36    77    74    1
    37    41    39    1
    38    73    74    1
    39    73    67   am
    40    94    91    1
    41    74    75    1
    42    66    67    1
    43    66    65    1
    44    50    52    1
    45    50    49    2
    46    67    68    2
    47    39    36    1
    48    49    48    1
    49    35    36    1
    50    36    37    1
    51    75    76    2
    52    91    92    1
    53    91    90    1
    54    38    37    2
    55    64    62    1
    56    48    47    1
    57    92    93    2
    58    92    95   am
    59    90    84   am
    60   103   100    1
    61    95    96    1
    62   111   110   ar
    63    62    61    1
    64   100    99    1
    65   100   101    1
    66    47    46    1
    67    84    85    2
    68    84    83    1
    69    96    97    1
    70   110   109    1
    71   110   112   ar
    72    86    88    1
    73    86    83    1
    74    86    87    1
    75   109   108    1
    76    56    55    2
    77    61    63    1
    78    61    58    1
    79    82    83    1
    80     6     5    1
    81    89    87    1
    82    46    43    1
    83   102   101    2
    84    58    57    1
    85    58    59    1
    86    97    98    2
    87     1     2    1
    88    55    57   am
    89    55    54    1
    90   104   105    1
    91    43    44    1
    92    43    42    1
    93    53    44   am
    94    53    54    1
    95   108   105    1
    96   105   106    1
    97     5     2    1
    98     2     3    1
    99    44    45    2
   100    59    60    2
   101   106   107    2
   102     3     4    2
