@<TRIPOS>MOLECULE
tmp/5ee8A00.pdb
 128 118 0 0 0
SMALL
GASTEIGER

@<TRIPOS>ATOM
      1  N          8.4130    5.0650    8.6550 N.3    45  SER45      -0.1217
      2  CA         7.9330    3.9340    7.8580 C.3    45  SER45       0.1889
      3  C          8.5160    2.6000    8.3210 C.2    45  SER45       0.2288
      4  O          8.0650    1.5550    7.8390 O.2    45  SER45      -0.2866
      5  CB         8.2860    4.1280    6.3910 C.3    45  SER45       0.2089
      6  OG         7.4820    5.0720    5.7170 O.3    45  SER45      -0.2183
      7  N          6.1130   -0.2340    9.3900 N.3    48  LYS48      -0.1245
      8  CA         5.4440   -1.1230    8.4010 C.3    48  LYS48       0.1561
      9  C          5.7980   -2.6060    8.5400 C.2    48  LYS48       0.2260
     10  O          4.9590   -3.4790    8.2550 O.2    48  LYS48      -0.2867
     11  CB         5.6430   -0.6070    6.9740 C.3    48  LYS48       0.0271
     12  CG         4.9030    0.7160    6.7200 C.3    48  LYS48       0.0035
     13  CD         5.4700    1.5330    5.5760 C.3    48  LYS48       0.0206
     14  CE         4.6790    2.8230    5.3380 C.3    48  LYS48       0.1093
     15  NZ         5.3570    3.8350    4.4830 N.3    48  LYS48      -0.1314
     16  N         -0.5270   10.6880    0.5120 N.3    79  ASP79      -0.1225
     17  CA         0.7240   10.9380   -0.1440 C.3    79  ASP79       0.1805
     18  C          1.6340    9.7000   -0.1800 C.2    79  ASP79       0.2597
     19  O          1.9140    9.1300    0.8450 O.2    79  ASP79      -0.2718
     20  CB         1.4010   12.0780    0.6440 C.3    79  ASP79       0.1424
     21  CG         2.6880   12.5530    0.0500 C.2    79  ASP79       0.3668
     22  OD1        3.4450   13.1690    0.8360 O.co2  79  ASP79      -0.2456
     23  OD2        2.9480   12.3800   -1.1450 O.co2  79  ASP79      -0.2456
     24  N          2.1300    9.4010   -1.3740 N.am   80  TYR80      -0.1976
     25  CA         3.1380    8.3980   -1.6940 C.3    80  TYR80       0.1639
     26  C          2.5120    7.0050   -1.7240 C.2    80  TYR80       0.2290
     27  O          2.5130    6.2540   -0.7370 O.2    80  TYR80      -0.2864
     28  CB         4.3900    8.4730   -0.8440 C.3    80  TYR80       0.0560
     29  CG         5.4060    7.5500   -1.3990 C.ar   80  TYR80      -0.0198
     30  CD1        5.9650    7.7460   -2.6780 C.ar   80  TYR80      -0.0009
     31  CD2        5.7540    6.4100   -0.6870 C.ar   80  TYR80      -0.0009
     32  CE1        6.8640    6.8090   -3.2100 C.ar   80  TYR80       0.0417
     33  CE2        6.6370    5.5060   -1.2000 C.ar   80  TYR80       0.0417
     34  CZ         7.1800    5.6920   -2.4510 C.ar   80  TYR80       0.1957
     35  OH         8.0660    4.7080   -2.8770 O.3    80  TYR80      -0.2866
     36  N          7.3680    0.9500    0.4720 N.3   105  SER105     -0.1217
     37  CA         6.9780    1.9210    1.4960 C.3   105  SER105      0.1889
     38  C          5.7050    2.6890    1.1300 C.2   105  SER105      0.2288
     39  O          5.5040    3.8450    1.5550 O.2   105  SER105     -0.2866
     40  CB         8.1070    2.8610    1.8740 C.3   105  SER105      0.2089
     41  OG         8.0510    3.1190    3.2660 O.3   105  SER105     -0.2183
     42  N          2.3970    4.2990    1.3370 N.3   107  ASN107     -0.1240
     43  CA         1.7230    4.8290    2.5170 C.3   107  ASN107      0.1653
     44  C          0.2530    4.4410    2.5950 C.2   107  ASN107      0.2266
     45  O         -0.2770    4.1940    3.6980 O.2   107  ASN107     -0.2867
     46  CB         1.8850    6.3490    2.6190 C.3   107  ASN107      0.1155
     47  CG         3.2770    6.7570    3.0960 C.2   107  ASN107      0.2627
     48  OD1        3.9400    6.0140    3.8480 O.2   107  ASN107     -0.2716
     49  ND2        3.7280    7.9470    2.6750 N.am  107  ASN107     -0.0877
     50  N         -0.3230    7.2190    8.3390 N.3   141  GLU141     -0.1231
     51  CA         0.4860    7.8910    7.3080 C.3   141  GLU141      0.1699
     52  C         -0.3540    9.0580    6.7370 C.2   141  GLU141      0.2592
     53  O         -1.5610    8.8670    6.5150 O.2   141  GLU141     -0.2718
     54  CB         0.8840    6.9660    6.1920 C.3   141  GLU141      0.0402
     55  CG         1.9910    5.9780    6.5690 C.3   141  GLU141      0.1161
     56  CD         3.3730    6.5780    6.7100 C.2   141  GLU141      0.3649
     57  OE1        4.3380    5.7500    6.9140 O.co2 141  GLU141     -0.2457
     58  OE2        3.5590    7.8120    6.5540 O.co2 141  GLU141     -0.2457
     59  N          0.2120   10.2540    6.5510 N.am  142  THR142     -0.1953
     60  CA         1.6230   10.5910    6.7500 C.3   142  THR142      0.1897
     61  C          1.9170   11.4090    8.0220 C.2   142  THR142      0.2313
     62  O          3.0850   11.7310    8.2540 O.2   142  THR142     -0.2863
     63  CB         2.1790   11.3900    5.5550 C.3   142  THR142      0.1794
     64  OG1        1.4030   12.5980    5.3370 O.3   142  THR142     -0.2208
     65  CG2        2.1600   10.5490    4.2770 C.3   142  THR142      0.0378
     66  N          4.9250   10.9010   10.6020 N.3   145  ASN145     -0.1240
     67  CA         6.2760   11.3380   10.3020 C.3   145  ASN145      0.1653
     68  C          6.6600   12.7040   10.8290 C.2   145  ASN145      0.2266
     69  O          7.7820   13.1820   10.5530 O.2   145  ASN145     -0.2867
     70  CB         6.4690   11.3430    8.7880 C.3   145  ASN145      0.1155
     71  CG         6.3000    9.9780    8.1650 C.2   145  ASN145      0.2627
     72  OD1        7.0870    9.0930    8.4310 O.2   145  ASN145     -0.2716
     73  ND2        5.2990    9.8260    7.3060 N.am  145  ASN145     -0.0877
     74  N         13.3400    0.1140   -1.9790 N.3   191  VAL191     -0.1245
     75  CA        13.6690    1.4930   -1.7180 C.3   191  VAL191      0.1561
     76  C         15.1720    1.6460   -1.5180 C.2   191  VAL191      0.2260
     77  O         15.7840    2.5090   -2.1230 O.2   191  VAL191     -0.2867
     78  CB        12.8750    2.0350   -0.5150 C.3   191  VAL191      0.0252
     79  CG1       13.3170    3.4560   -0.1560 C.3   191  VAL191      0.0019
     80  CG2       11.3920    1.9940   -0.7990 C.3   191  VAL191      0.0019
     81  N         13.3830    0.9290    5.4460 N.3   210  THR210     -0.1203
     82  CA        13.8120    2.2860    5.7620 C.3   210  THR210      0.1994
     83  C         12.6260    3.1560    6.2020 C.2   210  THR210      0.2618
     84  O         11.4670    2.7920    6.1000 O.2   210  THR210     -0.2717
     85  CB        14.5250    2.9520    4.5870 C.3   210  THR210      0.1784
     86  OG1       13.6200    3.0220    3.5030 O.3   210  THR210     -0.2211
     87  CG2       15.8500    2.1980    4.2320 C.3   210  THR210      0.0376
     88  N         12.9600    4.3160    6.7680 N.am  211  GLY211     -0.1942
     89  CA        11.9750    5.3100    7.1030 C.3   211  GLY211      0.2014
     90  C         12.6040    6.6860    6.9980 C.2   211  GLY211      0.2639
     91  O         13.8030    6.8630    7.2180 O.2   211  GLY211     -0.2714
     92  N         11.7690    7.6580    6.6610 N.am  212  ALA212     -0.1963
     93  CA        12.1780    9.0700    6.6380 C.3   212  ALA212      0.1728
     94  C         11.0340    9.9310    7.1000 C.2   212  ALA212      0.2617
     95  O          9.8620    9.6460    6.7880 O.2   212  ALA212     -0.2715
     96  CB        12.6180    9.4660    5.2260 C.3   212  ALA212      0.0334
     97  N         11.3510   11.0000    7.8140 N.am  213  GLY213     -0.1940
     98  CA        10.3450   11.9170    8.3030 C.3   213  GLY213      0.2014
     99  C         10.8510   13.3530    8.3370 C.2   213  GLY213      0.2638
    100  O         11.8890   13.7180    7.7370 O.2   213  GLY213     -0.2714
    101  N         10.1160   14.1680    9.0620 N.am  214  GLU214     -0.1977
    102  CA        10.4390   15.5960    9.1840 C.3   214  GLU214      0.1602
    103  C         11.5530   15.8340   10.2100 C.2   214  GLU214      0.2287
    104  O         11.9250   14.9430   10.9890 O.2   214  GLU214     -0.2864
    105  CB         9.1470   16.3710    9.4990 C.3   214  GLU214      0.0415
    106  CG         8.0610   16.1780    8.4480 C.3   214  GLU214      0.1163
    107  CD         6.8440   17.0460    8.6880 C.2   214  GLU214      0.3649
    108  OE1        7.0480   18.2170    8.9940 O.co2 214  GLU214     -0.2457
    109  OE2        5.7060   16.5600    8.5500 O.co2 214  GLU214     -0.2457
    110  N         15.2460    9.9180   10.3220 N.3   218  ARG218     -0.1245
    111  CA        15.6560    8.9520    9.3210 C.3   218  ARG218      0.1563
    112  C         15.9890    7.6700   10.0390 C.2   218  ARG218      0.2260
    113  O         16.4900    7.6940   11.1750 O.2   218  ARG218     -0.2867
    114  CB        16.9030    9.4990    8.6430 C.3   218  ARG218      0.0307
    115  CG        17.5770    8.6390    7.5940 C.3   218  ARG218      0.0489
    116  CD        16.7460    8.7110    6.4000 C.3   218  ARG218      0.2205
    117  NE        17.3250    7.9900    5.2660 N.pl3 218  ARG218     -0.0865
    118  CZ        16.6730    7.1370    4.4760 C.cat 218  ARG218      0.5346
    119  NH1       17.2790    6.6820    3.3950 N.pl3 218  ARG218      0.1354
    120  NH2       15.4420    6.7590    4.7220 N.pl3 218  ARG218      0.1354
    121  N         19.6010   14.8420    3.3870 N.3   245  MET245     -0.1245
    122  CA        19.2910   13.4280    3.2630 C.3   245  MET245      0.1570
    123  C         20.5300   12.6260    2.8790 C.2   245  MET245      0.2261
    124  O         20.8070   11.5740    3.4460 O.2   245  MET245     -0.2867
    125  CB        18.1540   13.1920    2.2700 C.3   245  MET245      0.0387
    126  CG        17.7430   11.7450    2.0670 C.3   245  MET245      0.0595
    127  SD        17.0810   11.0100    3.5680 S.3   245  MET245     -0.1393
    128  CE        15.5220   11.8640    3.6790 C.3   245  MET245      0.0692
@<TRIPOS>BOND
     1    32    30   ar
     2    32    34   ar
     3    35    34    1
     4    30    29   ar
     5    34    33   ar
     6    77    76    2
     7    74    75    1
     8    26    25    1
     9    26    27    2
    10    75    76    1
    11    75    78    1
    12    25    24    1
    13    25    28    1
    14    29    28    1
    15    29    31   ar
    16    24    18   am
    17    33    31   ar
    18    23    21   ar
    19    80    78    1
    20    78    79    1
    21    18    17    1
    22    18    19    2
    23    17    16    1
    24    17    20    1
    25    21    20    1
    26    21    22   ar
    27    36    37    1
    28    38    37    1
    29    38    39    2
    30    42    43    1
    31    37    40    1
    32    40    41    1
    33   126   125    1
    34   126   127    1
    35   125   122    1
    36    43    44    1
    37    43    46    1
    38    44    45    2
    39    46    47    1
    40    49    47   am
    41   123   122    1
    42   123   124    2
    43    47    48    2
    44   122   121    1
    45   119   118    1
    46    86    85    1
    47   127   128    1
    48    87    85    1
    49    65    63    1
    50   118   120    1
    51   118   117    2
    52    15    14    1
    53    85    82    1
    54    96    93    1
    55   117   116    1
    56    64    63    1
    57    14    13    1
    58    81    82    1
    59    63    60    1
    60    13    12    1
    61     6     5    1
    62    82    83    1
    63    84    83    2
    64    54    55    1
    65    54    51    1
    66    83    88   am
    67     5     2    1
    68   116   115    1
    69    53    52    2
    70    59    52   am
    71    59    60    1
    72    58    56   ar
    73    55    56    1
    74    93    92    1
    75    93    94    1
    76    92    90   am
    77    56    57   ar
    78    12    11    1
    79    52    51    1
    80    60    61    1
    81    88    89    1
    82    95    94    2
    83    11     8    1
    84    90    89    1
    85    90    91    2
    86    94    97   am
    87    73    71   am
    88    51    50    1
    89   115   114    1
    90   100    99    2
    91    97    98    1
    92     4     3    2
    93     2     3    1
    94     2     1    1
    95    61    62    2
    96    71    72    2
    97    71    70    1
    98    10     9    2
    99    98    99    1
   100    99   101   am
   101     8     9    1
   102     8     7    1
   103   106   107    1
   104   106   105    1
   105   109   107   ar
   106   114   111    1
   107   107   108   ar
   108    70    67    1
   109   101   102    1
   110   102   105    1
   111   102   103    1
   112   111   112    1
   113   111   110    1
   114   112   113    2
   115   103   104    2
   116    67    66    1
   117    67    68    1
   118    69    68    2
