@<TRIPOS>MOLECULE
tmp/5eecA00.pdb
 102 97 0 0 0
SMALL
GASTEIGER

@<TRIPOS>ATOM
      1  N          1.3820    0.0230   19.7010 N.3    45  SER45      -0.1217
      2  CA         0.7210   -1.1620   19.1060 C.3    45  SER45       0.1889
      3  C          0.8790   -1.3120   17.5870 C.2    45  SER45       0.2288
      4  O          0.4080   -2.2910   17.0120 O.2    45  SER45      -0.2866
      5  CB        -0.7690   -1.1930   19.4550 C.3    45  SER45       0.2089
      6  OG        -0.9830   -1.6080   20.7980 O.3    45  SER45      -0.2183
      7  N          2.0160   -4.4550   15.7070 N.3    48  LYS48      -0.1245
      8  CA         1.1360   -5.6140   15.4400 C.3    48  LYS48       0.1561
      9  C          0.8510   -5.8180   13.9730 C.2    48  LYS48       0.2260
     10  O          0.5970   -6.9580   13.5490 O.2    48  LYS48      -0.2867
     11  CB        -0.1620   -5.5090   16.2330 C.3    48  LYS48       0.0271
     12  CG         0.0760   -5.5380   17.7460 C.3    48  LYS48       0.0035
     13  CD        -1.1110   -5.0300   18.5410 C.3    48  LYS48       0.0206
     14  CE        -0.7950   -5.0940   20.0340 C.3    48  LYS48       0.1093
     15  NZ        -1.7970   -4.3280   20.8470 N.3    48  LYS48      -0.1314
     16  N         -4.7230   -6.4350   29.7870 N.3    79  PRO79      -0.2102
     17  CA        -5.6200   -5.3300   29.3770 C.3    79  PRO79       0.1504
     18  C         -5.5350   -5.0540   27.8930 C.2    79  PRO79       0.2575
     19  O         -4.5820   -5.4580   27.2190 O.2    79  PRO79      -0.2718
     20  CB        -5.0960   -4.1410   30.1500 C.3    79  PRO79       0.0282
     21  CG        -4.3590   -4.7540   31.2980 C.3    79  PRO79       0.0208
     22  CD        -3.7830   -6.0150   30.8260 C.3    79  PRO79       0.0893
     23  N         -6.5540   -4.3700   27.3940 N.am   80  TRP80      -0.1977
     24  CA        -6.6490   -4.0550   25.9910 C.3    80  TRP80       0.1640
     25  C         -6.6500   -5.3220   25.1200 C.2    80  TRP80       0.2290
     26  O         -5.9570   -5.3940   24.0980 O.2    80  TRP80      -0.2864
     27  CB        -5.5610   -3.0600   25.5880 C.3    80  TRP80       0.0576
     28  CG        -6.1560   -1.7370   25.3910 C.ar   80  TRP80       0.0006
     29  CD1       -6.2380   -0.7130   26.2930 C.ar   80  TRP80       0.0946
     30  CD2       -6.8500   -1.3170   24.2230 C.ar   80  TRP80       0.0152
     31  NE1       -6.9250    0.3510   25.7320 N.ar   80  TRP80      -0.2442
     32  CE2       -7.3160   -0.0010   24.4590 C.ar   80  TRP80       0.0810
     33  CE3       -7.1050   -1.9210   22.9820 C.ar   80  TRP80       0.0012
     34  CZ2       -8.0070    0.7310   23.4890 C.ar   80  TRP80       0.0191
     35  CZ3       -7.7890   -1.1850   22.0210 C.ar   80  TRP80       0.0001
     36  CH2       -8.2460    0.1170   22.2910 C.ar   80  TRP80       0.0015
     37  N         -6.2970   -4.1990   17.7070 N.3   105  SER105     -0.1217
     38  CA        -5.1050   -3.9340   18.5050 C.3   105  SER105      0.1889
     39  C         -5.0190   -4.8060   19.7730 C.2   105  SER105      0.2288
     40  O         -4.5350   -4.3420   20.8370 O.2   105  SER105     -0.2866
     41  CB        -5.0900   -2.4570   18.8680 C.3   105  SER105      0.2089
     42  OG        -3.7910   -1.9890   18.7840 O.3   105  SER105     -0.2183
     43  N         -4.0140   -7.0520   22.6380 N.3   107  ASN107     -0.1240
     44  CA        -2.7110   -7.2900   23.2660 C.3   107  ASN107      0.1653
     45  C         -2.3860   -8.7440   23.4780 C.2   107  ASN107      0.2266
     46  O         -1.3030   -9.2060   23.1270 O.2   107  ASN107     -0.2867
     47  CB        -2.5740   -6.5450   24.6180 C.3   107  ASN107      0.1155
     48  CG        -2.1410   -5.0870   24.4580 C.2   107  ASN107      0.2627
     49  OD1       -1.5050   -4.7170   23.4880 O.2   107  ASN107     -0.2716
     50  ND2       -2.5070   -4.2460   25.4350 N.am  107  ASN107     -0.0877
     51  N          3.9490   -6.7870   25.0090 N.3   141  GLU141     -0.1231
     52  CA         2.8500   -6.0520   25.6050 C.3   141  GLU141      0.1699
     53  C          2.8300   -6.4190   27.0850 C.2   141  GLU141      0.2592
     54  O          2.9900   -7.5850   27.3840 O.2   141  GLU141     -0.2718
     55  CB         1.5140   -6.3840   24.9160 C.3   141  GLU141      0.0402
     56  CG         1.3680   -5.7960   23.5270 C.3   141  GLU141      0.1161
     57  CD         1.2480   -4.2820   23.5160 C.2   141  GLU141      0.3649
     58  OE1        1.3090   -3.6270   24.6000 O.co2 141  GLU141     -0.2457
     59  OE2        1.1440   -3.7230   22.3930 O.co2 141  GLU141     -0.2457
     60  N          2.6780   -5.4760   28.0220 N.am  142  LEU142     -0.1980
     61  CA         2.3850   -4.0680   27.8000 C.3   142  LEU142      0.1596
     62  C          3.5930   -3.1260   27.9540 C.2   142  LEU142      0.2287
     63  O          3.4700   -1.9290   27.7150 O.2   142  LEU142     -0.2864
     64  CB         1.3710   -3.5970   28.8490 C.3   142  LEU142      0.0297
     65  CG        -0.0780   -4.1060   28.9700 C.3   142  LEU142      0.0022
     66  CD1       -1.0740   -3.0220   28.5540 C.3   142  LEU142      0.0001
     67  CD2       -0.3860   -5.3970   28.2820 C.3   142  LEU142      0.0001
     68  N          5.1650   -0.1960   25.7680 N.3   145  ASN145     -0.1240
     69  CA         4.4660    1.0730   25.6960 C.3   145  ASN145      0.1653
     70  C          5.0630    2.1680   26.5770 C.2   145  ASN145      0.2266
     71  O          4.4570    3.2560   26.6750 O.2   145  ASN145     -0.2867
     72  CB         3.0170    0.9200   26.1380 C.3   145  ASN145      0.1155
     73  CG         2.1880    0.1230   25.1820 C.2   145  ASN145      0.2627
     74  OD1        1.9710    0.5090   24.0200 O.2   145  ASN145     -0.2716
     75  ND2        1.6650   -0.9600   25.6660 N.am  145  ASN145     -0.0877
     76  N         -1.0510    3.2430   20.2490 N.3   212  THR212     -0.1203
     77  CA        -1.2760    4.2290   21.3000 C.3   212  THR212      0.1994
     78  C         -0.5760    3.7330   22.5710 C.2   212  THR212      0.2618
     79  O         -0.9180    2.6620   23.1430 O.2   212  THR212     -0.2717
     80  CB        -2.7640    4.4290   21.5820 C.3   212  THR212      0.1784
     81  OG1       -3.4890    4.6850   20.3640 O.3   212  THR212     -0.2211
     82  CG2       -2.9900    5.5650   22.5840 C.3   212  THR212      0.0376
     83  N          0.4270    4.4680   23.0030 N.am  213  CYS213     -0.1955
     84  CA         1.2210    3.9790   24.1280 C.3   213  CYS213      0.1843
     85  C          0.4780    4.2920   25.4280 C.2   213  CYS213      0.2626
     86  O          0.6050    3.5620   26.3960 O.2   213  CYS213     -0.2714
     87  CB         2.6280    4.5960   24.1160 C.3   213  CYS213      0.0997
     88  SG         3.8150    3.7280   23.0730 S.3   213  CYS213     -0.0797
     89  N         -0.3120    5.3550   25.4270 N.am  214  GLY214     -0.1954
     90  CA        -1.0460    5.7760   26.6210 C.3   214  GLY214      0.1869
     91  C         -0.2710    6.6280   27.6210 C.2   214  GLY214      0.2309
     92  O         -0.7520    6.8640   28.7050 O.2   214  GLY214     -0.2863
     93  N         -2.0150   12.2680   24.1360 N.3   248  HIS248     -0.1241
     94  CA        -1.9130   12.0790   22.7170 C.3   248  HIS248      0.1621
     95  C         -3.1030   12.7270   22.0850 C.2   248  HIS248      0.2264
     96  O         -4.0420   13.0760   22.7740 O.2   248  HIS248     -0.2867
     97  CB        -1.7970   10.5910   22.3470 C.3   248  HIS248      0.0745
     98  CG        -3.0840    9.8340   22.4480 C.ar  248  HIS248      0.0817
     99  ND1       -3.5530    9.3200   23.6360 N.ar  248  HIS248     -0.2268
    100  CD2       -4.0000    9.5000   21.5070 C.ar  248  HIS248      0.1154
    101  CE1       -4.6870    8.6800   23.4150 C.ar  248  HIS248      0.1986
    102  NE2       -4.9810    8.7800   22.1330 N.ar  248  HIS248     -0.2212
@<TRIPOS>BOND
     1    10     9    2
     2     9     8    1
     3     8     7    1
     4     8    11    1
     5    11    12    1
     6     4     3    2
     7     3     2    1
     8    37    38    1
     9    12    13    1
    10    38    41    1
    11    38    39    1
    12    13    14    1
    13    42    41    1
    14     2     5    1
    15     2     1    1
    16     5     6    1
    17    39    40    2
    18    14    15    1
    19    76    77    1
    20    81    80    1
    21    77    80    1
    22    77    78    1
    23   100   102   ar
    24   100    98   ar
    25    80    82    1
    26    35    36   ar
    27    35    33   ar
    28    95    94    1
    29    95    96    2
    30   102   101   ar
    31    36    34   ar
    32    97    98    1
    33    97    94    1
    34    59    57   ar
    35    98    99   ar
    36    78    83   am
    37    78    79    2
    38    43    44    1
    39    94    93    1
    40    33    30   ar
    41    83    84    1
    42    88    87    1
    43    46    45    2
    44    44    45    1
    45    44    47    1
    46   101    99   ar
    47    49    48    2
    48    34    32   ar
    49    57    56    1
    50    57    58   ar
    51    56    55    1
    52    74    73    2
    53    26    25    2
    54    87    84    1
    55    84    85    1
    56    30    32   ar
    57    30    28   ar
    58    48    47    1
    59    48    50   am
    60    32    31   ar
    61    55    52    1
    62    51    52    1
    63    25    24    1
    64    73    75   am
    65    73    72    1
    66    28    27    1
    67    28    29   ar
    68    89    85   am
    69    89    90    1
    70    85    86    2
    71    27    24    1
    72    52    53    1
    73    69    68    1
    74    69    72    1
    75    69    70    1
    76    31    29   ar
    77    24    23    1
    78    70    71    2
    79    90    91    1
    80    53    54    2
    81    53    60   am
    82    19    18    2
    83    23    18   am
    84    91    92    2
    85    63    62    2
    86    61    62    1
    87    61    60    1
    88    61    64    1
    89    18    17    1
    90    67    65    1
    91    66    65    1
    92    64    65    1
    93    17    16    1
    94    17    20    1
    95    16    22    1
    96    20    21    1
    97    22    21    1
