@<TRIPOS>MOLECULE
tmp/5eecB00.pdb
 131 124 0 0 0
SMALL
GASTEIGER

@<TRIPOS>ATOM
      1  N         20.6010  -13.3840  -18.8610 N.3    45  SER45      -0.1217
      2  CA        20.1340  -12.0850  -18.3360 C.3    45  SER45       0.1889
      3  C         20.8950  -11.5200  -17.1350 C.2    45  SER45       0.2288
      4  O         20.6490  -10.3730  -16.7090 O.2    45  SER45      -0.2866
      5  CB        18.6390  -12.1160  -18.0300 C.3    45  SER45       0.2089
      6  OG        17.9000  -12.2780  -19.2310 O.3    45  SER45      -0.2183
      7  N         22.3340   -8.0300  -16.9040 N.3    48  LYS48      -0.1245
      8  CA        21.4730   -6.8550  -16.6950 C.3    48  LYS48       0.1561
      9  C         21.7160   -6.1860  -15.3620 C.2    48  LYS48       0.2260
     10  O         21.5380   -4.9850  -15.2630 O.2    48  LYS48      -0.2867
     11  CB        20.0040   -7.2130  -16.8780 C.3    48  LYS48       0.0271
     12  CG        19.6900   -7.6980  -18.2870 C.3    48  LYS48       0.0035
     13  CD        18.2620   -8.1790  -18.4210 C.3    48  LYS48       0.0206
     14  CE        18.0190   -8.7310  -19.8210 C.3    48  LYS48       0.1093
     15  NZ        16.8770   -9.6940  -19.9230 N.3    48  LYS48      -0.1314
     16  N         10.6800  -10.5520  -27.3170 N.3    79  PRO79      -0.2102
     17  CA        10.0740  -11.3570  -26.2530 C.3    79  PRO79       0.1504
     18  C         10.7330  -11.0810  -24.8550 C.2    79  PRO79       0.2575
     19  O         11.8830  -10.6110  -24.7640 O.2    79  PRO79      -0.2718
     20  CB        10.2860  -12.7900  -26.7470 C.3    79  PRO79       0.0282
     21  CG        10.4940  -12.6640  -28.2380 C.3    79  PRO79       0.0208
     22  CD        11.2430  -11.3790  -28.3940 C.3    79  PRO79       0.0893
     23  N          9.9810  -11.3370  -23.7950 N.am   80  TRP80      -0.1977
     24  CA        10.4030  -11.1230  -22.3980 C.3    80  TRP80       0.1640
     25  C         10.8100   -9.7160  -22.0710 C.2    80  TRP80       0.2290
     26  O         11.8260   -9.4550  -21.4430 O.2    80  TRP80      -0.2864
     27  CB        11.3640  -12.2190  -21.9180 C.3    80  TRP80       0.0576
     28  CG        10.5740  -13.4720  -22.0340 C.ar   80  TRP80       0.0006
     29  CD1       10.7410  -14.4710  -22.9530 C.ar   80  TRP80       0.0946
     30  CD2        9.3390  -13.7640  -21.3420 C.ar   80  TRP80       0.0152
     31  NE1        9.7410  -15.3950  -22.8240 N.ar   80  TRP80      -0.2442
     32  CE2        8.8670  -14.9930  -21.8440 C.ar   80  TRP80       0.0810
     33  CE3        8.6110  -13.1170  -20.3220 C.ar   80  TRP80       0.0012
     34  CZ2        7.6920  -15.6140  -21.3500 C.ar   80  TRP80       0.0191
     35  CZ3        7.4450  -13.7210  -19.8340 C.ar   80  TRP80       0.0001
     36  CH2        6.9990  -14.9600  -20.3510 C.ar   80  TRP80       0.0015
     37  N         13.9460   -8.4820  -15.3290 N.3   105  SER105     -0.1217
     38  CA        14.7430   -9.0480  -16.4120 C.3   105  SER105      0.1889
     39  C         14.3020   -8.6400  -17.8210 C.2   105  SER105      0.2288
     40  O         14.3840   -9.4560  -18.7710 O.2   105  SER105     -0.2866
     41  CB        14.7280  -10.5880  -16.2610 C.3   105  SER105      0.2089
     42  OG        16.0040  -11.0840  -16.5570 O.3   105  SER105     -0.2183
     43  N         14.0240   -7.5240  -21.4130 N.3   107  ASN107     -0.1240
     44  CA        14.9210   -7.5720  -22.5610 C.3   107  ASN107      0.1653
     45  C         15.0210   -6.2480  -23.3190 C.2   107  ASN107      0.2266
     46  O         16.1090   -5.7590  -23.5520 O.2   107  ASN107     -0.2867
     47  CB        14.5230   -8.7080  -23.5450 C.3   107  ASN107      0.1155
     48  CG        15.1020  -10.0800  -23.1460 C.2   107  ASN107      0.2627
     49  OD1       16.1010  -10.1630  -22.4310 O.2   107  ASN107     -0.2716
     50  ND2       14.4810  -11.1590  -23.6370 N.am  107  ASN107     -0.0877
     51  N         20.2390   -8.6870  -26.5930 N.3   141  GLU141     -0.1231
     52  CA        19.1380   -9.5870  -26.3140 C.3   141  GLU141      0.1699
     53  C         18.3650   -9.7230  -27.6330 C.2   141  GLU141      0.2592
     54  O         18.0270   -8.6930  -28.2460 O.2   141  GLU141     -0.2718
     55  CB        18.2430   -9.0490  -25.1880 C.3   141  GLU141      0.0402
     56  CG        18.8530   -9.1810  -23.7840 C.3   141  GLU141      0.1161
     57  CD        18.8800  -10.6310  -23.2660 C.2   141  GLU141      0.3649
     58  OE1       18.5670  -11.5900  -23.9970 O.co2 141  GLU141     -0.2457
     59  OE2       19.2040  -10.8570  -22.1000 O.co2 141  GLU141     -0.2457
     60  N         18.0830  -10.9420  -28.1060 N.am  142  LEU142     -0.1980
     61  CA        18.2040  -12.2230  -27.3900 C.3   142  LEU142      0.1596
     62  C         19.3320  -13.1580  -27.8820 C.2   142  LEU142      0.2287
     63  O         19.5020  -14.2570  -27.3460 O.2   142  LEU142     -0.2864
     64  CB        16.8840  -12.9930  -27.5030 C.3   142  LEU142      0.0297
     65  CG        15.7110  -12.5840  -26.6120 C.3   142  LEU142      0.0022
     66  CD1       15.0280  -11.3010  -27.0310 C.3   142  LEU142      0.0001
     67  CD2       14.6660  -13.6790  -26.6150 C.3   142  LEU142      0.0001
     68  N         22.0140  -15.1890  -25.7450 N.3   145  ASN145     -0.1240
     69  CA        21.6440  -16.3600  -24.9740 C.3   145  ASN145      0.1653
     70  C         22.0430  -17.6980  -25.5820 C.2   145  ASN145      0.2266
     71  O         21.6050  -18.7350  -25.0800 O.2   145  ASN145     -0.2867
     72  CB        20.1420  -16.3570  -24.7570 C.3   145  ASN145      0.1155
     73  CG        19.6880  -15.2240  -23.8770 C.2   145  ASN145      0.2627
     74  OD1       20.1270  -15.1010  -22.7320 O.2   145  ASN145     -0.2716
     75  ND2       18.8090  -14.3850  -24.3960 N.am  145  ASN145     -0.0877
     76  N         12.2990  -12.0250   -9.8900 N.3   191  THR191     -0.1218
     77  CA        12.4660  -13.2180  -10.6950 C.3   191  THR191      0.1862
     78  C         13.2710  -14.3280  -10.0270 C.2   191  THR191      0.2287
     79  O         13.4390  -15.4040  -10.6080 O.2   191  THR191     -0.2866
     80  CB        13.1980  -12.8660  -11.9860 C.3   191  THR191      0.1770
     81  OG1       14.5340  -12.4650  -11.6510 O.3   191  THR191     -0.2211
     82  CG2       12.4740  -11.7450  -12.7080 C.3   191  THR191      0.0375
     83  N         15.5230  -19.6400   -6.7170 N.3   195  ARG195     -0.1245
     84  CA        16.9730  -19.8850   -6.8820 C.3   195  ARG195      0.1563
     85  C         17.7540  -19.6020   -5.5920 C.2   195  ARG195      0.2260
     86  O         17.4870  -20.2650   -4.6100 O.2   195  ARG195     -0.2867
     87  CB        17.4980  -19.1100   -8.0730 C.3   195  ARG195      0.0307
     88  CG        16.8030  -19.5550   -9.3670 C.3   195  ARG195      0.0489
     89  CD        17.2810  -18.8290  -10.6060 C.3   195  ARG195      0.2205
     90  NE        16.4230  -19.1920  -11.7300 N.pl3 195  ARG195     -0.0865
     91  CZ        16.6670  -18.9880  -13.0070 C.cat 195  ARG195      0.5346
     92  NH1       17.7710  -18.3740  -13.4280 N.pl3 195  ARG195      0.1354
     93  NH2       15.7640  -19.4070  -13.8860 N.pl3 195  ARG195      0.1354
     94  N         18.9900  -12.7970  -11.6670 N.3   210  THR210     -0.1203
     95  CA        18.9240  -14.0740  -12.3560 C.3   210  THR210      0.1994
     96  C         19.3040  -14.0020  -13.8250 C.2   210  THR210      0.2618
     97  O         19.3200  -12.9160  -14.4410 O.2   210  THR210     -0.2717
     98  CB        17.4860  -14.6420  -12.3250 C.3   210  THR210      0.1784
     99  OG1       16.5650  -13.7090  -12.9380 O.3   210  THR210     -0.2211
    100  CG2       17.0590  -15.0150  -10.8890 C.3   210  THR210      0.0376
    101  N         19.5670  -15.1820  -14.3870 N.am  211  GLY211     -0.1942
    102  CA        19.7000  -15.3670  -15.8340 C.3   211  GLY211      0.2014
    103  C         19.2020  -16.7130  -16.3000 C.2   211  GLY211      0.2640
    104  O         19.3690  -17.7070  -15.6060 O.2   211  GLY211     -0.2714
    105  N         18.5960  -16.7400  -17.4920 N.am  212  THR212     -0.1936
    106  CA        18.0810  -17.9300  -18.1290 C.3   212  THR212      0.2028
    107  C         18.2260  -17.7880  -19.6510 C.2   212  THR212      0.2642
    108  O         17.6570  -16.8940  -20.2580 O.2   212  THR212     -0.2714
    109  CB        16.6060  -18.1860  -17.7720 C.3   212  THR212      0.1808
    110  OG1       16.4110  -18.0420  -16.3740 O.3   212  THR212     -0.2208
    111  CG2       16.1690  -19.6150  -18.1540 C.3   212  THR212      0.0379
    112  N         19.0200  -18.6770  -20.2520 N.am  213  CYS213     -0.1953
    113  CA        19.3100  -18.6390  -21.6770 C.3   213  CYS213      0.1843
    114  C         18.2250  -19.3140  -22.5340 C.2   213  CYS213      0.2626
    115  O         17.9970  -18.9100  -23.7020 O.2   213  CYS213     -0.2714
    116  CB        20.6840  -19.2400  -21.9140 C.3   213  CYS213      0.0997
    117  SG        22.0840  -18.0840  -21.6830 S.3   213  CYS213     -0.0797
    118  N         17.5180  -20.2910  -21.9570 N.am  214  GLY214     -0.1954
    119  CA        16.4590  -21.0200  -22.6840 C.3   214  GLY214      0.1869
    120  C         16.9760  -22.1550  -23.5310 C.2   214  GLY214      0.2309
    121  O         16.2020  -22.8020  -24.2210 O.2   214  GLY214     -0.2863
    122  N         17.1290  -26.3570  -18.1980 N.3   248  HIS248     -0.1241
    123  CA        17.6540  -25.7260  -16.9920 C.3   248  HIS248      0.1621
    124  C         16.8130  -26.1480  -15.7810 C.2   248  HIS248      0.2264
    125  O         15.7310  -26.7850  -15.9130 O.2   248  HIS248     -0.2867
    126  CB        17.7410  -24.2010  -17.1030 C.3   248  HIS248      0.0745
    127  CG        16.4350  -23.4820  -16.9040 C.ar  248  HIS248      0.0817
    128  ND1       15.5110  -23.3280  -17.9100 N.ar  248  HIS248     -0.2268
    129  CD2       15.9310  -22.8260  -15.8380 C.ar  248  HIS248      0.1154
    130  CE1       14.4650  -22.6520  -17.4500 C.ar  248  HIS248      0.1986
    131  NE2       14.6950  -22.3510  -16.1890 N.ar  248  HIS248     -0.2212
@<TRIPOS>BOND
     1    22    21    1
     2    22    16    1
     3    54    53    2
     4    21    20    1
     5    60    53   am
     6    60    61    1
     7    62    61    1
     8    62    63    2
     9    53    52    1
    10    64    61    1
    11    64    65    1
    12    16    17    1
    13    66    65    1
    14    20    17    1
    15    67    65    1
    16    51    52    1
    17    52    55    1
    18    17    18    1
    19    68    69    1
    20    70    71    2
    21    70    69    1
    22    55    56    1
    23    69    72    1
    24    18    19    2
    25    18    23   am
    26    72    73    1
    27    75    73   am
    28   121   120    2
    29    58    57   ar
    30    73    74    2
    31    23    24    1
    32    56    57    1
    33   115   114    2
    34    50    48   am
    35    46    45    2
    36    47    48    1
    37    47    44    1
    38   120   119    1
    39    45    44    1
    40    57    59   ar
    41    48    49    2
    42    29    31   ar
    43    29    28   ar
    44    31    32   ar
    45   119   118    1
    46    44    43    1
    47   114   118   am
    48   114   113    1
    49    24    25    1
    50    24    27    1
    51    25    26    2
    52    28    27    1
    53    28    30   ar
    54   116   117    1
    55   116   113    1
    56    32    34   ar
    57    32    30   ar
    58   113   112    1
    59    34    36   ar
    60    30    33   ar
    61    36    35   ar
    62    33    35   ar
    63   108   107    2
    64   112   107   am
    65    15    14    1
    66    14    13    1
    67   107   106    1
    68     6     5    1
    69     1     2    1
    70    40    39    2
    71    13    12    1
    72     2     5    1
    73     2     3    1
    74    12    11    1
    75   122   123    1
    76   111   109    1
    77   106   109    1
    78   106   105    1
    79   128   130   ar
    80   128   127   ar
    81    39    38    1
    82   109   110    1
    83   105   103   am
    84   130   131   ar
    85     3     4    2
    86   126   123    1
    87   126   127    1
    88   123   124    1
    89   127   129   ar
    90     7     8    1
    91    11     8    1
    92     8     9    1
    93    42    41    1
    94    38    41    1
    95    38    37    1
    96   103   102    1
    97   103   104    2
    98   131   129   ar
    99   125   124    2
   100   102   101    1
   101     9    10    2
   102    97    96    2
   103   101    96   am
   104    93    91    1
   105    96    95    1
   106    92    91    1
   107    91    90    2
   108    99    98    1
   109    82    80    1
   110    95    98    1
   111    95    94    1
   112    98   100    1
   113    80    81    1
   114    80    77    1
   115    90    89    1
   116    77    78    1
   117    77    76    1
   118    79    78    2
   119    89    88    1
   120    88    87    1
   121    87    84    1
   122    84    83    1
   123    84    85    1
   124    85    86    2
