@<TRIPOS>MOLECULE
tmp/5eefA00.pdb
 139 137 0 0 0
SMALL
GASTEIGER

@<TRIPOS>ATOM
      1  N        -12.2520  -49.6040   -8.6070 N.3    19  HIS19      -0.1227
      2  CA       -13.0430  -48.3850   -8.6140 C.3    19  HIS19       0.1737
      3  C        -12.2000  -47.1250   -8.7580 C.2    19  HIS19       0.2438
      4  O        -11.2090  -46.9540   -8.0500 O.2    19  HIS19      -0.2733
      5  CB       -13.8780  -48.3040   -7.3410 C.3    19  HIS19       0.0758
      6  CG       -15.1360  -47.5140   -7.5050 C.ar   19  HIS19       0.0818
      7  ND1      -15.1760  -46.1430   -7.3750 N.ar   19  HIS19      -0.2268
      8  CD2      -16.3980  -47.9020   -7.8040 C.ar   19  HIS19       0.1154
      9  CE1      -16.4110  -45.7200   -7.5800 C.ar   19  HIS19       0.1986
     10  NE2      -17.1720  -46.7690   -7.8410 N.ar   19  HIS19      -0.2212
     11  N        -12.5990  -46.2390   -9.6860 N.am   20  PRO20      -0.2729
     12  CA       -11.9030  -44.9810   -9.9820 C.3    20  PRO20       0.1401
     13  C        -11.8910  -43.9860   -8.8170 C.2    20  PRO20       0.2269
     14  O        -10.8620  -43.3470   -8.5880 O.2    20  PRO20      -0.2865
     15  CB       -12.6940  -44.4160  -11.1700 C.3    20  PRO20       0.0296
     16  CG       -14.0230  -45.0790  -11.1000 C.3    20  PRO20       0.0237
     17  CD       -13.7380  -46.4550  -10.5960 C.3    20  PRO20       0.0939
     18  N        -24.7580  -44.4320  -10.0710 N.3    87  SER87      -0.1202
     19  CA       -23.3020  -44.4680   -9.9190 C.3    87  SER87       0.2020
     20  C        -22.8410  -44.0720   -8.5190 C.2    87  SER87       0.2618
     21  O        -22.2020  -43.0340   -8.3350 O.2    87  SER87      -0.2717
     22  CB       -22.6430  -43.5610  -10.9580 C.3    87  SER87       0.2103
     23  OG       -23.0290  -43.9320  -12.2700 O.3    87  SER87      -0.2182
     24  N        -23.1710  -44.9090   -7.5400 N.am   88  VAL88      -0.1979
     25  CA       -22.8800  -44.6280   -6.1380 C.3    88  VAL88       0.1595
     26  C        -22.5870  -45.9100   -5.3620 C.2    88  VAL88       0.2287
     27  O        -23.3610  -46.8670   -5.4210 O.2    88  VAL88      -0.2864
     28  CB       -24.0610  -43.8850   -5.4580 C.3    88  VAL88       0.0276
     29  CG1      -24.0550  -44.1110   -3.9520 C.3    88  VAL88       0.0022
     30  CG2      -24.0250  -42.3980   -5.7820 C.3    88  VAL88       0.0022
     31  N        -20.4560  -32.2300   -6.1200 N.3   129  HIS129     -0.1226
     32  CA       -21.2520  -31.4600   -7.0790 C.3   129  HIS129      0.1752
     33  C        -22.3680  -32.2450   -7.7700 C.2   129  HIS129      0.2596
     34  O        -23.1710  -31.6580   -8.4900 O.2   129  HIS129     -0.2718
     35  CB       -20.3440  -30.8130   -8.1360 C.3   129  HIS129      0.0759
     36  CG       -19.7820  -31.7660   -9.1440 C.ar  129  HIS129      0.0818
     37  ND1      -19.7130  -31.4660  -10.4890 N.ar  129  HIS129     -0.2268
     38  CD2      -19.2340  -32.9970   -9.0050 C.ar  129  HIS129      0.1154
     39  CE1      -19.1610  -32.4750  -11.1360 C.ar  129  HIS129      0.1986
     40  NE2      -18.8610  -33.4170  -10.2600 N.ar  129  HIS129     -0.2212
     41  N        -22.4460  -33.5530   -7.5380 N.am  130  HIS130     -0.1975
     42  CA       -23.5550  -34.3360   -8.0880 C.3   130  HIS130      0.1656
     43  C        -24.6590  -34.5930   -7.0690 C.2   130  HIS130      0.2291
     44  O        -25.7690  -34.9720   -7.4380 O.2   130  HIS130     -0.2864
     45  CB       -23.0570  -35.6740   -8.6370 C.3   130  HIS130      0.0771
     46  CG       -22.2020  -35.5410   -9.8550 C.ar  130  HIS130      0.0820
     47  ND1      -22.6460  -34.9330  -11.0080 N.ar  130  HIS130     -0.2267
     48  CD2      -20.9290  -35.9310  -10.0980 C.ar  130  HIS130      0.1154
     49  CE1      -21.6810  -34.9510  -11.9100 C.ar  130  HIS130      0.1986
     50  NE2      -20.6310  -35.5530  -11.3840 N.ar  130  HIS130     -0.2212
     51  N        -23.5040  -39.8780   -8.4350 N.3   138  GLY138     -0.1210
     52  CA       -22.1570  -39.7240   -8.9530 C.3   138  GLY138      0.1956
     53  C        -21.0800  -39.6500   -7.8890 C.2   138  GLY138      0.2611
     54  O        -20.2860  -38.7110   -7.8770 O.2   138  GLY138     -0.2717
     55  N        -21.0850  -40.6320   -6.9890 N.am  139  PHE139     -0.1976
     56  CA       -20.0890  -40.7770   -5.9200 C.3   139  PHE139      0.1639
     57  C        -20.1480  -39.6440   -4.8950 C.2   139  PHE139      0.2290
     58  O        -19.2040  -39.4510   -4.1250 O.2   139  PHE139     -0.2864
     59  CB       -18.6740  -40.8670   -6.5060 C.3   139  PHE139      0.0560
     60  CG       -18.5590  -41.8000   -7.6790 C.ar  139  PHE139     -0.0200
     61  CD1      -19.1820  -43.0360   -7.6670 C.ar  139  PHE139     -0.0042
     62  CD2      -17.8340  -41.4320   -8.7990 C.ar  139  PHE139     -0.0042
     63  CE1      -19.0800  -43.8890   -8.7490 C.ar  139  PHE139     -0.0003
     64  CE2      -17.7270  -42.2800   -9.8830 C.ar  139  PHE139     -0.0003
     65  CZ       -18.3520  -43.5100   -9.8590 C.ar  139  PHE139     -0.0000
     66  N        -15.0480  -29.2380  -13.6780 N.3   167  ASP167     -0.1239
     67  CA       -15.0520  -30.6920  -13.7650 C.3   167  ASP167      0.1674
     68  C        -15.6350  -31.0900  -15.1150 C.2   167  ASP167      0.2266
     69  O        -16.4970  -30.3920  -15.6500 O.2   167  ASP167     -0.2867
     70  CB       -15.8670  -31.2990  -12.6170 C.3   167  ASP167      0.1410
     71  CG       -15.7250  -32.8070  -12.5230 C.2   167  ASP167      0.3668
     72  OD1      -16.2200  -33.5240  -13.4190 O.co2 167  ASP167     -0.2456
     73  OD2      -15.1330  -33.2820  -11.5330 O.co2 167  ASP167     -0.2456
     74  N        -17.5630  -33.4290  -15.7660 N.3   169  HIS169     -0.1241
     75  CA       -18.9410  -33.8770  -15.6070 C.3   169  HIS169      0.1621
     76  C        -19.8380  -32.7280  -15.1680 C.2   169  HIS169      0.2264
     77  O        -19.4210  -31.8590  -14.4020 O.2   169  HIS169     -0.2867
     78  CB       -19.0290  -35.0230  -14.5980 C.3   169  HIS169      0.0745
     79  CG       -18.3190  -36.2690  -15.0320 C.ar  169  HIS169      0.0817
     80  ND1      -17.0120  -36.5390  -14.6900 N.ar  169  HIS169     -0.2268
     81  CD2      -18.7370  -37.3170  -15.7800 C.ar  169  HIS169      0.1154
     82  CE1      -16.6550  -37.7010  -15.2070 C.ar  169  HIS169      0.1986
     83  NE2      -17.6830  -38.1940  -15.8730 N.ar  169  HIS169     -0.2212
     84  N        -22.2220  -39.2720  -19.5660 N.3   198  TRP198     -0.1241
     85  CA       -22.8120  -39.2480  -18.2280 C.3   198  TRP198      0.1605
     86  C        -22.7920  -37.8260  -17.6710 C.2   198  TRP198      0.2264
     87  O        -21.7910  -37.1220  -17.8190 O.2   198  TRP198     -0.2867
     88  CB       -22.0550  -40.2010  -17.2960 C.3   198  TRP198      0.0550
     89  CG       -22.7280  -40.4120  -15.9720 C.ar  198  TRP198      0.0003
     90  CD1      -23.6020  -41.4090  -15.6480 C.ar  198  TRP198      0.0946
     91  CD2      -22.6000  -39.5950  -14.8000 C.ar  198  TRP198      0.0152
     92  NE1      -24.0200  -41.2680  -14.3480 N.ar  198  TRP198     -0.2442
     93  CE2      -23.4220  -40.1610  -13.8050 C.ar  198  TRP198      0.0810
     94  CE3      -21.8750  -38.4390  -14.4980 C.ar  198  TRP198      0.0012
     95  CZ2      -23.5330  -39.6140  -12.5270 C.ar  198  TRP198      0.0191
     96  CZ3      -21.9870  -37.8980  -13.2300 C.ar  198  TRP198      0.0001
     97  CH2      -22.8080  -38.4850  -12.2600 C.ar  198  TRP198      0.0015
     98  N        -10.7070  -34.1620  -14.1240 N.3   260  ASP260     -0.1239
     99  CA       -10.8500  -35.2430  -15.0850 C.3   260  ASP260      0.1674
    100  C        -10.8560  -34.7230  -16.5240 C.2   260  ASP260      0.2266
    101  O        -10.9550  -35.5030  -17.4700 O.2   260  ASP260     -0.2867
    102  CB       -12.1170  -36.0540  -14.8010 C.3   260  ASP260      0.1410
    103  CG       -13.2100  -35.2280  -14.1560 C.2   260  ASP260      0.3668
    104  OD1      -13.1760  -33.9850  -14.2800 O.co2 260  ASP260     -0.2456
    105  OD2      -14.1110  -35.8250  -13.5310 O.co2 260  ASP260     -0.2456
    106  N        -11.5120  -40.9700  -17.9330 N.3   267  LYS267     -0.1245
    107  CA       -12.9520  -40.7360  -17.9200 C.3   267  LYS267      0.1561
    108  C        -13.3580  -39.4850  -18.6950 C.2   267  LYS267      0.2260
    109  O        -14.3980  -39.4640  -19.3550 O.2   267  LYS267     -0.2867
    110  CB       -13.4450  -40.6310  -16.4750 C.3   267  LYS267      0.0271
    111  CG       -12.8830  -41.7060  -15.5630 C.3   267  LYS267      0.0035
    112  CD       -13.9660  -42.6550  -15.0910 C.3   267  LYS267      0.0206
    113  CE       -13.4100  -44.0500  -14.8610 C.3   267  LYS267      0.1093
    114  NZ       -14.4670  -44.9910  -14.4020 N.3   267  LYS267     -0.1314
    115  N        -13.1870  -32.2500   -6.8310 N.3   297  GLU297     -0.1231
    116  CA       -14.3170  -33.0400   -7.2990 C.3   297  GLU297      0.1699
    117  C        -13.8070  -34.3100   -7.9770 C.2   297  GLU297      0.2592
    118  O        -13.3240  -35.2240   -7.3080 O.2   297  GLU297     -0.2718
    119  CB       -15.2000  -32.2270   -8.2530 C.3   297  GLU297      0.0402
    120  CG       -15.8750  -31.0160   -7.6140 C.3   297  GLU297      0.1161
    121  CD       -17.0180  -31.3870   -6.6780 C.2   297  GLU297      0.3649
    122  OE1      -17.5410  -30.4840   -5.9880 O.co2 297  GLU297     -0.2457
    123  OE2      -17.3990  -32.5740   -6.6320 O.co2 297  GLU297     -0.2457
    124  N        -13.9030  -34.3580   -9.3020 N.am  298  GLY298     -0.1957
    125  CA       -13.4750  -35.5210  -10.0580 C.3   298  GLY298      0.1869
    126  C        -12.0060  -35.5000  -10.4390 C.2   298  GLY298      0.2309
    127  O        -11.2570  -34.6070  -10.0450 O.2   298  GLY298     -0.2863
    128  N         -9.4000  -38.8310  -12.1230 N.3   300  TYR300     -0.1241
    129  CA        -9.2120  -40.2380  -11.9970 C.3   300  TYR300      0.1605
    130  C         -7.8940  -40.7760  -12.5000 C.2   300  TYR300      0.2264
    131  O         -7.6550  -41.9420  -12.4290 O.2   300  TYR300     -0.2867
    132  CB       -10.3480  -40.9050  -12.6920 C.3   300  TYR300      0.0534
    133  CG       -11.6100  -40.5520  -12.0240 C.ar  300  TYR300     -0.0201
    134  CD1      -11.9210  -41.1000  -10.8230 C.ar  300  TYR300     -0.0009
    135  CD2      -12.4640  -39.6230  -12.5650 C.ar  300  TYR300     -0.0009
    136  CE1      -13.0420  -40.7510  -10.1610 C.ar  300  TYR300      0.0417
    137  CE2      -13.6010  -39.2740  -11.9150 C.ar  300  TYR300      0.0417
    138  CZ       -13.8760  -39.8550  -10.7150 C.ar  300  TYR300      0.1957
    139  OH       -14.9760  -39.5430  -10.0480 O.3   300  TYR300     -0.2866
@<TRIPOS>BOND
     1    84    85    1
     2   109   108    2
     3   108   107    1
     4    85    86    1
     5    85    88    1
     6   106   107    1
     7   107   110    1
     8    87    86    2
     9   101   100    2
    10    88    89    1
    11   100    99    1
    12   110   111    1
    13    89    90   ar
    14    89    91   ar
    15    83    81   ar
    16    83    82   ar
    17    81    79   ar
    18    74    75    1
    19    69    68    2
    20    90    92   ar
    21    75    76    1
    22    75    78    1
    23   111   112    1
    24    82    80   ar
    25    76    77    2
    26    68    67    1
    27   112   113    1
    28    99   102    1
    29    99    98    1
    30    79    80   ar
    31    79    78    1
    32   113   114    1
    33   102   103    1
    34    91    94   ar
    35    91    93   ar
    36    94    96   ar
    37    92    93   ar
    38   104   103   ar
    39   103   105   ar
    40    93    95   ar
    41    67    66    1
    42    67    70    1
    43    72    71   ar
    44    96    97   ar
    45   132   133    1
    46   132   129    1
    47    70    71    1
    48   135   133   ar
    49   135   137   ar
    50    95    97   ar
    51    71    73   ar
    52   130   131    2
    53   130   129    1
    54    23    22    1
    55   128   129    1
    56   133   134   ar
    57   137   138   ar
    58    49    50   ar
    59    49    47   ar
    60    50    48   ar
    61    15    16    1
    62    15    12    1
    63    39    37   ar
    64    39    40   ar
    65    16    17    1
    66    47    46   ar
    67    22    19    1
    68   134   136   ar
    69   138   136   ar
    70   138   139    1
    71    17    11    1
    72    37    36   ar
    73   126   125    1
    74   126   127    2
    75    40    38   ar
    76    48    46   ar
    77    18    19    1
    78   125   124    1
    79    12    11    1
    80    12    13    1
    81    19    20    1
    82    64    65   ar
    83    64    62   ar
    84    65    63   ar
    85    46    45    1
    86    11     3   am
    87   124   117   am
    88    36    38   ar
    89    36    35    1
    90    52    51    1
    91    52    53    1
    92    13    14    2
    93    62    60   ar
    94     3     2    1
    95     3     4    2
    96    63    61   ar
    97    45    42    1
    98     2     1    1
    99     2     5    1
   100    20    21    2
   101    20    24   am
   102    34    33    2
   103   119   120    1
   104   119   116    1
   105    35    32    1
   106    42    41    1
   107    42    43    1
   108   117   118    2
   109   117   116    1
   110    53    54    2
   111    53    55   am
   112    10     8   ar
   113    10     9   ar
   114     8     6   ar
   115    33    41   am
   116    33    32    1
   117    60    61   ar
   118    60    59    1
   119   120   121    1
   120     9     7   ar
   121    24    25    1
   122     6     7   ar
   123     6     5    1
   124    44    43    2
   125   116   115    1
   126    32    31    1
   127    55    56    1
   128   121   123   ar
   129   121   122   ar
   130    59    56    1
   131    25    28    1
   132    25    26    1
   133    56    57    1
   134    30    28    1
   135    28    29    1
   136    27    26    2
   137    57    58    2
