@<TRIPOS>MOLECULE
tmp/5eegA00.pdb
 212 209 0 0 0
SMALL
GASTEIGER

@<TRIPOS>ATOM
      1  N         -5.6330   13.5090   -0.7510 N.3   129  TYR129     -0.1241
      2  CA        -4.2690   13.9560   -0.4510 C.3   129  TYR129      0.1605
      3  C         -3.8760   13.7160    1.0040 C.2   129  TYR129      0.2264
      4  O         -2.6850   13.5360    1.2940 O.2   129  TYR129     -0.2867
      5  CB        -4.0920   15.4270   -0.8190 C.3   129  TYR129      0.0534
      6  CG        -3.9670   15.6330   -2.3110 C.ar  129  TYR129     -0.0201
      7  CD1       -4.8410   16.4620   -2.9930 C.ar  129  TYR129     -0.0009
      8  CD2       -3.0070   14.9490   -3.0430 C.ar  129  TYR129     -0.0009
      9  CE1       -4.7430   16.6360   -4.3600 C.ar  129  TYR129      0.0417
     10  CE2       -2.8870   15.1300   -4.4100 C.ar  129  TYR129      0.0417
     11  CZ        -3.7720   15.9720   -5.0630 C.ar  129  TYR129      0.1957
     12  OH        -3.6720   16.1510   -6.4230 O.3   129  TYR129     -0.2866
     13  N          1.9550    8.3200   -1.9970 N.3   139  ARG139     -0.1245
     14  CA         2.5130    9.6170   -2.3760 C.3   139  ARG139      0.1563
     15  C          3.4720    9.4880   -3.5550 C.2   139  ARG139      0.2260
     16  O          3.3550   10.2060   -4.5570 O.2   139  ARG139     -0.2867
     17  CB         3.2400   10.2440   -1.1770 C.3   139  ARG139      0.0307
     18  CG         3.9100   11.5890   -1.4610 C.3   139  ARG139      0.0489
     19  CD         2.8690   12.7020   -1.5990 C.3   139  ARG139      0.2205
     20  NE         2.4600   12.9440   -2.9870 N.pl3 139  ARG139     -0.0865
     21  CZ         1.7650   14.0110   -3.3640 C.cat 139  ARG139      0.5346
     22  NH1        1.4240   14.9030   -2.4510 N.pl3 139  ARG139      0.1354
     23  NH2        1.4330   14.2060   -4.6340 N.pl3 139  ARG139      0.1354
     24  N          1.8500    8.1520   -6.8860 N.3   142  PHE142     -0.1227
     25  CA         1.0660    9.1790   -7.5760 C.3   142  PHE142      0.1736
     26  C          1.9720   10.1160   -8.3650 C.2   142  PHE142      0.2595
     27  O          1.7260   10.3910   -9.5480 O.2   142  PHE142     -0.2718
     28  CB         0.2380    9.9720   -6.5660 C.3   142  PHE142      0.0547
     29  CG        -0.6650   11.0120   -7.1910 C.ar  142  PHE142     -0.0202
     30  CD1       -1.8110   10.6340   -7.8900 C.ar  142  PHE142     -0.0042
     31  CD2       -0.3740   12.3660   -7.0600 C.ar  142  PHE142     -0.0042
     32  CE1       -2.6650   11.5900   -8.4410 C.ar  142  PHE142     -0.0003
     33  CE2       -1.2170   13.3320   -7.6120 C.ar  142  PHE142     -0.0003
     34  CZ        -2.3800   12.9340   -8.3010 C.ar  142  PHE142     -0.0000
     35  N          3.0370   10.6070   -7.7200 N.am  143  ASP143     -0.1974
     36  CA         3.9490   11.5320   -8.3840 C.3   143  ASP143      0.1709
     37  C          4.6230   10.8770   -9.5810 C.2   143  ASP143      0.2293
     38  O          4.8500   11.5250  -10.6070 O.2   143  ASP143     -0.2864
     39  CB         5.0010   12.0430   -7.4010 C.3   143  ASP143      0.1436
     40  CG         4.3990   12.7950   -6.2310 C.2   143  ASP143      0.3671
     41  OD1        3.2580   13.2890   -6.3480 O.co2 143  ASP143     -0.2456
     42  OD2        5.0680   12.8940   -5.1850 O.co2 143  ASP143     -0.2456
     43  N          1.9660   10.5580  -12.7050 N.3   146  LEU146     -0.1231
     44  CA         1.7640   11.8260  -13.4110 C.3   146  LEU146      0.1693
     45  C          3.0250   12.2890  -14.1240 C.2   146  LEU146      0.2591
     46  O          2.9430   12.8740  -15.2080 O.2   146  LEU146     -0.2718
     47  CB         1.3060   12.9220  -12.4520 C.3   146  LEU146      0.0284
     48  CG        -0.0310   12.7830  -11.7270 C.3   146  LEU146      0.0019
     49  CD1       -0.4550   14.1480  -11.1980 C.3   146  LEU146      0.0001
     50  CD2       -1.0860   12.2140  -12.6260 C.3   146  LEU146      0.0001
     51  N          4.1920   12.0320  -13.5420 N.am  147  ALA147     -0.1980
     52  CA         5.4580   12.4880  -14.0970 C.3   147  ALA147      0.1597
     53  C          6.0910   11.4750  -15.0350 C.2   147  ALA147      0.2287
     54  O          7.2230   11.6980  -15.4840 O.2   147  ALA147     -0.2864
     55  CB         6.4440   12.8270  -12.9750 C.3   147  ALA147      0.0319
     56  N          5.8980   18.4760  -21.2680 N.3   154  PHE154     -0.1241
     57  CA         5.8150   19.9060  -21.0380 C.3   154  PHE154      0.1605
     58  C          6.5890   20.6990  -22.0740 C.2   154  PHE154      0.2264
     59  O          6.6590   21.9250  -21.9690 O.2   154  PHE154     -0.2867
     60  CB         6.3050   20.2360  -19.6270 C.3   154  PHE154      0.0534
     61  CG         5.4870   19.5950  -18.5430 C.ar  154  PHE154     -0.0203
     62  CD1        5.9770   18.5040  -17.8320 C.ar  154  PHE154     -0.0042
     63  CD2        4.2030   20.0670  -18.2490 C.ar  154  PHE154     -0.0042
     64  CE1        5.2060   17.9020  -16.8310 C.ar  154  PHE154     -0.0003
     65  CE2        3.4320   19.4870  -17.2530 C.ar  154  PHE154     -0.0003
     66  CZ         3.9240   18.4020  -16.5370 C.ar  154  PHE154     -0.0000
     67  N          5.6100   27.5710  -10.0680 N.3   171  ASP171     -0.1239
     68  CA         4.7710   26.4550  -10.4970 C.3   171  ASP171      0.1674
     69  C          4.0530   25.9460   -9.2580 C.2   171  ASP171      0.2266
     70  O          4.6580   25.3090   -8.3890 O.2   171  ASP171     -0.2867
     71  CB         5.5690   25.3450  -11.1780 C.3   171  ASP171      0.1410
     72  CG         4.6610   24.3260  -11.8750 C.2   171  ASP171      0.3668
     73  OD1        3.4350   24.3690  -11.6290 O.co2 171  ASP171     -0.2456
     74  OD2        5.1580   23.4910  -12.6690 O.co2 171  ASP171     -0.2456
     75  N          1.8620   23.7170   -7.1200 N.3   173  GLY173     -0.1210
     76  CA         1.6260   22.2930   -7.2520 C.3   173  GLY173      0.1956
     77  C          2.2370   21.7110   -8.5140 C.2   173  GLY173      0.2612
     78  O          1.5830   20.9450   -9.2330 O.2   173  GLY173     -0.2717
     79  N          3.4850   22.0630   -8.8050 N.am  174  GLY174     -0.1942
     80  CA         4.1060   21.6010  -10.0390 C.3   174  GLY174      0.2014
     81  C          4.7010   20.1990  -10.0860 C.2   174  GLY174      0.2639
     82  O          5.5150   19.9140  -10.9720 O.2   174  GLY174     -0.2714
     83  N          4.3230   19.3190   -9.1530 N.am  175  GLY175     -0.1954
     84  CA         4.7210   17.9110   -9.2500 C.3   175  GLY175      0.1869
     85  C          6.2000   17.6940   -8.9760 C.2   175  GLY175      0.2309
     86  O          6.7760   18.2280   -8.0110 O.2   175  GLY175     -0.2863
     87  N          7.5340   20.6050  -15.6460 N.3   179  PHE179     -0.1241
     88  CA         7.1440   21.8350  -16.3310 C.3   179  PHE179      0.1605
     89  C          8.1770   22.9380  -16.1000 C.2   179  PHE179      0.2264
     90  O          8.6530   23.5650  -17.0540 O.2   179  PHE179     -0.2867
     91  CB         5.7550   22.2810  -15.8610 C.3   179  PHE179      0.0534
     92  CG         5.0090   23.1440  -16.8630 C.ar  179  PHE179     -0.0203
     93  CD1        3.6200   23.2150  -16.8400 C.ar  179  PHE179     -0.0042
     94  CD2        5.6910   23.8840  -17.8210 C.ar  179  PHE179     -0.0042
     95  CE1        2.9360   23.9970  -17.7510 C.ar  179  PHE179     -0.0003
     96  CE2        5.0200   24.6680  -18.7220 C.ar  179  PHE179     -0.0003
     97  CZ         3.6400   24.7320  -18.6910 C.ar  179  PHE179     -0.0000
     98  N          6.3390   24.9280   -5.9270 N.3   195  LEU195     -0.1231
     99  CA         5.6760   24.8010   -4.6310 C.3   195  LEU195      0.1693
    100  C          4.9540   23.4600   -4.5920 C.2   195  LEU195      0.2592
    101  O          4.0850   23.2020   -5.4310 O.2   195  LEU195     -0.2718
    102  CB         4.6980   25.9580   -4.3940 C.3   195  LEU195      0.0284
    103  CG         3.7840   25.9680   -3.1600 C.3   195  LEU195      0.0019
    104  CD1        4.5630   26.0980   -1.8530 C.3   195  LEU195      0.0001
    105  CD2        2.7820   27.1110   -3.2930 C.3   195  LEU195      0.0001
    106  N          5.3070   22.6010   -3.6280 N.am  196  GLU196     -0.1966
    107  CA         4.6580   21.2970   -3.5430 C.3   196  GLU196      0.1733
    108  C          4.4650   20.8910   -2.0900 C.2   196  GLU196      0.2616
    109  O          4.8410   21.6160   -1.1640 O.2   196  GLU196     -0.2715
    110  CB         5.4380   20.2250   -4.3080 C.3   196  GLU196      0.0429
    111  CG         4.8500   19.9200   -5.6720 C.3   196  GLU196      0.1163
    112  CD         3.4980   19.2080   -5.6100 C.2   196  GLU196      0.3649
    113  OE1        2.8490   19.1240   -6.6680 O.co2 196  GLU196     -0.2457
    114  OE2        3.0760   18.7370   -4.5250 O.co2 196  GLU196     -0.2457
    115  N          3.8220   19.7280   -1.9180 N.am  197  MET197     -0.1977
    116  CA         3.5420   19.0720   -0.6470 C.3   197  MET197      0.1605
    117  C          4.7490   18.2730   -0.1630 C.2   197  MET197      0.2287
    118  O          5.6640   17.9670   -0.9280 O.2   197  MET197     -0.2864
    119  CB         2.3410   18.1160   -0.7710 C.3   197  MET197      0.0413
    120  CG         1.0730   18.7650   -1.3280 C.3   197  MET197      0.0598
    121  SD        -0.4630   17.9450   -0.8370 S.3   197  MET197     -0.1393
    122  CE        -0.7250   16.8770   -2.1710 C.3   197  MET197      0.0692
    123  N          5.0040   23.7870    0.9090 N.3   222  GLY222     -0.1210
    124  CA         4.0010   24.7100    1.4090 C.3   222  GLY222      0.1956
    125  C          2.6050   24.3070    0.9890 C.2   222  GLY222      0.2612
    126  O          2.3710   23.2060    0.4660 O.2   222  GLY222     -0.2717
    127  N          1.6820   25.2360    1.2220 N.am  223  ASP223     -0.1959
    128  CA         0.2460   25.0280    1.0420 C.3   223  ASP223      0.1840
    129  C         -0.2680   26.1650    0.1730 C.2   223  ASP223      0.2622
    130  O         -0.1920   27.3350    0.5770 O.2   223  ASP223     -0.2715
    131  CB        -0.4560   24.9830    2.4090 C.3   223  ASP223      0.1450
    132  CG        -1.9860   24.8860    2.3170 C.2   223  ASP223      0.3671
    133  OD1       -2.5590   24.7050    1.2240 O.co2 223  ASP223     -0.2456
    134  OD2       -2.6270   24.9800    3.3780 O.co2 223  ASP223     -0.2456
    135  N         -0.7230   25.8120   -1.0120 N.am  224  PHE224     -0.1960
    136  CA        -1.2110   26.7570   -1.9840 C.3   224  PHE224      0.1771
    137  C         -2.4810   27.5490   -1.6240 C.2   224  PHE224      0.2619
    138  O         -2.8570   28.4260   -2.3000 O.2   224  PHE224     -0.2715
    139  CB        -1.1340   26.2750   -3.4400 C.3   224  PHE224      0.0574
    140  CG        -1.9200   25.0480   -3.7760 C.ar  224  PHE224     -0.0200
    141  CD1       -3.1710   24.7910   -3.2360 C.ar  224  PHE224     -0.0042
    142  CD2       -1.4220   24.1940   -4.7220 C.ar  224  PHE224     -0.0042
    143  CE1       -3.8700   23.6750   -3.6100 C.ar  224  PHE224     -0.0003
    144  CE2       -2.1220   23.0960   -5.1020 C.ar  224  PHE224     -0.0003
    145  CZ        -3.3320   22.8280   -4.5380 C.ar  224  PHE224     -0.0000
    146  N         -3.1030   27.2090   -0.5250 N.am  225  PHE225     -0.1974
    147  CA        -4.2100   27.9920    0.0130 C.3   225  PHE225      0.1639
    148  C         -3.7260   29.1070    0.9370 C.2   225  PHE225      0.2290
    149  O         -4.4740   30.0520    1.2080 O.2   225  PHE225     -0.2864
    150  CB        -5.1950   27.0690    0.7530 C.3   225  PHE225      0.0560
    151  CG        -5.8890   26.0500   -0.1470 C.ar  225  PHE225     -0.0200
    152  CD1       -5.5210   24.7230   -0.1260 C.ar  225  PHE225     -0.0042
    153  CD2       -6.9140   26.4370   -1.0020 C.ar  225  PHE225     -0.0042
    154  CE1       -6.1510   23.7800   -0.9560 C.ar  225  PHE225     -0.0003
    155  CE2       -7.5550   25.5210   -1.8190 C.ar  225  PHE225     -0.0003
    156  CZ        -7.1700   24.1780   -1.7930 C.ar  225  PHE225     -0.0000
    157  N         -0.9350   23.6180  -13.4340 N.3   238  SER238     -0.1202
    158  CA        -0.9910   22.5430  -14.4250 C.3   238  SER238      0.2020
    159  C         -1.5890   21.3090  -13.7650 C.2   238  SER238      0.2619
    160  O         -0.9580   20.6920  -12.8950 O.2   238  SER238     -0.2717
    161  CB         0.3990   22.2510  -14.9920 C.3   238  SER238      0.2103
    162  OG         0.3920   21.1160  -15.8450 O.3   238  SER238     -0.2182
    163  N         -2.8040   20.9560  -14.1800 N.am  239  PHE239     -0.1961
    164  CA        -3.5430   19.8360  -13.5970 C.3   239  PHE239      0.1771
    165  C         -3.6410   19.9700  -12.0790 C.2   239  PHE239      0.2619
    166  O         -3.4770   19.0140  -11.3250 O.2   239  PHE239     -0.2715
    167  CB        -2.9380   18.4920  -14.0230 C.3   239  PHE239      0.0574
    168  CG        -3.2570   18.1420  -15.4510 C.ar  239  PHE239     -0.0200
    169  CD1       -2.5170   18.6870  -16.4930 C.ar  239  PHE239     -0.0042
    170  CD2       -4.3530   17.3370  -15.7490 C.ar  239  PHE239     -0.0042
    171  CE1       -2.8370   18.4050  -17.8060 C.ar  239  PHE239     -0.0003
    172  CE2       -4.6860   17.0460  -17.0590 C.ar  239  PHE239     -0.0003
    173  CZ        -3.9250   17.5660  -18.0890 C.ar  239  PHE239     -0.0000
    174  N         -3.9660   21.1830  -11.6360 N.am  240  VAL240     -0.1977
    175  CA        -4.2060   21.4860  -10.2300 C.3   240  VAL240      0.1596
    176  C         -5.6780   21.8170   -9.9740 C.2   240  VAL240      0.2287
    177  O         -6.2920   21.2810   -9.0540 O.2   240  VAL240     -0.2864
    178  CB        -3.2950   22.6460   -9.7600 C.3   240  VAL240      0.0276
    179  CG1       -3.7770   23.2100   -8.3990 C.3   240  VAL240      0.0022
    180  CG2       -1.8410   22.2070   -9.6940 C.3   240  VAL240      0.0022
    181  N         -8.6040   19.3460   -9.5910 N.3   243  ASN243     -0.1225
    182  CA        -8.6600   18.6560   -8.3020 C.3   243  ASN243      0.1785
    183  C         -9.6290   19.2760   -7.3050 C.2   243  ASN243      0.2597
    184  O         -9.8690   18.6620   -6.2580 O.2   243  ASN243     -0.2718
    185  CB        -7.2960   18.6360   -7.6230 C.3   243  ASN243      0.1169
    186  CG        -6.2930   17.7850   -8.3370 C.2   243  ASN243      0.2627
    187  OD1       -5.2300   17.5220   -7.7880 O.2   243  ASN243     -0.2716
    188  ND2       -6.6020   17.3570   -9.5630 N.am  243  ASN243     -0.0877
    189  N        -10.1570   20.4680   -7.5750 N.am  244  TRP244     -0.1976
    190  CA       -10.8320   21.2470   -6.5480 C.3   244  TRP244      0.1640
    191  C        -12.1980   21.7370   -7.0090 C.2   244  TRP244      0.2290
    192  O        -12.3770   22.0800   -8.1800 O.2   244  TRP244     -0.2864
    193  CB        -9.9650   22.4460   -6.1410 C.3   244  TRP244      0.0576
    194  CG        -8.6530   21.9770   -5.6650 C.ar  244  TRP244      0.0006
    195  CD1       -7.4880   21.9000   -6.3820 C.ar  244  TRP244      0.0946
    196  CD2       -8.3740   21.4370   -4.3770 C.ar  244  TRP244      0.0152
    197  NE1       -6.4950   21.3580   -5.6030 N.ar  244  TRP244     -0.2442
    198  CE2       -7.0140   21.0610   -4.3680 C.ar  244  TRP244      0.0810
    199  CE3       -9.1390   21.2410   -3.2220 C.ar  244  TRP244      0.0012
    200  CZ2       -6.4020   20.5140   -3.2420 C.ar  244  TRP244      0.0191
    201  CZ3       -8.5330   20.6950   -2.1090 C.ar  244  TRP244      0.0001
    202  CH2       -7.1750   20.3390   -2.1250 C.ar  244  TRP244      0.0015
    203  N         -2.7080   24.9470  -17.4270 N.3   269  HIS269     -0.1241
    204  CA        -2.4320   23.8400  -18.3310 C.3   269  HIS269      0.1621
    205  C         -3.3990   22.7270  -17.9460 C.2   269  HIS269      0.2264
    206  O         -3.2430   22.0990  -16.8970 O.2   269  HIS269     -0.2867
    207  CB        -0.9790   23.3910  -18.2080 C.3   269  HIS269      0.0745
    208  CG        -0.6030   22.2820  -19.1360 C.ar  269  HIS269      0.0817
    209  ND1       -0.0740   21.0880  -18.6910 N.ar  269  HIS269     -0.2268
    210  CD2       -0.6720   22.1850  -20.4870 C.ar  269  HIS269      0.1154
    211  CE1        0.1640   20.3020  -19.7280 C.ar  269  HIS269      0.1986
    212  NE2       -0.1900   20.9420  -20.8280 N.ar  269  HIS269     -0.2212
@<TRIPOS>BOND
     1    58    59    2
     2    58    57    1
     3    56    57    1
     4    57    60    1
     5   212   210   ar
     6   212   211   ar
     7   210   208   ar
     8   211   209   ar
     9    60    61    1
    10   208   209   ar
    11   208   207    1
    12    96    97   ar
    13    96    94   ar
    14    97    95   ar
    15    61    63   ar
    16    61    62   ar
    17   204   207    1
    18   204   205    1
    19   204   203    1
    20    63    65   ar
    21   173   171   ar
    22   173   172   ar
    23   205   206    2
    24    62    64   ar
    25    94    92   ar
    26   171   169   ar
    27    95    93   ar
    28    65    66   ar
    29   172   170   ar
    30    90    89    2
    31    92    93   ar
    32    92    91    1
    33    64    66   ar
    34   169   168   ar
    35    88    89    1
    36    88    91    1
    37    88    87    1
    38   162   161    1
    39   170   168   ar
    40    54    53    2
    41   168   167    1
    42    46    45    2
    43    53    52    1
    44   161   158    1
    45   158   159    1
    46   158   157    1
    47   163   159   am
    48   163   164    1
    49    45    51   am
    50    45    44    1
    51    52    51    1
    52    52    55    1
    53   167   164    1
    54   159   160    2
    55   164   165    1
    56    44    43    1
    57    44    47    1
    58    74    72   ar
    59    50    48    1
    60    47    48    1
    61   165   174   am
    62   165   166    2
    63    72    73   ar
    64    72    71    1
    65    48    49    1
    66   174   175    1
    67    71    68    1
    68    82    81    2
    69    38    37    2
    70    68    67    1
    71    68    69    1
    72   175   176    1
    73   175   178    1
    74    81    80    1
    75    81    83   am
    76    80    79    1
    77   176   177    2
    78   178   180    1
    79   178   179    1
    80   181   182    1
    81    37    36    1
    82   188   186   am
    83    27    26    2
    84    69    70    2
    85    84    83    1
    86    84    85    1
    87    78    77    2
    88    85    86    2
    89    79    77   am
    90    77    76    1
    91    32    34   ar
    92    32    30   ar
    93    36    35    1
    94    36    39    1
    95    26    35   am
    96    26    25    1
    97   186   187    2
    98   186   185    1
    99   182   185    1
   100   182   183    1
   101    34    33   ar
   102   192   191    2
   103    30    29   ar
   104    33    31   ar
   105    25    24    1
   106    25    28    1
   107   189   183   am
   108   189   190    1
   109    39    40    1
   110   183   184    2
   111    76    75    1
   112    29    31   ar
   113    29    28    1
   114   191   190    1
   115   113   112   ar
   116   190   193    1
   117    12    11    1
   118   195   194   ar
   119   195   197   ar
   120    41    40   ar
   121    40    42   ar
   122   193   194    1
   123    98    99    1
   124   111   112    1
   125   111   110    1
   126   194   196   ar
   127   112   114   ar
   128   197   198   ar
   129   101   100    2
   130   144   142   ar
   131   144   145   ar
   132    11    10   ar
   133    11     9   ar
   134   142   140   ar
   135    23    21    1
   136    99   100    1
   137    99   102    1
   138   100   106   am
   139    16    15    2
   140   145   143   ar
   141    10     8   ar
   142   102   103    1
   143   196   198   ar
   144   196   199   ar
   145   198   200   ar
   146     9     7   ar
   147   110   107    1
   148   140   139    1
   149   140   141   ar
   150   106   107    1
   151   143   141   ar
   152    15    14    1
   153   107   108    1
   154   139   136    1
   155    21    20    2
   156    21    22    1
   157   105   103    1
   158   200   202   ar
   159   199   201   ar
   160   103   104    1
   161     8     6   ar
   162     7     6   ar
   163    20    19    1
   164    14    13    1
   165    14    17    1
   166     6     5    1
   167   138   137    2
   168   122   121    1
   169   202   201   ar
   170   108   115   am
   171   108   109    2
   172   136   137    1
   173   136   135    1
   174   115   116    1
   175   155   156   ar
   176   155   153   ar
   177   156   154   ar
   178   137   146   am
   179    19    18    1
   180    18    17    1
   181   120   121    1
   182   120   119    1
   183   135   129   am
   184   153   151   ar
   185   154   152   ar
   186   118   117    2
   187     5     2    1
   188   119   116    1
   189     1     2    1
   190   116   117    1
   191   146   147    1
   192     2     3    1
   193   151   152   ar
   194   151   150    1
   195   147   150    1
   196   147   148    1
   197   129   130    2
   198   129   128    1
   199   126   125    2
   200   123   124    1
   201   148   149    2
   202   125   127   am
   203   125   124    1
   204     3     4    2
   205   128   127    1
   206   128   131    1
   207   133   132   ar
   208   132   131    1
   209   132   134   ar
