@<TRIPOS>MOLECULE
tmp/5eehB03.pdb
 115 109 0 0 0
SMALL
GASTEIGER

@<TRIPOS>ATOM
      1  N        107.3040   44.4300  125.0850 N.3    94  TRP94      -0.1241
      2  CA       107.3610   45.8910  125.0580 C.3    94  TRP94       0.1605
      3  C        108.3250   46.4620  126.1000 C.2    94  TRP94       0.2264
      4  O        108.7890   47.5830  125.9510 O.2    94  TRP94      -0.2867
      5  CB       105.9770   46.5060  125.2760 C.3    94  TRP94       0.0550
      6  CG       105.1380   46.6050  124.0130 C.ar   94  TRP94       0.0003
      7  CD1      104.1970   45.7180  123.5780 C.ar   94  TRP94       0.0946
      8  CD2      105.1710   47.6660  123.0510 C.ar   94  TRP94       0.0152
      9  NE1      103.6410   46.1640  122.3890 N.ar   94  TRP94      -0.2442
     10  CE2      104.2280   47.3570  122.0510 C.ar   94  TRP94       0.0810
     11  CE3      105.9120   48.8550  122.9370 C.ar   94  TRP94       0.0012
     12  CZ2      104.0060   48.1920  120.9530 C.ar   94  TRP94       0.0191
     13  CZ3      105.6900   49.6700  121.8660 C.ar   94  TRP94       0.0001
     14  CH2      104.7440   49.3380  120.8760 C.ar   94  TRP94       0.0015
     15  N        104.6720   46.3850  116.9300 N.3   148  LEU148     -0.1245
     16  CA       103.6660   47.3060  116.4330 C.3   148  LEU148      0.1561
     17  C        102.3730   46.5770  116.0520 C.2   148  LEU148      0.2260
     18  O        101.2760   47.1280  116.1660 O.2   148  LEU148     -0.2867
     19  CB       104.2190   48.0420  115.2200 C.3   148  LEU148      0.0270
     20  CG       105.2170   49.1490  115.5750 C.3   148  LEU148      0.0019
     21  CD1      105.4120   50.0610  114.3780 C.3   148  LEU148      0.0001
     22  CD2      104.7980   49.9240  116.8130 C.3   148  LEU148      0.0001
     23  N        101.1720   43.8070  117.5000 N.3   150  CYS150     -0.1221
     24  CA       100.7730   42.8870  118.5600 C.3   150  CYS150      0.1808
     25  C         99.2460   42.7970  118.7510 C.2   150  CYS150      0.2601
     26  O         98.7370   41.7810  119.2270 O.2   150  CYS150     -0.2717
     27  CB       101.4720   43.2740  119.8760 C.3   150  CYS150      0.0970
     28  SG       100.8720   44.7780  120.6590 S.3   150  CYS150     -0.0800
     29  N         98.5310   43.8540  118.3670 N.am  151  ASP151     -0.1973
     30  CA        97.0620   43.8980  118.3810 C.3   151  ASP151      0.1709
     31  C         96.5290   44.0690  116.9670 C.2   151  ASP151      0.2293
     32  O         96.4280   45.1940  116.4800 O.2   151  ASP151     -0.2864
     33  CB        96.5350   45.0310  119.2720 C.3   151  ASP151      0.1436
     34  CG        95.0110   44.9930  119.4480 C.2   151  ASP151      0.3671
     35  OD1       94.2930   44.4920  118.5470 O.co2 151  ASP151     -0.2456
     36  OD2       94.5190   45.4710  120.4980 O.co2 151  ASP151     -0.2456
     37  N         93.2440   46.2720  116.2320 N.3   154  VAL154     -0.1231
     38  CA        93.3980   47.7080  116.3010 C.3   154  VAL154      0.1692
     39  C         94.2690   48.1590  115.1360 C.2   154  VAL154      0.2591
     40  O         94.0210   49.1960  114.5060 O.2   154  VAL154     -0.2718
     41  CB        94.0570   48.1370  117.6410 C.3   154  VAL154      0.0266
     42  CG1       94.5180   49.5780  117.5650 C.3   154  VAL154      0.0020
     43  CG2       93.0930   47.9330  118.7950 C.3   154  VAL154      0.0020
     44  N         95.2900   47.3680  114.8310 N.am  155  ALA155     -0.1980
     45  CA        96.2280   47.7940  113.8070 C.3   155  ALA155      0.1597
     46  C         95.6380   47.6640  112.4080 C.2   155  ALA155      0.2287
     47  O         95.8670   48.5260  111.5560 O.2   155  ALA155     -0.2864
     48  CB        97.5190   46.9850  113.8970 C.3   155  ALA155      0.0319
     49  N        100.1900   55.1390  111.0640 N.3   241  PHE241     -0.1241
     50  CA       101.2500   55.3800  112.0390 C.3   241  PHE241      0.1605
     51  C        102.5930   55.5770  111.3380 C.2   241  PHE241      0.2264
     52  O        103.6030   54.9640  111.6860 O.2   241  PHE241     -0.2867
     53  CB       101.3070   54.2410  113.0450 C.3   241  PHE241      0.0534
     54  CG       100.0420   54.1130  113.8500 C.ar  241  PHE241     -0.0203
     55  CD1       99.7750   54.9960  114.8840 C.ar  241  PHE241     -0.0042
     56  CD2       99.1120   53.1320  113.5530 C.ar  241  PHE241     -0.0042
     57  CE1       98.6010   54.8960  115.6160 C.ar  241  PHE241     -0.0003
     58  CE2       97.9340   53.0250  114.2860 C.ar  241  PHE241     -0.0003
     59  CZ        97.6820   53.9080  115.3120 C.ar  241  PHE241     -0.0000
     60  N        102.7030   59.4220  126.2170 N.3   287  GLU287     -0.1231
     61  CA       103.6920   58.3550  126.0800 C.3   287  GLU287      0.1699
     62  C        104.1790   58.2490  124.6470 C.2   287  GLU287      0.2592
     63  O        105.3820   58.2300  124.3830 O.2   287  GLU287     -0.2718
     64  CB       103.1140   57.0050  126.5110 C.3   287  GLU287      0.0402
     65  CG       104.0120   55.8370  126.1870 C.3   287  GLU287      0.1161
     66  CD       103.3340   54.5210  126.5030 C.2   287  GLU287      0.3649
     67  OE1      102.6050   54.0010  125.6260 O.co2 287  GLU287     -0.2457
     68  OE2      103.5170   54.0260  127.6320 O.co2 287  GLU287     -0.2457
     69  N        103.2320   58.1780  123.7180 N.am  288  LEU288     -0.1980
     70  CA       103.5930   58.0180  122.3190 C.3   288  LEU288      0.1596
     71  C        104.2370   59.2980  121.7900 C.2   288  LEU288      0.2287
     72  O        105.2390   59.2620  121.0690 O.2   288  LEU288     -0.2864
     73  CB       102.3530   57.6410  121.4960 C.3   288  LEU288      0.0297
     74  CG       102.5300   57.3860  119.9940 C.3   288  LEU288      0.0022
     75  CD1      103.6840   56.4100  119.7490 C.3   288  LEU288      0.0001
     76  CD2      101.2220   56.8360  119.3950 C.3   288  LEU288      0.0001
     77  N        107.8210   59.5880  123.1140 N.3   291  ARG291     -0.1245
     78  CA       108.6590   58.6140  122.4280 C.3   291  ARG291      0.1563
     79  C        109.0020   59.1040  121.0260 C.2   291  ARG291      0.2260
     80  O        110.1380   58.9820  120.5890 O.2   291  ARG291     -0.2867
     81  CB       107.9730   57.2470  122.3350 C.3   291  ARG291      0.0307
     82  CG       108.0610   56.4410  123.6130 C.3   291  ARG291      0.0489
     83  CD       107.3980   55.0640  123.4550 C.3   291  ARG291      0.2205
     84  NE       107.8420   54.1760  124.5390 N.pl3 291  ARG291     -0.0865
     85  CZ       107.1650   53.1150  124.9690 C.cat 291  ARG291      0.5346
     86  NH1      106.0020   52.8060  124.4190 N.pl3 291  ARG291      0.1354
     87  NH2      107.6530   52.3650  125.9570 N.pl3 291  ARG291      0.1354
     88  N         91.2430   47.3000  123.9030 N.3   328  ILE328     -0.1245
     89  CA        91.4410   48.2750  124.9860 C.3   328  ILE328      0.1561
     90  C         90.9160   49.6700  124.6110 C.2   328  ILE328      0.2260
     91  O         90.8050   49.9960  123.4280 O.2   328  ILE328     -0.2867
     92  CB        92.9260   48.3820  125.3790 C.3   328  ILE328      0.0252
     93  CG1       93.7740   48.8360  124.1850 C.3   328  ILE328      0.0019
     94  CG2       93.4190   47.0490  125.9520 C.3   328  ILE328      0.0019
     95  CD1       95.1780   49.2890  124.5740 C.3   328  ILE328      0.0001
     96  N         91.4550   52.8490  123.5640 N.3   330  TYR330     -0.1241
     97  CA        92.5700   53.5780  122.9590 C.3   330  TYR330      0.1605
     98  C         92.0110   54.2960  121.7310 C.2   330  TYR330      0.2264
     99  O         91.7380   53.6610  120.7110 O.2   330  TYR330     -0.2867
    100  CB        93.7060   52.6230  122.5870 C.3   330  TYR330      0.0534
    101  CG        95.0100   53.3230  122.2850 C.ar  330  TYR330     -0.0201
    102  CD1       96.0140   53.4250  123.2520 C.ar  330  TYR330     -0.0009
    103  CD2       95.2400   53.8870  121.0360 C.ar  330  TYR330     -0.0009
    104  CE1       97.2190   54.0740  122.9710 C.ar  330  TYR330      0.0417
    105  CE2       96.4310   54.5360  120.7480 C.ar  330  TYR330      0.0417
    106  CZ        97.4130   54.6280  121.7100 C.ar  330  TYR330      0.1957
    107  OH        98.5860   55.2780  121.4050 O.3   330  TYR330     -0.2866
    108  N         91.3960   56.0120  118.4630 N.3   332  LEU332     -0.1245
    109  CA        92.0900   56.1640  117.1840 C.3   332  LEU332      0.1561
    110  C         91.1370   56.6420  116.1140 C.2   332  LEU332      0.2260
    111  O         89.9190   56.4870  116.2290 O.2   332  LEU332     -0.2867
    112  CB        92.7350   54.8490  116.7560 C.3   332  LEU332      0.0270
    113  CG        93.9620   54.4710  117.5770 C.3   332  LEU332      0.0019
    114  CD1       94.4110   53.0660  117.2460 C.3   332  LEU332      0.0001
    115  CD2       95.0850   55.4600  117.2680 C.3   332  LEU332      0.0001
@<TRIPOS>BOND
     1    49    50    1
     2    51    52    2
     3    51    50    1
     4    47    46    2
     5    50    53    1
     6    46    45    1
     7    53    54    1
     8    56    54   ar
     9    56    58   ar
    10    45    48    1
    11    45    44    1
    12    54    55   ar
    13    58    59   ar
    14    21    20    1
    15    40    39    2
    16    44    39   am
    17    55    57   ar
    18    39    38    1
    19    19    20    1
    20    19    16    1
    21    59    57   ar
    22    20    22    1
    23    17    18    2
    24    17    16    1
    25   110   111    2
    26   110   109    1
    27    37    38    1
    28    38    41    1
    29    16    15    1
    30    32    31    2
    31   112   109    1
    32   112   113    1
    33    31    30    1
    34   109   108    1
    35   114   113    1
    36   115   113    1
    37    23    24    1
    38    42    41    1
    39    41    43    1
    40    29    30    1
    41    29    25   am
    42    30    33    1
    43    35    34   ar
    44    24    25    1
    45    24    27    1
    46    25    26    2
    47    33    34    1
    48    76    74    1
    49    34    36   ar
    50    75    74    1
    51    27    28    1
    52    74    73    1
    53    80    79    2
    54    99    98    2
    55   105   103   ar
    56   105   106   ar
    57    14    12   ar
    58    14    13   ar
    59    12    10   ar
    60    79    78    1
    61   103   101   ar
    62    72    71    2
    63   107   106    1
    64    73    70    1
    65   106   104   ar
    66    98    97    1
    67    71    70    1
    68    13    11   ar
    69    10     9   ar
    70    10     8   ar
    71   101   100    1
    72   101   102   ar
    73    70    69    1
    74    81    78    1
    75    81    82    1
    76     9     7   ar
    77    78    77    1
    78   100    97    1
    79    11     8   ar
    80    97    96    1
    81   104   102   ar
    82     8     6   ar
    83    91    90    2
    84    83    82    1
    85    83    84    1
    86     7     6   ar
    87    69    62   am
    88    88    89    1
    89     6     5    1
    90    93    95    1
    91    93    92    1
    92    63    62    2
    93    86    85    1
    94    84    85    2
    95    90    89    1
    96    62    61    1
    97    85    87    1
    98    89    92    1
    99     2     1    1
   100     2     5    1
   101     2     3    1
   102    92    94    1
   103    67    66   ar
   104     4     3    2
   105    61    60    1
   106    61    64    1
   107    65    66    1
   108    65    64    1
   109    66    68   ar
