@<TRIPOS>MOLECULE
tmp/5eehB05.pdb
 93 91 0 0 0
SMALL
GASTEIGER

@<TRIPOS>ATOM
      1  N        101.0190   36.5120  127.2180 N.3    87  HIS87      -0.1227
      2  CA        99.8690   37.3580  127.5140 C.3    87  HIS87       0.1737
      3  C         99.6030   38.3040  126.3220 C.2    87  HIS87       0.2438
      4  O        100.5340   38.8810  125.7590 O.2    87  HIS87      -0.2733
      5  CB       100.0800   38.1610  128.8040 C.3    87  HIS87       0.0758
      6  CG        98.8710   38.9430  129.2050 C.ar   87  HIS87       0.0818
      7  ND1       98.5770   40.1770  128.6680 N.ar   87  HIS87      -0.2268
      8  CD2       97.8380   38.6300  130.0220 C.ar   87  HIS87       0.1154
      9  CE1       97.4290   40.6060  129.1610 C.ar   87  HIS87       0.1986
     10  NE2       96.9550   39.6820  129.9770 N.ar   87  HIS87      -0.2212
     11  N         98.3260   38.4500  125.9220 N.am   88  PRO88      -0.2718
     12  CA        97.9660   39.1730  124.6900 C.3    88  PRO88       0.1535
     13  C         98.4000   40.6420  124.6260 C.2    88  PRO88       0.2598
     14  O         98.5050   41.1820  123.5220 O.2    88  PRO88      -0.2715
     15  CB        96.4330   39.0830  124.6660 C.3    88  PRO88       0.0310
     16  CG        96.1110   37.8660  125.4770 C.3    88  PRO88       0.0237
     17  CD        97.1520   37.8330  126.5670 C.3    88  PRO88       0.0939
     18  N         98.6310   41.2930  125.7700 N.am   89  ALA89      -0.1978
     19  CA        99.0400   42.7030  125.7530 C.3    89  ALA89       0.1597
     20  C        100.5230   42.8570  125.3850 C.2    89  ALA89       0.2287
     21  O        100.9990   43.9730  125.1350 O.2    89  ALA89      -0.2864
     22  CB        98.7490   43.3670  127.1030 C.3    89  ALA89       0.0319
     23  N        103.1580   42.8160  126.9900 N.3    91  GLN91      -0.1245
     24  CA       103.9400   43.7690  127.7770 C.3    91  GLN91       0.1566
     25  C        105.3410   43.2710  128.1250 C.2    91  GLN91       0.2260
     26  O        106.2240   44.0940  128.3690 O.2    91  GLN91      -0.2867
     27  CB       103.1930   44.1440  129.0550 C.3    91  GLN91       0.0367
     28  CG       101.9920   45.0210  128.7740 C.3    91  GLN91       0.0905
     29  CD       102.3830   46.2340  127.9660 C.2    91  GLN91       0.2608
     30  OE1      103.0970   47.1070  128.4540 O.2    91  GLN91      -0.2717
     31  NE2      101.9520   46.2800  126.7050 N.am   91  GLN91      -0.0878
     32  N        107.3040   44.4300  125.0850 N.3    94  TRP94      -0.1241
     33  CA       107.3610   45.8910  125.0580 C.3    94  TRP94       0.1605
     34  C        108.3250   46.4620  126.1000 C.2    94  TRP94       0.2264
     35  O        108.7890   47.5830  125.9510 O.2    94  TRP94      -0.2867
     36  CB       105.9770   46.5060  125.2760 C.3    94  TRP94       0.0550
     37  CG       105.1380   46.6050  124.0130 C.ar   94  TRP94       0.0003
     38  CD1      104.1970   45.7180  123.5780 C.ar   94  TRP94       0.0946
     39  CD2      105.1710   47.6660  123.0510 C.ar   94  TRP94       0.0152
     40  NE1      103.6410   46.1640  122.3890 N.ar   94  TRP94      -0.2442
     41  CE2      104.2280   47.3570  122.0510 C.ar   94  TRP94       0.0810
     42  CE3      105.9120   48.8550  122.9370 C.ar   94  TRP94       0.0012
     43  CZ2      104.0060   48.1920  120.9530 C.ar   94  TRP94       0.0191
     44  CZ3      105.6900   49.6700  121.8660 C.ar   94  TRP94       0.0001
     45  CH2      104.7440   49.3380  120.8760 C.ar   94  TRP94       0.0015
     46  N        101.1720   43.8070  117.5000 N.3   150  CYS150     -0.1221
     47  CA       100.7730   42.8870  118.5600 C.3   150  CYS150      0.1808
     48  C         99.2460   42.7970  118.7510 C.2   150  CYS150      0.2601
     49  O         98.7370   41.7810  119.2270 O.2   150  CYS150     -0.2717
     50  CB       101.4720   43.2740  119.8760 C.3   150  CYS150      0.0970
     51  SG       100.8720   44.7780  120.6590 S.3   150  CYS150     -0.0800
     52  N         98.5310   43.8540  118.3670 N.am  151  ASP151     -0.1973
     53  CA        97.0620   43.8980  118.3810 C.3   151  ASP151      0.1709
     54  C         96.5290   44.0690  116.9670 C.2   151  ASP151      0.2293
     55  O         96.4280   45.1940  116.4800 O.2   151  ASP151     -0.2864
     56  CB        96.5350   45.0310  119.2720 C.3   151  ASP151      0.1436
     57  CG        95.0110   44.9930  119.4480 C.2   151  ASP151      0.3671
     58  OD1       94.2930   44.4920  118.5470 O.co2 151  ASP151     -0.2456
     59  OD2       94.5190   45.4710  120.4980 O.co2 151  ASP151     -0.2456
     60  N         93.2440   46.2720  116.2320 N.3   154  VAL154     -0.1245
     61  CA        93.3980   47.7080  116.3010 C.3   154  VAL154      0.1561
     62  C         94.2690   48.1590  115.1360 C.2   154  VAL154      0.2260
     63  O         94.0210   49.1960  114.5060 O.2   154  VAL154     -0.2867
     64  CB        94.0570   48.1370  117.6410 C.3   154  VAL154      0.0252
     65  CG1       94.5180   49.5780  117.5650 C.3   154  VAL154      0.0019
     66  CG2       93.0930   47.9330  118.7950 C.3   154  VAL154      0.0019
     67  N         89.2480   46.4040  121.3760 N.3   327  THR327     -0.1203
     68  CA        89.9730   45.7660  122.4720 C.3   327  THR327      0.1994
     69  C         90.0660   46.7120  123.6820 C.2   327  THR327      0.2617
     70  O         89.0830   46.8930  124.4050 O.2   327  THR327     -0.2717
     71  CB        91.3850   45.3150  122.0140 C.3   327  THR327      0.1784
     72  OG1       92.1100   46.4360  121.4810 O.3   327  THR327     -0.2211
     73  CG2       91.2760   44.2320  120.9290 C.3   327  THR327      0.0376
     74  N         91.2430   47.3000  123.9030 N.am  328  ILE328     -0.1979
     75  CA        91.4410   48.2750  124.9860 C.3   328  ILE328      0.1595
     76  C         90.9160   49.6700  124.6110 C.2   328  ILE328      0.2287
     77  O         90.8050   49.9960  123.4280 O.2   328  ILE328     -0.2864
     78  CB        92.9260   48.3820  125.3790 C.3   328  ILE328      0.0276
     79  CG1       93.7740   48.8360  124.1850 C.3   328  ILE328      0.0022
     80  CG2       93.4190   47.0490  125.9520 C.3   328  ILE328      0.0022
     81  CD1       95.1780   49.2890  124.5740 C.3   328  ILE328      0.0001
     82  N         91.4550   52.8490  123.5640 N.3   330  TYR330     -0.1241
     83  CA        92.5700   53.5780  122.9590 C.3   330  TYR330      0.1605
     84  C         92.0110   54.2960  121.7310 C.2   330  TYR330      0.2264
     85  O         91.7380   53.6610  120.7110 O.2   330  TYR330     -0.2867
     86  CB        93.7060   52.6230  122.5870 C.3   330  TYR330      0.0534
     87  CG        95.0100   53.3230  122.2850 C.ar  330  TYR330     -0.0201
     88  CD1       96.0140   53.4250  123.2520 C.ar  330  TYR330     -0.0009
     89  CD2       95.2400   53.8870  121.0360 C.ar  330  TYR330     -0.0009
     90  CE1       97.2190   54.0740  122.9710 C.ar  330  TYR330      0.0417
     91  CE2       96.4310   54.5360  120.7480 C.ar  330  TYR330      0.0417
     92  CZ        97.4130   54.6280  121.7100 C.ar  330  TYR330      0.1957
     93  OH        98.5860   55.2780  121.4050 O.3   330  TYR330     -0.2866
@<TRIPOS>BOND
     1    63    62    2
     2    62    61    1
     3    60    61    1
     4    61    64    1
     5    55    54    2
     6    54    53    1
     7    46    47    1
     8    65    64    1
     9    64    66    1
    10    52    53    1
    11    52    48   am
    12    53    56    1
    13    58    57   ar
    14    47    48    1
    15    47    50    1
    16    48    49    2
    17    56    57    1
    18    57    59   ar
    19    50    51    1
    20    85    84    2
    21    91    89   ar
    22    91    92   ar
    23    45    43   ar
    24    45    44   ar
    25    73    71    1
    26    43    41   ar
    27    89    87   ar
    28    67    68    1
    29    93    92    1
    30    72    71    1
    31    92    90   ar
    32    84    83    1
    33    44    42   ar
    34    71    68    1
    35    41    40   ar
    36    41    39   ar
    37    87    86    1
    38    87    88   ar
    39    40    38   ar
    40    68    69    1
    41    86    83    1
    42    42    39   ar
    43    83    82    1
    44    90    88   ar
    45    39    37   ar
    46    77    76    2
    47    14    13    2
    48    38    37   ar
    49    69    74   am
    50    69    70    2
    51    74    75    1
    52    37    36    1
    53    79    81    1
    54    79    78    1
    55    76    75    1
    56    13    12    1
    57    13    18   am
    58    15    12    1
    59    15    16    1
    60    12    11    1
    61    75    78    1
    62    33    32    1
    63    33    36    1
    64    33    34    1
    65    21    20    2
    66    78    80    1
    67    20    19    1
    68    16    17    1
    69    19    18    1
    70    19    22    1
    71     4     3    2
    72    11     3   am
    73    11    17    1
    74    35    34    2
    75     3     2    1
    76    31    29   am
    77    23    24    1
    78     1     2    1
    79     2     5    1
    80    24    25    1
    81    24    27    1
    82    29    30    2
    83    29    28    1
    84    25    26    2
    85     7     9   ar
    86     7     6   ar
    87    28    27    1
    88     5     6    1
    89     9    10   ar
    90     6     8   ar
    91    10     8   ar
