@<TRIPOS>MOLECULE
tmp/5eehB02.pdb
 145 142 0 0 0
SMALL
GASTEIGER

@<TRIPOS>ATOM
      1  N        107.3040   44.4300  125.0850 N.3    94  TRP94      -0.1241
      2  CA       107.3610   45.8910  125.0580 C.3    94  TRP94       0.1605
      3  C        108.3250   46.4620  126.1000 C.2    94  TRP94       0.2264
      4  O        108.7890   47.5830  125.9510 O.2    94  TRP94      -0.2867
      5  CB       105.9770   46.5060  125.2760 C.3    94  TRP94       0.0550
      6  CG       105.1380   46.6050  124.0130 C.ar   94  TRP94       0.0003
      7  CD1      104.1970   45.7180  123.5780 C.ar   94  TRP94       0.0946
      8  CD2      105.1710   47.6660  123.0510 C.ar   94  TRP94       0.0152
      9  NE1      103.6410   46.1640  122.3890 N.ar   94  TRP94      -0.2442
     10  CE2      104.2280   47.3570  122.0510 C.ar   94  TRP94       0.0810
     11  CE3      105.9120   48.8550  122.9370 C.ar   94  TRP94       0.0012
     12  CZ2      104.0060   48.1920  120.9530 C.ar   94  TRP94       0.0191
     13  CZ3      105.6900   49.6700  121.8660 C.ar   94  TRP94       0.0001
     14  CH2      104.7440   49.3380  120.8760 C.ar   94  TRP94       0.0015
     15  N        111.8940   48.6610  121.3160 N.3   101  VAL101     -0.1245
     16  CA       111.2640   49.8240  121.9270 C.3   101  VAL101      0.1561
     17  C        111.8520   50.1370  123.3030 C.2   101  VAL101      0.2260
     18  O        112.1980   51.2800  123.5710 O.2   101  VAL101     -0.2867
     19  CB       109.7340   49.6460  122.0330 C.3   101  VAL101      0.0252
     20  CG1      109.1050   50.7870  122.8620 C.3   101  VAL101      0.0019
     21  CG2      109.1320   49.6280  120.6260 C.3   101  VAL101      0.0019
     22  N        117.3530   56.2150  114.4380 N.3   130  PHE130     -0.1227
     23  CA       116.5030   55.0500  114.6850 C.3   130  PHE130      0.1736
     24  C        116.4000   54.0530  113.5240 C.2   130  PHE130      0.2595
     25  O        116.8010   52.8990  113.6600 O.2   130  PHE130     -0.2718
     26  CB       115.1020   55.5340  115.0830 C.3   130  PHE130      0.0547
     27  CG       114.1710   54.4310  115.5300 C.ar  130  PHE130     -0.0202
     28  CD1      114.2490   53.9150  116.8150 C.ar  130  PHE130     -0.0042
     29  CD2      113.2040   53.9430  114.6800 C.ar  130  PHE130     -0.0042
     30  CE1      113.3890   52.9030  117.2300 C.ar  130  PHE130     -0.0003
     31  CE2      112.3410   52.9360  115.0810 C.ar  130  PHE130     -0.0003
     32  CZ       112.4310   52.4130  116.3610 C.ar  130  PHE130     -0.0000
     33  N        115.8930   54.4730  112.3700 N.am  131  TYR131     -0.1976
     34  CA       115.6600   53.4740  111.3350 C.3   131  TYR131      0.1639
     35  C        116.9680   53.0010  110.6920 C.2   131  TYR131      0.2290
     36  O        117.0390   51.8740  110.1890 O.2   131  TYR131     -0.2864
     37  CB       114.6690   54.0040  110.2770 C.3   131  TYR131      0.0560
     38  CG       113.2320   53.9420  110.7690 C.ar  131  TYR131     -0.0198
     39  CD1      112.5050   55.1000  111.0050 C.ar  131  TYR131     -0.0009
     40  CD2      112.6280   52.7140  111.0470 C.ar  131  TYR131     -0.0009
     41  CE1      111.1900   55.0330  111.4910 C.ar  131  TYR131      0.0417
     42  CE2      111.3270   52.6350  111.5270 C.ar  131  TYR131      0.0417
     43  CZ       110.6140   53.7960  111.7470 C.ar  131  TYR131      0.1957
     44  OH       109.3230   53.7130  112.2340 O.3   131  TYR131     -0.2866
     45  N        110.8370   45.1710  116.3420 N.3   144  PHE144     -0.1241
     46  CA       110.0500   46.3910  116.1370 C.3   144  PHE144      0.1605
     47  C        108.7980   46.0970  115.3110 C.2   144  PHE144      0.2264
     48  O        107.6750   46.4110  115.7110 O.2   144  PHE144     -0.2867
     49  CB       110.8980   47.4560  115.4380 C.3   144  PHE144      0.0534
     50  CG       110.1570   48.7240  115.1390 C.ar  144  PHE144     -0.0203
     51  CD1      109.8440   49.6140  116.1540 C.ar  144  PHE144     -0.0042
     52  CD2      109.7730   49.0340  113.8340 C.ar  144  PHE144     -0.0042
     53  CE1      109.1670   50.8000  115.8870 C.ar  144  PHE144     -0.0003
     54  CE2      109.0990   50.2210  113.5600 C.ar  144  PHE144     -0.0003
     55  CZ       108.7950   51.1020  114.5900 C.ar  144  PHE144     -0.0000
     56  N        104.6720   46.3850  116.9300 N.3   148  LEU148     -0.1245
     57  CA       103.6660   47.3060  116.4330 C.3   148  LEU148      0.1561
     58  C        102.3730   46.5770  116.0520 C.2   148  LEU148      0.2260
     59  O        101.2760   47.1280  116.1660 O.2   148  LEU148     -0.2867
     60  CB       104.2190   48.0420  115.2200 C.3   148  LEU148      0.0270
     61  CG       105.2170   49.1490  115.5750 C.3   148  LEU148      0.0019
     62  CD1      105.4120   50.0610  114.3780 C.3   148  LEU148      0.0001
     63  CD2      104.7980   49.9240  116.8130 C.3   148  LEU148      0.0001
     64  N        100.1900   55.1390  111.0640 N.3   241  PHE241     -0.1241
     65  CA       101.2500   55.3800  112.0390 C.3   241  PHE241      0.1605
     66  C        102.5930   55.5770  111.3380 C.2   241  PHE241      0.2264
     67  O        103.6030   54.9640  111.6860 O.2   241  PHE241     -0.2867
     68  CB       101.3070   54.2410  113.0450 C.3   241  PHE241      0.0534
     69  CG       100.0420   54.1130  113.8500 C.ar  241  PHE241     -0.0203
     70  CD1       99.7750   54.9960  114.8840 C.ar  241  PHE241     -0.0042
     71  CD2       99.1120   53.1320  113.5530 C.ar  241  PHE241     -0.0042
     72  CE1       98.6010   54.8960  115.6160 C.ar  241  PHE241     -0.0003
     73  CE2       97.9340   53.0250  114.2860 C.ar  241  PHE241     -0.0003
     74  CZ        97.6820   53.9080  115.3120 C.ar  241  PHE241     -0.0000
     75  N        103.5950   60.3330  112.3260 N.3   244  LEU244     -0.1231
     76  CA       104.0570   60.6740  113.6880 C.3   244  LEU244      0.1693
     77  C        105.5570   60.4570  113.8740 C.2   244  LEU244      0.2592
     78  O        106.1290   60.9820  114.8360 O.2   244  LEU244     -0.2718
     79  CB       103.2860   59.8670  114.7640 C.3   244  LEU244      0.0284
     80  CG       103.6960   58.4260  115.0610 C.3   244  LEU244      0.0019
     81  CD1      102.9340   57.8610  116.2760 C.3   244  LEU244      0.0001
     82  CD2      103.4950   57.5240  113.8420 C.3   244  LEU244      0.0001
     83  N        106.1940   59.7090  112.9660 N.am  245  ASN245     -0.1974
     84  CA       107.6410   59.4760  113.0210 C.3   245  ASN245      0.1688
     85  C        108.4560   60.6910  112.5880 C.2   245  ASN245      0.2292
     86  O        109.6920   60.6730  112.6650 O.2   245  ASN245     -0.2864
     87  CB       108.0790   58.3120  112.1040 C.3   245  ASN245      0.1181
     88  CG       107.6940   56.9270  112.6120 C.2   245  ASN245      0.2629
     89  OD1      107.9390   55.9440  111.9140 O.2   245  ASN245     -0.2716
     90  ND2      107.0950   56.8350  113.8030 N.am  245  ASN245     -0.0877
     91  N        102.7030   59.4220  126.2170 N.3   287  GLU287     -0.1231
     92  CA       103.6920   58.3550  126.0800 C.3   287  GLU287      0.1699
     93  C        104.1790   58.2490  124.6470 C.2   287  GLU287      0.2592
     94  O        105.3820   58.2300  124.3830 O.2   287  GLU287     -0.2718
     95  CB       103.1140   57.0050  126.5110 C.3   287  GLU287      0.0402
     96  CG       104.0120   55.8370  126.1870 C.3   287  GLU287      0.1161
     97  CD       103.3340   54.5210  126.5030 C.2   287  GLU287      0.3649
     98  OE1      102.6050   54.0010  125.6260 O.co2 287  GLU287     -0.2457
     99  OE2      103.5170   54.0260  127.6320 O.co2 287  GLU287     -0.2457
    100  N        103.2320   58.1780  123.7180 N.am  288  LEU288     -0.1980
    101  CA       103.5930   58.0180  122.3190 C.3   288  LEU288      0.1596
    102  C        104.2370   59.2980  121.7900 C.2   288  LEU288      0.2287
    103  O        105.2390   59.2620  121.0690 O.2   288  LEU288     -0.2864
    104  CB       102.3530   57.6410  121.4960 C.3   288  LEU288      0.0297
    105  CG       102.5300   57.3860  119.9940 C.3   288  LEU288      0.0022
    106  CD1      103.6840   56.4100  119.7490 C.3   288  LEU288      0.0001
    107  CD2      101.2220   56.8360  119.3950 C.3   288  LEU288      0.0001
    108  N        107.8210   59.5880  123.1140 N.3   291  ARG291     -0.1231
    109  CA       108.6590   58.6140  122.4280 C.3   291  ARG291      0.1694
    110  C        109.0020   59.1040  121.0260 C.2   291  ARG291      0.2591
    111  O        110.1380   58.9820  120.5890 O.2   291  ARG291     -0.2718
    112  CB       107.9730   57.2470  122.3350 C.3   291  ARG291      0.0321
    113  CG       108.0610   56.4410  123.6130 C.3   291  ARG291      0.0489
    114  CD       107.3980   55.0640  123.4550 C.3   291  ARG291      0.2205
    115  NE       107.8420   54.1760  124.5390 N.pl3 291  ARG291     -0.0865
    116  CZ       107.1650   53.1150  124.9690 C.cat 291  ARG291      0.5346
    117  NH1      106.0020   52.8060  124.4190 N.pl3 291  ARG291      0.1354
    118  NH2      107.6530   52.3650  125.9570 N.pl3 291  ARG291      0.1354
    119  N        108.0210   59.6570  120.3110 N.am  292  MET292     -0.1979
    120  CA       108.3310   60.1540  118.9640 C.3   292  MET292      0.1605
    121  C        109.3730   61.2720  119.0290 C.2   292  MET292      0.2287
    122  O        110.2690   61.3590  118.1750 O.2   292  MET292     -0.2864
    123  CB       107.0680   60.6290  118.2460 C.3   292  MET292      0.0413
    124  CG       106.1260   59.4730  117.8550 C.3   292  MET292      0.0598
    125  SD       106.9660   58.2070  116.8660 S.3   292  MET292     -0.1393
    126  CE       107.3360   56.9730  118.1170 C.3   292  MET292      0.0692
    127  N        112.8590   59.3640  120.1530 N.3   295  PHE295     -0.1227
    128  CA       113.3210   58.3400  119.1960 C.3   295  PHE295      0.1736
    129  C        113.6700   58.9730  117.8600 C.2   295  PHE295      0.2595
    130  O        114.6280   58.5720  117.2020 O.2   295  PHE295     -0.2718
    131  CB       112.2710   57.2570  118.8820 C.3   295  PHE295      0.0547
    132  CG       111.8630   56.3860  120.0470 C.ar  295  PHE295     -0.0202
    133  CD1      112.3620   56.5680  121.3260 C.ar  295  PHE295     -0.0042
    134  CD2      110.9570   55.3530  119.8270 C.ar  295  PHE295     -0.0042
    135  CE1      111.9360   55.7340  122.3830 C.ar  295  PHE295     -0.0003
    136  CE2      110.5260   54.5330  120.8560 C.ar  295  PHE295     -0.0003
    137  CZ       111.0160   54.7180  122.1390 C.ar  295  PHE295     -0.0000
    138  N        112.8340   59.9180  117.4370 N.am  296  LEU296     -0.1980
    139  CA       112.7750   60.2960  116.0270 C.3   296  LEU296      0.1596
    140  C        112.6430   61.7930  115.7200 C.2   296  LEU296      0.2287
    141  O        112.8560   62.2130  114.5750 O.2   296  LEU296     -0.2864
    142  CB       111.5880   59.5510  115.3760 C.3   296  LEU296      0.0297
    143  CG       111.8000   58.0650  115.0710 C.3   296  LEU296      0.0022
    144  CD1      110.4780   57.2980  114.9320 C.3   296  LEU296      0.0001
    145  CD2      112.6370   57.8890  113.8120 C.3   296  LEU296      0.0001
@<TRIPOS>BOND
     1    36    35    2
     2    37    38    1
     3    37    34    1
     4    35    34    1
     5    38    39   ar
     6    38    40   ar
     7    39    41   ar
     8    40    42   ar
     9    64    65    1
    10    34    33    1
    11    66    67    2
    12    66    65    1
    13    41    43   ar
    14    42    43   ar
    15    43    44    1
    16    89    88    2
    17    65    68    1
    18    87    88    1
    19    87    84    1
    20    75    76    1
    21    33    24   am
    22    85    86    2
    23    85    84    1
    24    88    90   am
    25    83    84    1
    26    83    77   am
    27    68    69    1
    28    24    25    2
    29    24    23    1
    30    71    69   ar
    31    71    73   ar
    32    54    52   ar
    33    54    55   ar
    34    76    77    1
    35    76    79    1
    36   145   143    1
    37    52    50   ar
    38    82    80    1
    39    69    70   ar
    40    77    78    2
    41    73    74   ar
    42    62    61    1
    43    22    23    1
    44   141   140    2
    45    55    53   ar
    46    29    31   ar
    47    29    27   ar
    48    23    26    1
    49    79    80    1
    50    70    72   ar
    51   144   143    1
    52    80    81    1
    53   143   142    1
    54    31    32   ar
    55    26    27    1
    56    50    49    1
    57    50    51   ar
    58    60    61    1
    59    60    57    1
    60    47    48    2
    61    47    46    1
    62    74    72   ar
    63   142   139    1
    64    49    46    1
    65    27    28   ar
    66    61    63    1
    67   140   139    1
    68    53    51   ar
    69   139   138    1
    70    58    59    2
    71    58    57    1
    72    46    45    1
    73    32    30   ar
    74    57    56    1
    75    28    30   ar
    76   125   124    1
    77   125   126    1
    78   130   129    2
    79   138   129   am
    80   124   123    1
    81   129   128    1
    82   122   121    2
    83   123   120    1
    84   131   128    1
    85   131   132    1
    86   120   121    1
    87   120   119    1
    88   128   127    1
    89   107   105    1
    90   106   105    1
    91   134   132   ar
    92   134   136   ar
    93   105   104    1
    94   132   133   ar
    95   119   110   am
    96   111   110    2
    97    21    19    1
    98   136   137   ar
    99    14    12   ar
   100    14    13   ar
   101    12    10   ar
   102   110   109    1
   103   103   102    2
   104    15    16    1
   105   133   135   ar
   106   104   101    1
   107   102   101    1
   108    13    11   ar
   109    16    19    1
   110    16    17    1
   111    19    20    1
   112    10     9   ar
   113    10     8   ar
   114   137   135   ar
   115   101   100    1
   116   112   109    1
   117   112   113    1
   118     9     7   ar
   119   109   108    1
   120    11     8   ar
   121     8     6   ar
   122    17    18    2
   123   114   113    1
   124   114   115    1
   125     7     6   ar
   126   100    93   am
   127     6     5    1
   128    94    93    2
   129   117   116    1
   130   115   116    2
   131    93    92    1
   132   116   118    1
   133     2     1    1
   134     2     5    1
   135     2     3    1
   136    98    97   ar
   137     4     3    2
   138    92    91    1
   139    92    95    1
   140    96    97    1
   141    96    95    1
   142    97    99   ar
