@<TRIPOS>MOLECULE
tmp/5eehC02.pdb
 103 97 0 0 0
SMALL
GASTEIGER

@<TRIPOS>ATOM
      1  N         70.2830   64.5490  151.9690 N.3   150  LEU150     -0.1245
      2  CA        70.3490   63.6220  150.8430 C.3   150  LEU150      0.1561
      3  C         70.6290   64.3400  149.5430 C.2   150  LEU150      0.2260
      4  O         71.2010   63.7740  148.6130 O.2   150  LEU150     -0.2867
      5  CB        69.0700   62.8020  150.6980 C.3   150  LEU150      0.0270
      6  CG        68.9960   61.5150  151.5260 C.3   150  LEU150      0.0019
      7  CD1       69.2560   61.7250  153.0090 C.3   150  LEU150      0.0001
      8  CD2       67.6700   60.8260  151.2730 C.3   150  LEU150      0.0001
      9  N         74.3370   66.9740  147.4320 N.3   153  ASP153     -0.1239
     10  CA        74.9400   67.0450  146.1210 C.3   153  ASP153      0.1674
     11  C         73.7480   67.1630  145.1420 C.2   153  ASP153      0.2266
     12  O         73.4360   66.2270  144.4070 O.2   153  ASP153     -0.2867
     13  CB        75.7970   65.7890  145.9080 C.3   153  ASP153      0.1410
     14  CG        76.6840   65.8660  144.6900 C.2   153  ASP153      0.3668
     15  OD1       76.3340   66.5770  143.7250 O.co2 153  ASP153     -0.2456
     16  OD2       77.7490   65.2040  144.7110 O.co2 153  ASP153     -0.2456
     17  N         75.3220   65.7020  141.0350 N.3   157  ALA157     -0.1231
     18  CA        75.1700   64.2490  141.1680 C.3   157  ALA157      0.1694
     19  C         74.0710   63.6880  140.2660 C.2   157  ALA157      0.2592
     20  O         74.2650   62.6330  139.6760 O.2   157  ALA157     -0.2718
     21  CB        74.8930   63.8700  142.6140 C.3   157  ALA157      0.0304
     22  N         72.9290   64.3710  140.1530 N.am  158  PHE158     -0.1976
     23  CA        71.8140   63.8280  139.3600 C.3   158  PHE158      0.1639
     24  C         72.0450   63.9990  137.8740 C.2   158  PHE158      0.2290
     25  O         71.2340   63.5640  137.0560 O.2   158  PHE158     -0.2864
     26  CB        70.4680   64.4360  139.7520 C.3   158  PHE158      0.0560
     27  CG        69.9240   63.8980  141.0360 C.ar  158  PHE158     -0.0200
     28  CD1       70.0270   62.5400  141.3150 C.ar  158  PHE158     -0.0042
     29  CD2       69.2900   64.7230  141.9470 C.ar  158  PHE158     -0.0042
     30  CE1       69.5240   62.0190  142.4840 C.ar  158  PHE158     -0.0003
     31  CE2       68.7810   64.2090  143.1250 C.ar  158  PHE158     -0.0003
     32  CZ        68.9010   62.8540  143.3970 C.ar  158  PHE158     -0.0000
     33  N         64.9430   56.0910  142.7430 N.3   242  SER242     -0.1202
     34  CA        66.2960   56.5040  143.0830 C.3   242  SER242      0.2020
     35  C         66.4930   56.4890  144.5900 C.2   242  SER242      0.2618
     36  O         65.8960   57.2960  145.3030 O.2   242  SER242     -0.2717
     37  CB        66.5970   57.8970  142.5270 C.3   242  SER242      0.2103
     38  OG        67.9140   58.2940  142.8700 O.3   242  SER242     -0.2182
     39  N         67.3130   55.5540  145.0620 N.am  243  PHE243     -0.1975
     40  CA        67.5520   55.3860  146.4970 C.3   243  PHE243      0.1639
     41  C         66.2650   55.2890  147.3010 C.2   243  PHE243      0.2290
     42  O         66.0990   55.9620  148.3240 O.2   243  PHE243     -0.2864
     43  CB        68.4410   56.5210  147.0110 C.3   243  PHE243      0.0560
     44  CG        69.8480   56.4570  146.4820 C.ar  243  PHE243     -0.0200
     45  CD1       70.7740   55.5960  147.0630 C.ar  243  PHE243     -0.0042
     46  CD2       70.2280   57.1940  145.3720 C.ar  243  PHE243     -0.0042
     47  CE1       72.0640   55.5120  146.5770 C.ar  243  PHE243     -0.0003
     48  CE2       71.5160   57.1060  144.8720 C.ar  243  PHE243     -0.0003
     49  CZ        72.4330   56.2670  145.4750 C.ar  243  PHE243     -0.0000
     50  N         66.3260   50.4650  148.8210 N.3   246  LEU246     -0.1245
     51  CA        67.2080   50.1230  149.9510 C.3   246  LEU246      0.1561
     52  C         66.5930   50.4600  151.3140 C.2   246  LEU246      0.2260
     53  O         67.1000   50.0220  152.3590 O.2   246  LEU246     -0.2867
     54  CB        68.5660   50.8230  149.8260 C.3   246  LEU246      0.0270
     55  CG        68.6740   52.2950  150.2460 C.3   246  LEU246      0.0019
     56  CD1       70.1410   52.7380  150.2820 C.3   246  LEU246      0.0001
     57  CD2       67.8770   53.2060  149.3320 C.3   246  LEU246      0.0001
     58  N         68.1180   53.5940  140.6970 N.3   273  HIS273     -0.1241
     59  CA        69.3610   54.3030  140.9460 C.3   273  HIS273      0.1621
     60  C         69.8260   53.9670  142.3570 C.2   273  HIS273      0.2264
     61  O         69.2290   54.4260  143.3320 O.2   273  HIS273     -0.2867
     62  CB        69.1560   55.8140  140.7760 C.3   273  HIS273      0.0745
     63  CG        70.3990   56.6270  140.9680 C.ar  273  HIS273      0.0817
     64  ND1       70.3880   57.8600  141.5860 N.ar  273  HIS273     -0.2268
     65  CD2       71.6830   56.3990  140.6020 C.ar  273  HIS273      0.1154
     66  CE1       71.6170   58.3450  141.6160 C.ar  273  HIS273      0.1986
     67  NE2       72.4210   57.4810  141.0220 N.ar  273  HIS273     -0.2212
     68  N         76.2730   52.6770  154.5730 N.3   290  LEU290     -0.1245
     69  CA        74.9180   52.8780  154.0830 C.3   290  LEU290      0.1561
     70  C         74.0660   51.6550  154.4040 C.2   290  LEU290      0.2260
     71  O         72.9280   51.7770  154.8450 O.2   290  LEU290     -0.2867
     72  CB        74.9360   53.1440  152.5740 C.3   290  LEU290      0.0270
     73  CG        73.5860   53.4120  151.9130 C.3   290  LEU290      0.0019
     74  CD1       72.8160   54.4710  152.6960 C.3   290  LEU290      0.0001
     75  CD2       73.8350   53.8770  150.4900 C.3   290  LEU290      0.0001
     76  N         70.7760   51.4090  156.8380 N.3   294  MET294     -0.1245
     77  CA        69.4750   50.9130  156.4050 C.3   294  MET294      0.1570
     78  C         68.9500   49.8630  157.3780 C.2   294  MET294      0.2261
     79  O         67.7550   49.8350  157.6730 O.2   294  MET294     -0.2867
     80  CB        69.5390   50.3530  154.9740 C.3   294  MET294      0.0387
     81  CG        69.7400   51.4320  153.9200 C.3   294  MET294      0.0595
     82  SD        68.4980   52.7590  153.9700 S.3   294  MET294     -0.1393
     83  CE        69.3700   54.0240  154.8950 C.3   294  MET294      0.0692
     84  N         82.4580   57.1450  144.4780 N.3   332  TYR332     -0.1241
     85  CA        81.3450   56.4800  145.1360 C.3   332  TYR332      0.1605
     86  C         80.5390   55.7950  144.0460 C.2   332  TYR332      0.2264
     87  O         79.7650   56.4430  143.3430 O.2   332  TYR332     -0.2867
     88  CB        80.4900   57.4880  145.9130 C.3   332  TYR332      0.0534
     89  CG        79.5210   56.8680  146.8960 C.ar  332  TYR332     -0.0201
     90  CD1       79.8300   56.7870  148.2510 C.ar  332  TYR332     -0.0009
     91  CD2       78.2930   56.3670  146.4720 C.ar  332  TYR332     -0.0009
     92  CE1       78.9440   56.2230  149.1540 C.ar  332  TYR332      0.0417
     93  CE2       77.4030   55.8000  147.3650 C.ar  332  TYR332      0.0417
     94  CZ        77.7330   55.7310  148.7040 C.ar  332  TYR332      0.1957
     95  OH        76.8490   55.1670  149.5910 O.3   332  TYR332     -0.2866
     96  N         78.0300   54.1030  141.7650 N.3   334  LEU334     -0.1245
     97  CA        76.5890   53.9600  141.6640 C.3   334  LEU334      0.1561
     98  C         76.2210   53.4300  140.2910 C.2   334  LEU334      0.2260
     99  O         76.9730   53.5790  139.3280 O.2   334  LEU334     -0.2867
    100  CB        75.8880   55.2960  141.9240 C.3   334  LEU334      0.0270
    101  CG        75.9730   55.7950  143.3690 C.3   334  LEU334      0.0019
    102  CD1       75.3900   57.1980  143.5010 C.3   334  LEU334      0.0001
    103  CD2       75.3050   54.8300  144.3300 C.3   334  LEU334      0.0001
@<TRIPOS>BOND
     1    25    24    2
     2    24    23    1
     3    99    98    2
     4    23    26    1
     5    23    22    1
     6    20    19    2
     7    26    27    1
     8    22    19   am
     9    19    18    1
    10    98    97    1
    11    65    63   ar
    12    65    67   ar
    13    58    59    1
    14    62    59    1
    15    62    63    1
    16    59    60    1
    17    63    64   ar
    18    67    66   ar
    19    17    18    1
    20    27    28   ar
    21    27    29   ar
    22    18    21    1
    23    28    30   ar
    24    64    66   ar
    25    97    96    1
    26    97   100    1
    27   100   101    1
    28    29    31   ar
    29    60    61    2
    30    30    32   ar
    31    37    38    1
    32    37    34    1
    33    33    34    1
    34    34    35    1
    35    31    32   ar
    36    87    86    2
    37   101   102    1
    38   101   103    1
    39    15    14   ar
    40    86    85    1
    41    12    11    2
    42    84    85    1
    43    35    39   am
    44    35    36    2
    45    14    16   ar
    46    14    13    1
    47    48    46   ar
    48    48    49   ar
    49    39    40    1
    50    85    88    1
    51    11    10    1
    52    46    44   ar
    53    49    47   ar
    54    13    10    1
    55    88    89    1
    56    10     9    1
    57    91    89   ar
    58    91    93   ar
    59    44    43    1
    60    44    45   ar
    61    40    43    1
    62    40    41    1
    63    47    45   ar
    64    89    90   ar
    65    41    42    2
    66    93    94   ar
    67    90    92   ar
    68     4     3    2
    69    94    92   ar
    70    94    95    1
    71    50    51    1
    72    57    55    1
    73     3     2    1
    74    54    51    1
    75    54    55    1
    76    51    52    1
    77    55    56    1
    78    75    73    1
    79     5     2    1
    80     5     6    1
    81     2     1    1
    82     8     6    1
    83    52    53    2
    84     6     7    1
    85    73    72    1
    86    73    74    1
    87    72    69    1
    88    81    82    1
    89    81    80    1
    90    82    83    1
    91    69    70    1
    92    69    68    1
    93    70    71    2
    94    80    77    1
    95    77    76    1
    96    77    78    1
    97    78    79    2
