@<TRIPOS>MOLECULE
tmp/5eeiA00.pdb
 140 136 0 0 0
SMALL
GASTEIGER

@<TRIPOS>ATOM
      1  N         20.5970    0.5970    1.0230 N.3    19  ASP19      -0.1239
      2  CA        19.7420    1.2210    2.0270 C.3    19  ASP19       0.1674
      3  C         19.6260    0.2930    3.2340 C.2    19  ASP19       0.2266
      4  O         18.7450   -0.5510    3.2920 O.2    19  ASP19      -0.2867
      5  CB        18.3620    1.5020    1.4310 C.3    19  ASP19       0.1410
      6  CG        17.3820    2.0580    2.4420 C.2    19  ASP19       0.3668
      7  OD1       17.8100    2.4790    3.5480 O.co2  19  ASP19      -0.2456
      8  OD2       16.1660    2.0620    2.1170 O.co2  19  ASP19      -0.2456
      9  N         16.2380   -0.1820    4.9820 N.3    22  HIS22      -0.1227
     10  CA        15.0930   -0.7540    4.2950 C.3    22  HIS22       0.1737
     11  C         14.3360   -1.6910    5.2470 C.2    22  HIS22       0.2438
     12  O         14.9530   -2.4780    5.9580 O.2    22  HIS22      -0.2733
     13  CB        15.5710   -1.5150    3.0540 C.3    22  HIS22       0.0758
     14  CG        14.4640   -2.0430    2.2050 C.ar   22  HIS22       0.0818
     15  ND1       13.6680   -3.1010    2.5840 N.ar   22  HIS22      -0.2268
     16  CD2       14.0100   -1.6450    0.9930 C.ar   22  HIS22       0.1154
     17  CE1       12.7750   -3.3360    1.6390 C.ar   22  HIS22       0.1986
     18  NE2       12.9630   -2.4690    0.6600 N.ar   22  HIS22      -0.2212
     19  N         12.9950   -1.6060    5.2740 N.am   23  PRO23      -0.2729
     20  CA        12.2290   -2.3320    6.3030 C.3    23  PRO23       0.1401
     21  C         12.3180   -3.8590    6.2850 C.2    23  PRO23       0.2269
     22  O         12.0360   -4.4610    7.3260 O.2    23  PRO23      -0.2865
     23  CB        10.7800   -1.8880    6.0430 C.3    23  PRO23       0.0296
     24  CG        10.7610   -1.4550    4.6220 C.3    23  PRO23       0.0237
     25  CD        12.1140   -0.8160    4.3950 C.3    23  PRO23       0.0939
     26  N         10.2350   -3.3350   -6.6200 N.3    90  SER90      -0.1217
     27  CA        10.5000   -3.4030   -5.1900 C.3    90  SER90       0.1889
     28  C         11.3110   -4.6390   -4.7870 C.2    90  SER90       0.2288
     29  O         10.8690   -5.4480   -3.9780 O.2    90  SER90      -0.2866
     30  CB         9.1870   -3.3340   -4.4030 C.3    90  SER90       0.2089
     31  OG         8.5130   -2.0960   -4.6590 O.3    90  SER90      -0.2183
     32  N         10.5560  -13.0700    2.0760 N.3   130  PRO130     -0.2116
     33  CA         9.1850  -13.5560    1.9030 C.3   130  PRO130      0.1372
     34  C          8.9700  -14.0740    0.4820 C.2   130  PRO130      0.2244
     35  O          9.8620  -13.9850   -0.3790 O.2   130  PRO130     -0.2868
     36  CB         8.3290  -12.3160    2.1730 C.3   130  PRO130      0.0268
     37  CG         9.2270  -11.1690    1.8100 C.3   130  PRO130      0.0207
     38  CD        10.6200  -11.6060    2.2190 C.3   130  PRO130      0.0892
     39  N          5.2440  -14.3560   -1.2140 N.3   132  HIS132     -0.1226
     40  CA         3.9330  -14.4320   -1.8940 C.3   132  HIS132      0.1752
     41  C          3.7280  -13.5290   -3.1220 C.2   132  HIS132      0.2596
     42  O          2.7770  -13.7410   -3.8640 O.2   132  HIS132     -0.2718
     43  CB         2.7640  -14.2900   -0.9100 C.3   132  HIS132      0.0759
     44  CG         2.6190  -12.9340   -0.2850 C.ar  132  HIS132      0.0818
     45  ND1        1.4220  -12.5150    0.2600 N.ar  132  HIS132     -0.2268
     46  CD2        3.4920  -11.9170   -0.1120 C.ar  132  HIS132      0.1154
     47  CE1        1.5680  -11.2970    0.7440 C.ar  132  HIS132      0.1986
     48  NE2        2.8090  -10.9070    0.5200 N.ar  132  HIS132     -0.2212
     49  N          4.6130  -12.5610   -3.3550 N.am  133  HIS133     -0.1975
     50  CA         4.5250  -11.7510   -4.5710 C.3   133  HIS133      0.1656
     51  C          5.2910  -12.3770   -5.7340 C.2   133  HIS133      0.2291
     52  O          5.1790  -11.9180   -6.8640 O.2   133  HIS133     -0.2864
     53  CB         5.0600  -10.3350   -4.3640 C.3   133  HIS133      0.0771
     54  CG         4.3050   -9.5500   -3.3400 C.ar  133  HIS133      0.0820
     55  ND1        2.9530   -9.2840   -3.4380 N.ar  133  HIS133     -0.2267
     56  CD2        4.7220   -8.9640   -2.1930 C.ar  133  HIS133      0.1154
     57  CE1        2.5730   -8.5840   -2.3830 C.ar  133  HIS133      0.1986
     58  NE2        3.6280   -8.3670   -1.6190 N.ar  133  HIS133     -0.2212
     59  N          8.3150   -7.3230   -4.9540 N.3   141  GLY141     -0.1210
     60  CA         7.8230   -7.0370   -3.6140 C.3   141  GLY141      0.1956
     61  C          8.5610   -7.7640   -2.5000 C.2   141  GLY141      0.2612
     62  O          7.9460   -8.3220   -1.6020 O.2   141  GLY141     -0.2717
     63  N          9.8800   -7.7260   -2.5840 N.am  142  PHE142     -0.1962
     64  CA        10.7880   -8.2970   -1.5990 C.3   142  PHE142      0.1771
     65  C         10.8790   -9.8230   -1.7060 C.2   142  PHE142      0.2619
     66  O         11.5570  -10.4390   -0.8890 O.2   142  PHE142     -0.2715
     67  CB        10.4310   -7.9350   -0.1370 C.3   142  PHE142      0.0574
     68  CG        10.1580   -6.4670    0.1500 C.ar  142  PHE142     -0.0200
     69  CD1       10.5180   -5.4540   -0.7120 C.ar  142  PHE142     -0.0042
     70  CD2        9.5230   -6.1300    1.3350 C.ar  142  PHE142     -0.0042
     71  CE1       10.2350   -4.1230   -0.3980 C.ar  142  PHE142     -0.0003
     72  CE2        9.2400   -4.8110    1.6530 C.ar  142  PHE142     -0.0003
     73  CZ         9.5890   -3.8140    0.7720 C.ar  142  PHE142     -0.0000
     74  N         10.1970  -10.4130   -2.6960 N.am  143  CYS143     -0.1968
     75  CA        10.0840  -11.8720   -2.8330 C.3   143  CYS143      0.1712
     76  C         10.7570  -12.3910   -4.0980 C.2   143  CYS143      0.2296
     77  O         10.5650  -11.8240   -5.1480 O.2   143  CYS143     -0.2864
     78  CB         8.5980  -12.2580   -2.9270 C.3   143  CYS143      0.0983
     79  SG         7.5370  -11.7050   -1.6150 S.3   143  CYS143     -0.0798
     80  N         -1.1810  -11.7470    5.4930 N.3   171  ASP171     -0.1239
     81  CA        -0.3480  -10.5830    5.2040 C.3   171  ASP171      0.1674
     82  C         -1.2600   -9.4630    4.6490 C.2   171  ASP171      0.2266
     83  O         -2.2350   -9.7420    3.9600 O.2   171  ASP171     -0.2867
     84  CB         0.7390  -11.0110    4.2100 C.3   171  ASP171      0.1410
     85  CG         1.7750   -9.9250    3.9500 C.2   171  ASP171      0.3668
     86  OD1        1.4240   -8.9100    3.3040 O.co2 171  ASP171     -0.2456
     87  OD2        2.9190  -10.0570    4.4020 O.co2 171  ASP171     -0.2456
     88  N         -0.7950   -7.3610    2.3960 N.3   173  HIS173     -0.1241
     89  CA        -0.7130   -7.2420    0.9420 C.3   173  HIS173      0.1621
     90  C         -1.2820   -8.4970    0.2510 C.2   173  HIS173      0.2264
     91  O         -1.1790   -9.6090    0.7520 O.2   173  HIS173     -0.2867
     92  CB         0.7450   -7.0710    0.4820 C.3   173  HIS173      0.0745
     93  CG         1.4450   -5.9020    1.0870 C.ar  173  HIS173      0.0817
     94  ND1        2.1900   -5.9830    2.2470 N.ar  173  HIS173     -0.2268
     95  CD2        1.4440   -4.6000    0.7140 C.ar  173  HIS173      0.1154
     96  CE1        2.6570   -4.7700    2.5260 C.ar  173  HIS173      0.1986
     97  NE2        2.2090   -3.9200    1.6150 N.ar  173  HIS173     -0.2212
     98  N         -0.1660   -1.3990   -2.5930 N.3   202  PHE202     -0.1241
     99  CA         0.6930   -2.3890   -3.2540 C.3   202  PHE202      0.1605
    100  C          0.0680   -3.7830   -3.1320 C.2   202  PHE202      0.2264
    101  O         -0.3800   -4.1310   -2.0450 O.2   202  PHE202     -0.2867
    102  CB         2.0920   -2.3780   -2.6350 C.3   202  PHE202      0.0534
    103  CG         3.0710   -3.2560   -3.3510 C.ar  202  PHE202     -0.0203
    104  CD1        3.2090   -4.5900   -3.0040 C.ar  202  PHE202     -0.0042
    105  CD2        3.8430   -2.7610   -4.3900 C.ar  202  PHE202     -0.0042
    106  CE1        4.1070   -5.4030   -3.6770 C.ar  202  PHE202     -0.0003
    107  CE2        4.7360   -3.5710   -5.0600 C.ar  202  PHE202     -0.0003
    108  CZ         4.8670   -4.9010   -4.6940 C.ar  202  PHE202     -0.0000
    109  N          2.1210   -7.6840    8.9370 N.3   264  ASP264     -0.1239
    110  CA         2.0500   -6.2820    8.5650 C.3   264  ASP264      0.1674
    111  C          0.6540   -5.6700    8.6480 C.2   264  ASP264      0.2266
    112  O          0.5190   -4.4800    8.4070 O.2   264  ASP264     -0.2867
    113  CB         2.7500   -5.9820    7.2330 C.3   264  ASP264      0.1410
    114  CG         2.4650   -6.9790    6.1500 C.2   264  ASP264      0.3668
    115  OD1        1.5620   -7.8380    6.3010 O.co2 264  ASP264     -0.2456
    116  OD2        3.1520   -6.8560    5.1080 O.co2 264  ASP264     -0.2456
    117  N          4.0670   -0.1670    7.1650 N.3   271  LEU271     -0.1245
    118  CA         3.5780   -0.3650    5.7950 C.3   271  LEU271      0.1561
    119  C          2.0870   -0.6580    5.7490 C.2   271  LEU271      0.2260
    120  O          1.4120   -0.2520    4.8200 O.2   271  LEU271     -0.2867
    121  CB         4.3500   -1.4650    5.0650 C.3   271  LEU271      0.0270
    122  CG         5.6820   -1.0440    4.4360 C.3   271  LEU271      0.0019
    123  CD1        6.7140   -0.6130    5.4700 C.3   271  LEU271      0.0001
    124  CD2        6.2070   -2.1700    3.5670 C.3   271  LEU271      0.0001
    125  N          5.5080  -10.8870    5.2370 N.3   302  GLY302     -0.1225
    126  CA         5.8870   -9.5480    5.6620 C.3   302  GLY302      0.1811
    127  C          5.6350   -9.2500    7.1290 C.2   302  GLY302      0.2280
    128  O          5.4400  -10.1530    7.9350 O.2   302  GLY302     -0.2866
    129  N          6.8560   -5.4990    9.5990 N.3   304  TYR304     -0.1241
    130  CA         8.0240   -4.6190    9.6320 C.3   304  TYR304      0.1605
    131  C          8.2560   -3.8790   10.9440 C.2   304  TYR304      0.2264
    132  O          9.2850   -3.2440   11.0980 O.2   304  TYR304     -0.2867
    133  CB         7.9590   -3.6420    8.4320 C.3   304  TYR304      0.0534
    134  CG         7.8060   -4.4370    7.1680 C.ar  304  TYR304     -0.0201
    135  CD1        8.8850   -5.1460    6.6550 C.ar  304  TYR304     -0.0009
    136  CD2        6.5640   -4.6290    6.5830 C.ar  304  TYR304     -0.0009
    137  CE1        8.7470   -5.9560    5.5460 C.ar  304  TYR304      0.0417
    138  CE2        6.4240   -5.4280    5.4730 C.ar  304  TYR304      0.0417
    139  CZ         7.5190   -6.1030    4.9660 C.ar  304  TYR304      0.1957
    140  OH         7.4190   -6.9280    3.8700 O.3   304  TYR304     -0.2866
@<TRIPOS>BOND
     1    52    51    2
     2    26    27    1
     3    51    50    1
     4    27    28    1
     5    27    30    1
     6    77    76    2
     7   107   108   ar
     8   107   105   ar
     9    59    60    1
    10    28    29    2
    11   108   106   ar
    12    31    30    1
    13    50    53    1
    14    50    49    1
    15   105   103   ar
    16    53    54    1
    17    76    75    1
    18    42    41    2
    19   106   104   ar
    20    60    61    1
    21    55    54   ar
    22    55    57   ar
    23    49    41   am
    24   103   104   ar
    25   103   102    1
    26    54    56   ar
    27    99   100    1
    28    99   102    1
    29    99    98    1
    30   100   101    2
    31    41    40    1
    32    78    75    1
    33    78    79    1
    34    75    74    1
    35    74    65   am
    36    63    61   am
    37    63    64    1
    38    61    62    2
    39    57    58   ar
    40    56    58   ar
    41    40    39    1
    42    40    43    1
    43    65    64    1
    44    65    66    2
    45    64    67    1
    46    43    44    1
    47    69    71   ar
    48    69    68   ar
    49    71    73   ar
    50    35    34    2
    51    44    46   ar
    52    44    45   ar
    53    67    68    1
    54    46    48   ar
    55    68    70   ar
    56    90    91    2
    57    90    89    1
    58    45    47   ar
    59    34    33    1
    60    92    89    1
    61    92    93    1
    62    48    47   ar
    63    18    16   ar
    64    18    17   ar
    65    95    93   ar
    66    95    97   ar
    67    73    72   ar
    68    89    88    1
    69    16    14   ar
    70     1     2    1
    71    93    94   ar
    72    70    72   ar
    73     5     2    1
    74     5     6    1
    75    97    96   ar
    76    17    15   ar
    77    37    36    1
    78    37    38    1
    79    33    32    1
    80    33    36    1
    81     2     3    1
    82    32    38    1
    83     8     6   ar
    84    14    15   ar
    85    14    13    1
    86    94    96   ar
    87     6     7   ar
    88    13    10    1
    89     3     4    2
    90    86    85   ar
    91   124   122    1
    92   140   139    1
    93    85    84    1
    94    85    87   ar
    95    83    82    2
    96    84    81    1
    97    10     9    1
    98    10    11    1
    99    25    24    1
   100    25    19    1
   101   122   121    1
   102   122   123    1
   103    24    23    1
   104    82    81    1
   105   120   119    2
   106   139   138   ar
   107   139   137   ar
   108   121   118    1
   109   116   114   ar
   110    81    80    1
   111   125   126    1
   112    11    19   am
   113    11    12    2
   114    19    20    1
   115   138   136   ar
   116   137   135   ar
   117   126   127    1
   118   119   118    1
   119   118   117    1
   120    23    20    1
   121   114   115   ar
   122   114   113    1
   123    21    20    1
   124    21    22    2
   125   136   134   ar
   126   135   134   ar
   127   127   128    2
   128   134   133    1
   129   113   110    1
   130   112   111    2
   131   133   130    1
   132   110   111    1
   133   110   109    1
   134   129   130    1
   135   130   131    1
   136   131   132    2
