@<TRIPOS>MOLECULE
tmp/5eelC00.pdb
 96 91 0 0 0
SMALL
GASTEIGER

@<TRIPOS>ATOM
      1  N         13.7780   25.4840   75.1950 N.3     7  HIS7       -0.1241
      2  CA        14.3900   24.4760   74.3450 C.3     7  HIS7        0.1621
      3  C         14.6960   24.9530   72.9350 C.2     7  HIS7        0.2264
      4  O         14.9010   24.1240   72.0480 O.2     7  HIS7       -0.2867
      5  CB        13.4880   23.2420   74.2630 C.3     7  HIS7        0.0745
      6  CG        13.4690   22.4200   75.5120 C.ar    7  HIS7        0.0817
      7  ND1       13.7540   21.0700   75.5190 N.ar    7  HIS7       -0.2268
      8  CD2       13.2070   22.7520   76.7970 C.ar    7  HIS7        0.1154
      9  CE1       13.6590   20.6050   76.7520 C.ar    7  HIS7        0.1986
     10  NE2       13.3280   21.6050   77.5480 N.ar    7  HIS7       -0.2212
     11  N         14.5690   25.9680   69.1560 N.3     9  ARG9       -0.1231
     12  CA        13.7210   25.4550   68.0800 C.3     9  ARG9        0.1694
     13  C         13.6440   23.9290   68.0890 C.2     9  ARG9        0.2592
     14  O         14.4940   23.2460   67.5230 O.2     9  ARG9       -0.2718
     15  CB        14.2240   25.9390   66.7130 C.3     9  ARG9        0.0321
     16  CG        13.6100   25.1780   65.5150 C.3     9  ARG9        0.0489
     17  CD        12.1470   25.4960   65.3610 C.3     9  ARG9        0.2205
     18  NE        11.9670   26.9430   65.3300 N.pl3   9  ARG9       -0.0865
     19  CZ        12.0580   27.6940   64.2330 C.cat   9  ARG9        0.5346
     20  NH1       12.3320   27.1270   63.0560 N.pl3   9  ARG9        0.1354
     21  NH2       11.8610   29.0120   64.3140 N.pl3   9  ARG9        0.1354
     22  N         12.6230   23.4000   68.7520 N.am   10  ILE10      -0.1966
     23  CA        12.2610   21.9990   68.5950 C.3    10  ILE10       0.1727
     24  C         10.8080   21.9400   68.1450 C.2    10  ILE10       0.2616
     25  O         10.0610   22.9070   68.3160 O.2    10  ILE10      -0.2715
     26  CB        12.4460   21.1820   69.8950 C.3    10  ILE10       0.0290
     27  CG1       11.7070   21.8410   71.0620 C.3    10  ILE10       0.0022
     28  CG2       13.9280   20.9990   70.2170 C.3    10  ILE10       0.0023
     29  CD1       11.5070   20.9040   72.2590 C.3    10  ILE10       0.0001
     30  N         10.4130   20.8080   67.5720 N.am   11  SER11      -0.1950
     31  CA         9.0650   20.6390   67.0210 C.3    11  SER11       0.1924
     32  C          8.0250   20.2380   68.0640 C.2    11  SER11       0.2314
     33  O          8.3680   19.8050   69.1710 O.2    11  SER11      -0.2863
     34  CB         9.0800   19.5790   65.9300 C.3    11  SER11       0.2116
     35  OG         9.2860   18.3150   66.5270 O.3    11  SER11      -0.2180
     36  N          8.7250   16.7350   68.8940 N.3    14  GLU14      -0.1245
     37  CA         9.8520   16.5110   69.7770 C.3    14  GLU14       0.1567
     38  C          9.5400   16.9500   71.2070 C.2    14  GLU14       0.2260
     39  O         10.0120   16.3240   72.1550 O.2    14  GLU14      -0.2867
     40  CB        11.1030   17.2140   69.2440 C.3    14  GLU14       0.0388
     41  CG        12.3590   16.9830   70.0780 C.3    14  GLU14       0.1160
     42  CD        12.8540   15.5430   70.0640 C.2    14  GLU14       0.3649
     43  OE1       12.1700   14.6570   69.5010 O.co2  14  GLU14      -0.2457
     44  OE2       13.9510   15.2940   70.6140 O.co2  14  GLU14      -0.2457
     45  N          7.7620   14.0030   72.5970 N.3    17  ARG17      -0.1231
     46  CA         8.6260   12.8520   72.8360 C.3    17  ARG17       0.1694
     47  C          9.4540   13.0730   74.1120 C.2    17  ARG17       0.2591
     48  O          9.5610   12.1780   74.9450 O.2    17  ARG17      -0.2718
     49  CB         9.5350   12.5830   71.6130 C.3    17  ARG17       0.0321
     50  CG        10.2670   11.2290   71.6150 C.3    17  ARG17       0.0489
     51  CD        11.3530   11.1350   70.5220 C.3    17  ARG17       0.2205
     52  NE        12.4600   12.0740   70.7420 N.pl3  17  ARG17      -0.0865
     53  CZ        13.5600   11.7960   71.4390 C.cat  17  ARG17       0.5346
     54  NH1       13.7200   10.5880   71.9700 N.pl3  17  ARG17       0.1354
     55  NH2       14.5080   12.7190   71.6000 N.pl3  17  ARG17       0.1354
     56  N         10.0060   14.2710   74.2840 N.am   18  LEU18      -0.1980
     57  CA        10.8720   14.5450   75.4340 C.3    18  LEU18       0.1596
     58  C         10.0880   14.5520   76.7370 C.2    18  LEU18       0.2287
     59  O         10.5790   14.0930   77.7610 O.2    18  LEU18      -0.2864
     60  CB        11.6100   15.8820   75.2690 C.3    18  LEU18       0.0297
     61  CG        12.6540   15.9840   74.1490 C.3    18  LEU18       0.0022
     62  CD1       13.1680   17.4190   74.0510 C.3    18  LEU18       0.0001
     63  CD2       13.8000   15.0290   74.3760 C.3    18  LEU18       0.0001
     64  N         13.7820   19.4710   81.3190 N.3   102  THR102     -0.1203
     65  CA        15.1170   20.0330   81.1790 C.3   102  THR102      0.1994
     66  C         15.6550   19.8870   79.7660 C.2   102  THR102      0.2618
     67  O         15.6240   18.8110   79.1860 O.2   102  THR102     -0.2717
     68  CB        16.1080   19.3780   82.1650 C.3   102  THR102      0.1784
     69  OG1       15.5970   19.4840   83.5000 O.3   102  THR102     -0.2211
     70  CG2       17.4600   20.0730   82.1010 C.3   102  THR102      0.0376
     71  N         16.1480   20.9890   79.2200 N.am  103  ARG103     -0.1965
     72  CA        16.8220   20.9480   77.9390 C.3   103  ARG103      0.1729
     73  C         18.1460   20.2080   78.0690 C.2   103  ARG103      0.2616
     74  O         18.7100   20.1110   79.1550 O.2   103  ARG103     -0.2715
     75  CB        17.0480   22.3550   77.3890 C.3   103  ARG103      0.0348
     76  CG        18.0700   23.1980   78.1370 C.3   103  ARG103      0.0492
     77  CD        18.2600   24.4990   77.3890 C.3   103  ARG103      0.2205
     78  NE        19.0370   25.4860   78.1230 N.pl3 103  ARG103     -0.0865
     79  CZ        18.8900   26.8000   77.9760 C.cat 103  ARG103      0.5346
     80  NH1       17.9750   27.2870   77.1470 N.pl3 103  ARG103      0.1354
     81  NH2       19.6420   27.6320   78.6790 N.pl3 103  ARG103      0.1354
     82  N         18.6260   19.6760   76.9540 N.am  104  VAL104     -0.1977
     83  CA        19.8510   18.8890   76.9430 C.3   104  VAL104      0.1596
     84  C         21.0410   19.7590   77.3400 C.2   104  VAL104      0.2287
     85  O         21.0910   20.9480   77.0090 O.2   104  VAL104     -0.2864
     86  CB        20.0840   18.2520   75.5480 C.3   104  VAL104      0.0276
     87  CG1       21.4840   17.6790   75.4240 C.3   104  VAL104      0.0022
     88  CG2       19.0350   17.1820   75.2850 C.3   104  VAL104      0.0022
     89  N         24.3670   21.1170   76.7420 N.3   106  LEU106     -0.1245
     90  CA        25.3040   21.3400   75.6430 C.3   106  LEU106      0.1561
     91  C         26.7520   21.2330   76.1240 C.2   106  LEU106      0.2260
     92  O         27.3420   20.1480   76.1230 O.2   106  LEU106     -0.2867
     93  CB        25.0600   22.7110   74.9970 C.3   106  LEU106      0.0270
     94  CG        23.7760   22.8590   74.1810 C.3   106  LEU106      0.0019
     95  CD1       23.6410   24.3010   73.7520 C.3   106  LEU106      0.0001
     96  CD2       23.7790   21.9780   72.9580 C.3   106  LEU106      0.0001
@<TRIPOS>BOND
     1    20    19    1
     2    19    21    1
     3    19    18    2
     4    18    17    1
     5    17    16    1
     6    16    15    1
     7    34    35    1
     8    34    31    1
     9    15    12    1
    10    31    30    1
    11    31    32    1
    12    14    13    2
    13    30    24   am
    14    32    33    2
    15    12    13    1
    16    12    11    1
    17    13    22   am
    18    24    25    2
    19    24    23    1
    20    23    22    1
    21    23    26    1
    22    36    37    1
    23    40    37    1
    24    40    41    1
    25    43    42   ar
    26    37    38    1
    27    26    28    1
    28    26    27    1
    29    42    41    1
    30    42    44   ar
    31    51    52    1
    32    51    50    1
    33    52    53    2
    34    27    29    1
    35    38    39    2
    36    53    55    1
    37    53    54    1
    38    49    50    1
    39    49    46    1
    40     4     3    2
    41    45    46    1
    42    46    47    1
    43     3     2    1
    44    96    94    1
    45    95    94    1
    46    62    61    1
    47    47    56   am
    48    47    48    2
    49    61    63    1
    50    61    60    1
    51    94    93    1
    52     5     2    1
    53     5     6    1
    54    56    57    1
    55     2     1    1
    56    93    90    1
    57    60    57    1
    58    88    86    1
    59    87    86    1
    60    57    58    1
    61     6     7   ar
    62     6     8   ar
    63     7     9   ar
    64    86    83    1
    65    90    91    1
    66    90    89    1
    67    92    91    2
    68    58    59    2
    69     9    10   ar
    70     8    10   ar
    71    83    82    1
    72    83    84    1
    73    82    73   am
    74    85    84    2
    75    80    79    1
    76    77    78    1
    77    77    76    1
    78    75    72    1
    79    75    76    1
    80    72    73    1
    81    72    71    1
    82    79    78    2
    83    79    81    1
    84    73    74    2
    85    67    66    2
    86    71    66   am
    87    66    65    1
    88    65    64    1
    89    65    68    1
    90    70    68    1
    91    68    69    1
