@<TRIPOS>MOLECULE
tmp/5eelA01.pdb
 94 90 0 0 0
SMALL
GASTEIGER

@<TRIPOS>ATOM
      1  N          6.8360   54.3970  106.1040 N.3    11  ILE11      -0.1231
      2  CA         6.1890   55.7070  106.1500 C.3    11  ILE11       0.1692
      3  C          4.6840   55.5300  106.3260 C.2    11  ILE11       0.2593
      4  O          4.1480   54.4490  106.0770 O.2    11  ILE11      -0.2718
      5  CB         6.4450   56.5420  104.8680 C.3    11  ILE11       0.0266
      6  CG1        5.6410   55.9750  103.6850 C.3    11  ILE11       0.0019
      7  CG2        7.9430   56.6300  104.5750 C.3    11  ILE11       0.0020
      8  CD1        5.5580   56.9050  102.4840 C.3    11  ILE11       0.0001
      9  N          4.0050   56.6000  106.7360 N.am   12  SER12      -0.1938
     10  CA         2.5730   56.5550  107.0310 C.3    12  SER12       0.2055
     11  C          1.6740   56.7100  105.8040 C.2    12  SER12       0.2642
     12  O          2.1270   57.0950  104.7210 O.2    12  SER12      -0.2714
     13  CB         2.2170   57.6520  108.0270 C.3    12  SER12       0.2130
     14  OG         2.3520   58.9290  107.4210 O.3    12  SER12      -0.2179
     15  N          0.3900   56.4290  105.9960 N.am   13  ARG13      -0.1977
     16  CA        -0.6100   56.7140  104.9800 C.3    13  ARG13       0.1597
     17  C         -0.6860   58.2210  104.6950 C.2    13  ARG13       0.2287
     18  O         -0.7530   58.6380  103.5330 O.2    13  ARG13      -0.2864
     19  CB        -1.9840   56.1860  105.4040 C.3    13  ARG13       0.0334
     20  CG        -3.0890   56.4740  104.3910 C.3    13  ARG13       0.0492
     21  CD        -4.4330   55.8850  104.8040 C.3    13  ARG13       0.2205
     22  NE        -4.4230   54.4300  104.7710 N.pl3  13  ARG13      -0.0865
     23  CZ        -5.4600   53.6790  104.4160 C.cat  13  ARG13       0.5346
     24  NH1       -6.6140   54.2360  104.0670 N.pl3  13  ARG13       0.1354
     25  NH2       -5.3430   52.3590  104.4170 N.pl3  13  ARG13       0.1354
     26  N          4.7140   50.6580  100.5980 N.3    33  ARG33      -0.1231
     27  CA         5.2590   50.9160  101.9150 C.3    33  ARG33       0.1694
     28  C          4.8960   49.7710  102.8380 C.2    33  ARG33       0.2592
     29  O          4.0320   48.9500  102.5090 O.2    33  ARG33      -0.2718
     30  CB         4.7290   52.2400  102.4750 C.3    33  ARG33       0.0321
     31  CG         3.2160   52.3010  102.5920 C.3    33  ARG33       0.0489
     32  CD         2.7600   53.5480  103.3490 C.3    33  ARG33       0.2205
     33  NE         1.3630   53.4650  103.7690 N.pl3  33  ARG33      -0.0865
     34  CZ         0.3530   53.7010  102.9460 C.cat  33  ARG33       0.5346
     35  NH1        0.6100   54.0210  101.6830 N.pl3  33  ARG33       0.1354
     36  NH2       -0.8970   53.6180  103.3720 N.pl3  33  ARG33       0.1354
     37  N          5.5460   49.7220  103.9970 N.am   34  GLU34      -0.1966
     38  CA         5.2060   48.7210  105.0000 C.3    34  GLU34       0.1733
     39  C          3.8350   49.0220  105.6030 C.2    34  GLU34       0.2617
     40  O          3.3980   50.1730  105.6270 O.2    34  GLU34      -0.2715
     41  CB         6.2760   48.6620  106.0920 C.3    34  GLU34       0.0429
     42  CG         7.6230   48.1530  105.6010 C.3    34  GLU34       0.1163
     43  CD         8.7370   48.3510  106.6170 C.2    34  GLU34       0.3649
     44  OE1        8.4650   48.2830  107.8370 O.co2  34  GLU34      -0.2457
     45  OE2        9.8860   48.5970  106.1870 O.co2  34  GLU34      -0.2457
     46  N          3.1490   47.9830  106.0600 N.am   35  SER35      -0.1936
     47  CA         1.9120   48.1630  106.8060 C.3    35  SER35       0.2055
     48  C          2.1720   48.0460  108.2970 C.2    35  SER35       0.2643
     49  O          2.7720   47.0720  108.7500 O.2    35  SER35      -0.2714
     50  CB         0.8570   47.1330  106.3910 C.3    35  SER35       0.2130
     51  OG        -0.2290   47.1580  107.3070 O.3    35  SER35      -0.2179
     52  N          1.7190   49.0330  109.0610 N.am   36  GLN36      -0.1963
     53  CA         1.8120   48.9650  110.5150 C.3    36  GLN36       0.1733
     54  C          0.7100   48.0650  111.0480 C.2    36  GLN36       0.2616
     55  O          0.9250   47.2740  111.9580 O.2    36  GLN36      -0.2715
     56  CB         1.7110   50.3580  111.1450 C.3    36  GLN36       0.0408
     57  CG         2.8580   51.2870  110.7910 C.3    36  GLN36       0.0908
     58  CD         4.2190   50.6650  111.0620 C.2    36  GLN36       0.2608
     59  OE1        4.4890   50.1840  112.1670 O.2    36  GLN36      -0.2717
     60  NE2        5.0840   50.6690  110.0480 N.am   36  GLN36      -0.0878
     61  N         -0.4680   48.1860  110.4500 N.am   37  ARG37      -0.1963
     62  CA        -1.6550   47.4660  110.8870 C.3    37  ARG37       0.1729
     63  C         -1.5540   45.9690  110.5760 C.2    37  ARG37       0.2616
     64  O         -2.0740   45.1310  111.3130 O.2    37  ARG37      -0.2715
     65  CB        -2.8840   48.0780  110.2150 C.3    37  ARG37       0.0348
     66  CG        -4.2020   47.8350  110.9000 C.3    37  ARG37       0.0492
     67  CD        -5.3140   48.4500  110.0610 C.3    37  ARG37       0.2205
     68  NE        -5.1990   49.9020  110.0060 N.pl3  37  ARG37      -0.0865
     69  CZ        -5.6580   50.6500  109.0110 C.cat  37  ARG37       0.5346
     70  NH1       -6.2470   50.0770  107.9690 N.pl3  37  ARG37       0.1354
     71  NH2       -5.5140   51.9690  109.0500 N.pl3  37  ARG37       0.1354
     72  N         -0.8880   45.6410  109.4750 N.am   38  ASN38      -0.1972
     73  CA        -0.6260   44.2440  109.1230 C.3    38  ASN38       0.1688
     74  C          0.8690   43.9900  109.0060 C.2    38  ASN38       0.2292
     75  O          1.4270   44.0450  107.9140 O.2    38  ASN38      -0.2864
     76  CB        -1.3350   43.8800  107.8280 C.3    38  ASN38       0.1181
     77  CG        -2.8310   44.0100  107.9500 C.2    38  ASN38       0.2629
     78  OD1       -3.5170   43.0630  108.3480 O.2    38  ASN38      -0.2716
     79  ND2       -3.3480   45.1910  107.6310 N.am   38  ASN38      -0.0877
     80  N          1.4250   47.9800  101.7650 N.3    43  VAL43      -0.1245
     81  CA         0.3510   48.7660  101.1910 C.3    43  VAL43       0.1561
     82  C          0.8310   49.3760   99.8920 C.2    43  VAL43       0.2260
     83  O          1.8830   50.0160   99.8580 O.2    43  VAL43      -0.2867
     84  CB        -0.1120   49.8980  102.1320 C.3    43  VAL43       0.0252
     85  CG1       -1.3400   50.5700  101.5700 C.3    43  VAL43       0.0019
     86  CG2       -0.3820   49.3710  103.5520 C.3    43  VAL43       0.0019
     87  N         -4.0700   46.7760  100.3810 N.3    56  LEU56      -0.1245
     88  CA        -3.3640   45.9120  101.3200 C.3    56  LEU56       0.1561
     89  C         -2.7460   44.7100  100.6160 C.2    56  LEU56       0.2260
     90  O         -3.3930   44.0450   99.8000 O.2    56  LEU56      -0.2867
     91  CB        -4.3070   45.4440  102.4390 C.3    56  LEU56       0.0270
     92  CG        -3.6600   44.5190  103.4800 C.3    56  LEU56       0.0019
     93  CD1       -2.4770   45.2130  104.1720 C.3    56  LEU56       0.0001
     94  CD2       -4.6760   44.0120  104.5020 C.3    56  LEU56       0.0001
@<TRIPOS>BOND
     1    90    89    2
     2    83    82    2
     3    82    81    1
     4    87    88    1
     5    26    27    1
     6    89    88    1
     7    81    80    1
     8    81    84    1
     9    88    91    1
    10    85    84    1
    11    35    34    1
    12    27    30    1
    13    27    28    1
    14    84    86    1
    15    91    92    1
    16    30    31    1
    17     8     6    1
    18    29    28    2
    19    31    32    1
    20    28    37   am
    21    34    36    1
    22    34    33    2
    23    32    33    1
    24    92    93    1
    25    92    94    1
    26    18    17    2
    27     6     5    1
    28    37    38    1
    29    24    23    1
    30    20    21    1
    31    20    19    1
    32    23    25    1
    33    23    22    2
    34     7     5    1
    35    17    16    1
    36    12    11    2
    37    22    21    1
    38     5     2    1
    39    16    19    1
    40    16    15    1
    41    38    39    1
    42    38    41    1
    43    42    41    1
    44    42    43    1
    45    39    40    2
    46    39    46   am
    47    11    15   am
    48    11    10    1
    49    46    47    1
    50     4     3    2
    51     1     2    1
    52     2     3    1
    53    45    43   ar
    54     3     9   am
    55    50    47    1
    56    50    51    1
    57    43    44   ar
    58     9    10    1
    59    47    48    1
    60    10    13    1
    61    14    13    1
    62    79    77   am
    63    76    77    1
    64    76    73    1
    65    75    74    2
    66    77    78    2
    67    70    69    1
    68    48    49    2
    69    48    52   am
    70    74    73    1
    71    69    71    1
    72    69    68    2
    73    52    53    1
    74    73    72    1
    75    72    63   am
    76    68    67    1
    77    60    58   am
    78    67    66    1
    79    65    62    1
    80    65    66    1
    81    61    62    1
    82    61    54   am
    83    53    54    1
    84    53    56    1
    85    63    62    1
    86    63    64    2
    87    57    58    1
    88    57    56    1
    89    54    55    2
    90    58    59    2
