@<TRIPOS>MOLECULE
tmp/5eelA00.pdb
 135 129 0 0 0
SMALL
GASTEIGER

@<TRIPOS>ATOM
      1  N          0.3900   56.4290  105.9960 N.3    13  ARG13      -0.1245
      2  CA        -0.6100   56.7140  104.9800 C.3    13  ARG13       0.1563
      3  C         -0.6860   58.2210  104.6950 C.2    13  ARG13       0.2260
      4  O         -0.7530   58.6380  103.5330 O.2    13  ARG13      -0.2867
      5  CB        -1.9840   56.1860  105.4040 C.3    13  ARG13       0.0307
      6  CG        -3.0890   56.4740  104.3910 C.3    13  ARG13       0.0489
      7  CD        -4.4330   55.8850  104.8040 C.3    13  ARG13       0.2205
      8  NE        -4.4230   54.4300  104.7710 N.pl3  13  ARG13      -0.0865
      9  CZ        -5.4600   53.6790  104.4160 C.cat  13  ARG13       0.5346
     10  NH1       -6.6140   54.2360  104.0670 N.pl3  13  ARG13       0.1354
     11  NH2       -5.3430   52.3590  104.4170 N.pl3  13  ARG13       0.1354
     12  N          3.1490   47.9830  106.0600 N.3    35  SER35      -0.1217
     13  CA         1.9120   48.1630  106.8060 C.3    35  SER35       0.1889
     14  C          2.1720   48.0460  108.2970 C.2    35  SER35       0.2288
     15  O          2.7720   47.0720  108.7500 O.2    35  SER35      -0.2866
     16  CB         0.8570   47.1330  106.3910 C.3    35  SER35       0.2089
     17  OG        -0.2290   47.1580  107.3070 O.3    35  SER35      -0.2183
     18  N         -0.4680   48.1860  110.4500 N.3    37  ARG37      -0.1231
     19  CA        -1.6550   47.4660  110.8870 C.3    37  ARG37       0.1694
     20  C         -1.5540   45.9690  110.5760 C.2    37  ARG37       0.2592
     21  O         -2.0740   45.1310  111.3130 O.2    37  ARG37      -0.2718
     22  CB        -2.8840   48.0780  110.2150 C.3    37  ARG37       0.0321
     23  CG        -4.2020   47.8350  110.9000 C.3    37  ARG37       0.0489
     24  CD        -5.3140   48.4500  110.0610 C.3    37  ARG37       0.2205
     25  NE        -5.1990   49.9020  110.0060 N.pl3  37  ARG37      -0.0865
     26  CZ        -5.6580   50.6500  109.0110 C.cat  37  ARG37       0.5346
     27  NH1       -6.2470   50.0770  107.9690 N.pl3  37  ARG37       0.1354
     28  NH2       -5.5140   51.9690  109.0500 N.pl3  37  ARG37       0.1354
     29  N         -0.8880   45.6410  109.4750 N.am   38  ASN38      -0.1974
     30  CA        -0.6260   44.2440  109.1230 C.3    38  ASN38       0.1688
     31  C          0.8690   43.9900  109.0060 C.2    38  ASN38       0.2292
     32  O          1.4270   44.0450  107.9140 O.2    38  ASN38      -0.2864
     33  CB        -1.3350   43.8800  107.8280 C.3    38  ASN38       0.1181
     34  CG        -2.8310   44.0100  107.9500 C.2    38  ASN38       0.2629
     35  OD1       -3.5170   43.0630  108.3480 O.2    38  ASN38      -0.2716
     36  ND2       -3.3480   45.1910  107.6310 N.am   38  ASN38      -0.0877
     37  N          1.4250   47.9800  101.7650 N.3    43  VAL43      -0.1245
     38  CA         0.3510   48.7660  101.1910 C.3    43  VAL43       0.1561
     39  C          0.8310   49.3760   99.8920 C.2    43  VAL43       0.2260
     40  O          1.8830   50.0160   99.8580 O.2    43  VAL43      -0.2867
     41  CB        -0.1120   49.8980  102.1320 C.3    43  VAL43       0.0252
     42  CG1       -1.3400   50.5700  101.5700 C.3    43  VAL43       0.0019
     43  CG2       -0.3820   49.3710  103.5520 C.3    43  VAL43       0.0019
     44  N         -6.2740   59.1060   96.2880 N.3    52  VAL52      -0.1231
     45  CA        -5.2180   58.1450   96.5790 C.3    52  VAL52       0.1692
     46  C         -5.8050   56.8480   97.1270 C.2    52  VAL52       0.2592
     47  O         -6.3420   56.8210   98.2310 O.2    52  VAL52      -0.2718
     48  CB        -4.2000   58.7030   97.5840 C.3    52  VAL52       0.0266
     49  CG1       -3.0630   57.7130   97.7900 C.3    52  VAL52       0.0020
     50  CG2       -3.6670   60.0530   97.1050 C.3    52  VAL52       0.0020
     51  N         -5.7140   55.7750   96.3470 N.am   53  LYS53      -0.1966
     52  CA        -6.2360   54.4910   96.7840 C.3    53  LYS53       0.1728
     53  C         -5.1510   53.6890   97.4930 C.2    53  LYS53       0.2616
     54  O         -3.9710   53.7570   97.1300 O.2    53  LYS53      -0.2715
     55  CB        -6.7920   53.6950   95.6030 C.3    53  LYS53       0.0311
     56  CG        -7.9160   54.3780   94.8540 C.3    53  LYS53       0.0038
     57  CD        -9.1860   54.4740   95.6900 C.3    53  LYS53       0.0206
     58  CE       -10.2730   55.2070   94.9150 C.3    53  LYS53       0.1093
     59  NZ       -11.4820   55.4620   95.7280 N.3    53  LYS53      -0.1314
     60  N         -5.5560   52.9300   98.5080 N.am   54  HIS54      -0.1959
     61  CA        -4.6140   52.1420   99.2950 C.3    54  HIS54       0.1787
     62  C         -4.9590   50.6520   99.2820 C.2    54  HIS54       0.2620
     63  O         -6.0280   50.2470   99.7470 O.2    54  HIS54      -0.2715
     64  CB        -4.5720   52.6670  100.7300 C.3    54  HIS54       0.0785
     65  CG        -4.1500   54.1000  100.8300 C.ar   54  HIS54       0.0821
     66  ND1       -2.8410   54.5020  100.6760 N.ar   54  HIS54      -0.2267
     67  CD2       -4.8670   55.2240  101.0650 C.ar   54  HIS54       0.1154
     68  CE1       -2.7680   55.8130  100.8210 C.ar   54  HIS54       0.1986
     69  NE2       -3.9810   56.2740  101.0640 N.ar   54  HIS54      -0.2212
     70  N         -4.0510   49.8390   98.7570 N.am   55  TYR55      -0.1960
     71  CA        -4.3140   48.4090   98.6190 C.3    55  TYR55       0.1771
     72  C         -3.4300   47.5790   99.5400 C.2    55  TYR55       0.2619
     73  O         -2.2010   47.6570   99.4860 O.2    55  TYR55      -0.2715
     74  CB        -4.1320   47.9810   97.1570 C.3    55  TYR55       0.0574
     75  CG        -5.0660   48.7360   96.2500 C.ar   55  TYR55      -0.0198
     76  CD1       -6.3890   48.3360   96.1070 C.ar   55  TYR55      -0.0009
     77  CD2       -4.6450   49.8700   95.5650 C.ar   55  TYR55      -0.0009
     78  CE1       -7.2670   49.0330   95.2990 C.ar   55  TYR55       0.0417
     79  CE2       -5.5240   50.5800   94.7540 C.ar   55  TYR55       0.0417
     80  CZ        -6.8340   50.1510   94.6330 C.ar   55  TYR55       0.1957
     81  OH        -7.7300   50.8390   93.8530 O.3    55  TYR55      -0.2866
     82  N         -4.0700   46.7760  100.3810 N.am   56  LEU56      -0.1977
     83  CA        -3.3640   45.9120  101.3200 C.3    56  LEU56       0.1596
     84  C         -2.7460   44.7100  100.6160 C.2    56  LEU56       0.2287
     85  O         -3.3930   44.0450   99.8000 O.2    56  LEU56      -0.2864
     86  CB        -4.3070   45.4440  102.4390 C.3    56  LEU56       0.0297
     87  CG        -3.6600   44.5190  103.4800 C.3    56  LEU56       0.0022
     88  CD1       -2.4770   45.2130  104.1720 C.3    56  LEU56       0.0001
     89  CD2       -4.6760   44.0120  104.5020 C.3    56  LEU56       0.0001
     90  N         -1.0590   41.1920  101.5310 N.3    58  LEU58      -0.1245
     91  CA        -0.9040   40.2400  102.6260 C.3    58  LEU58       0.1561
     92  C         -0.0240   39.0550  102.2570 C.2    58  LEU58       0.2260
     93  O         -0.1580   38.4760  101.1770 O.2    58  LEU58      -0.2867
     94  CB        -2.2690   39.7210  103.0890 C.3    58  LEU58       0.0270
     95  CG        -3.0920   40.6540  103.9780 C.3    58  LEU58       0.0019
     96  CD1       -4.4760   40.0450  104.3240 C.3    58  LEU58       0.0001
     97  CD2       -2.3140   41.0470  105.2500 C.3    58  LEU58       0.0001
     98  N         -0.4130   38.5580   98.0880 N.3    69  SER69      -0.1202
     99  CA        -1.6680   38.7260   97.3640 C.3    69  SER69       0.2020
    100  C         -2.4990   39.8910   97.8930 C.2    69  SER69       0.2619
    101  O         -2.4590   40.2190   99.0760 O.2    69  SER69      -0.2717
    102  CB        -2.4940   37.4380   97.4260 C.3    69  SER69       0.2103
    103  OG        -3.7860   37.6270   96.8730 O.3    69  SER69      -0.2182
    104  N         -3.2580   40.5010   96.9910 N.am   70  MET70      -0.1965
    105  CA        -4.1230   41.6280   97.2960 C.3    70  MET70       0.1736
    106  C         -5.5900   41.2110   97.2190 C.2    70  MET70       0.2616
    107  O         -6.4870   41.9810   97.5910 O.2    70  MET70      -0.2715
    108  CB        -3.8620   42.7950   96.3330 C.3    70  MET70       0.0427
    109  CG        -2.4220   43.3290   96.3220 C.3    70  MET70       0.0599
    110  SD        -2.1970   44.8730   95.3740 S.3    70  MET70      -0.1393
    111  CE        -2.4850   44.3140   93.7040 C.3    70  MET70       0.0692
    112  N         -5.8430   39.9990   96.7290 N.am   71  ASP71      -0.1957
    113  CA        -7.2210   39.5880   96.4810 C.3    71  ASP71       0.1840
    114  C         -7.5580   38.2450   97.1310 C.2    71  ASP71       0.2622
    115  O         -8.3190   37.4520   96.5830 O.2    71  ASP71      -0.2715
    116  CB        -7.5160   39.5500   94.9680 C.3    71  ASP71       0.1450
    117  CG        -6.5360   38.6750   94.1750 C.2    71  ASP71       0.3671
    118  OD1       -5.8350   37.8290   94.7680 O.co2  71  ASP71      -0.2456
    119  OD2       -6.4850   38.8340   92.9320 O.co2  71  ASP71      -0.2456
    120  N         -6.9880   38.0220   98.3090 N.am   72  ASP72      -0.1971
    121  CA        -7.2680   36.8470   99.1180 C.3    72  ASP72       0.1709
    122  C         -6.8900   35.5550   98.3990 C.2    72  ASP72       0.2293
    123  O         -7.6160   34.5580   98.4790 O.2    72  ASP72      -0.2864
    124  CB        -8.7430   36.8170   99.5190 C.3    72  ASP72       0.1436
    125  CG        -8.9440   36.3770  100.9470 C.2    72  ASP72       0.3671
    126  OD1       -8.2640   36.9220  101.8460 O.co2  72  ASP72      -0.2456
    127  OD2       -9.7810   35.4790  101.1690 O.co2  72  ASP72      -0.2456
    128  N         -7.1380   43.7220   89.8320 N.3    93  ILE93      -0.1245
    129  CA        -8.1830   44.3880   90.6020 C.3    93  ILE93       0.1561
    130  C         -8.0000   45.9080   90.6790 C.2    93  ILE93       0.2260
    131  O         -8.8630   46.6020   91.2030 O.2    93  ILE93      -0.2867
    132  CB        -8.2700   43.8200   92.0440 C.3    93  ILE93       0.0252
    133  CG1       -7.1260   44.3430   92.9080 C.3    93  ILE93       0.0019
    134  CG2       -8.2710   42.2860   92.0250 C.3    93  ILE93       0.0019
    135  CD1       -7.2610   43.9550   94.3520 C.3    93  ILE93       0.0001
@<TRIPOS>BOND
     1   128   129    1
     2   129   130    1
     3   129   132    1
     4   130   131    2
     5   134   132    1
     6   132   133    1
     7   133   135    1
     8   119   117   ar
     9   111   110    1
    10    81    80    1
    11   117   118   ar
    12   117   116    1
    13    80    79   ar
    14    80    78   ar
    15    79    77   ar
    16    56    55    1
    17    56    57    1
    18    58    57    1
    19    58    59    1
    20   116   113    1
    21    78    76   ar
    22   110   109    1
    23    77    75   ar
    24    55    52    1
    25    76    75   ar
    26    75    74    1
    27    44    45    1
    28   109   108    1
    29   108   105    1
    30    51    52    1
    31    51    46   am
    32   113   112    1
    33   113   114    1
    34    45    46    1
    35    45    48    1
    36   115   114    2
    37   112   106   am
    38    52    53    1
    39   103   102    1
    40   104   105    1
    41   104   100   am
    42    50    48    1
    43    46    47    2
    44    54    53    2
    45   114   120   am
    46    74    71    1
    47   106   105    1
    48   106   107    2
    49    99   102    1
    50    99   100    1
    51    99    98    1
    52    53    60   am
    53    48    49    1
    54   100   101    2
    55   120   121    1
    56   122   123    2
    57   122   121    1
    58    60    61    1
    59    71    70    1
    60    71    72    1
    61    70    62   am
    62   121   124    1
    63    62    61    1
    64    62    63    2
    65    61    64    1
    66    73    72    2
    67   124   125    1
    68    72    82   am
    69    85    84    2
    70    40    39    2
    71    39    38    1
    72    82    83    1
    73    84    83    1
    74    66    68   ar
    75    66    65   ar
    76    64    65    1
    77    68    69   ar
    78    65    67   ar
    79   125   127   ar
    80   125   126   ar
    81    69    67   ar
    82    93    92    2
    83    38    37    1
    84    38    41    1
    85    83    86    1
    86    90    91    1
    87    42    41    1
    88    41    43    1
    89    92    91    1
    90    86    87    1
    91    91    94    1
    92    94    95    1
    93    87    88    1
    94    87    89    1
    95     4     3    2
    96    95    96    1
    97    95    97    1
    98    10     9    1
    99     6     7    1
   100     6     5    1
   101     9    11    1
   102     9     8    2
   103     3     2    1
   104     8     7    1
   105     2     5    1
   106     2     1    1
   107    12    13    1
   108    16    13    1
   109    16    17    1
   110    13    14    1
   111    36    34   am
   112    33    34    1
   113    33    30    1
   114    32    31    2
   115    34    35    2
   116    27    26    1
   117    14    15    2
   118    31    30    1
   119    26    28    1
   120    26    25    2
   121    30    29    1
   122    29    20   am
   123    25    24    1
   124    24    23    1
   125    22    19    1
   126    22    23    1
   127    18    19    1
   128    20    19    1
   129    20    21    2
