@<TRIPOS>MOLECULE
tmp/5eenA00.pdb
 151 148 0 0 0
SMALL
GASTEIGER

@<TRIPOS>ATOM
      1  N         39.1620  111.6010   27.9020 N.3    19  ASP19      -0.1239
      2  CA        39.7680  110.2970   27.6690 C.3    19  ASP19       0.1674
      3  C         39.3240  109.7850   26.3060 C.2    19  ASP19       0.2266
      4  O         38.2960  109.1190   26.1840 O.2    19  ASP19      -0.2867
      5  CB        39.3900  109.3090   28.7760 C.3    19  ASP19       0.1410
      6  CG        40.0190  107.9390   28.5790 C.2    19  ASP19       0.3668
      7  OD1       40.9530  107.8210   27.7580 O.co2  19  ASP19      -0.2456
      8  OD2       39.5820  106.9780   29.2490 O.co2  19  ASP19      -0.2456
      9  N         38.4170  106.0780   25.8950 N.3    22  HIS22      -0.1227
     10  CA        37.2590  105.4860   26.5570 C.3    22  HIS22       0.1737
     11  C         36.6390  104.4780   25.5940 C.2    22  HIS22       0.2438
     12  O         36.4620  104.7890   24.4250 O.2    22  HIS22      -0.2733
     13  CB        36.2500  106.5680   26.9590 C.3    22  HIS22       0.0758
     14  CG        35.0650  106.0520   27.7160 C.ar   22  HIS22       0.0818
     15  ND1       34.1130  105.2350   27.1430 N.ar   22  HIS22      -0.2268
     16  CD2       34.6640  106.2550   28.9940 C.ar   22  HIS22       0.1154
     17  CE1       33.1840  104.9490   28.0380 C.ar   22  HIS22       0.1986
     18  NE2       33.4920  105.5560   29.1670 N.ar   22  HIS22      -0.2212
     19  N         36.3250  103.2650   26.0770 N.am   23  PRO23      -0.2729
     20  CA        35.9310  102.1670   25.1800 C.3    23  PRO23       0.1401
     21  C         34.6280  102.3940   24.4030 C.2    23  PRO23       0.2269
     22  O         34.4240  101.7430   23.3740 O.2    23  PRO23      -0.2865
     23  CB        35.7870  100.9760   26.1340 C.3    23  PRO23       0.0296
     24  CG        35.5000  101.5940   27.4710 C.3    23  PRO23       0.0237
     25  CD        36.3190  102.8510   27.4900 C.3    23  PRO23       0.0939
     26  N         29.1350  106.9480   35.6330 N.3    90  SER90      -0.1217
     27  CA        29.8190  106.5470   34.3990 C.3    90  SER90       0.1889
     28  C         29.2310  107.1750   33.1360 C.2    90  SER90       0.2288
     29  O         28.7250  106.4780   32.2520 O.2    90  SER90      -0.2866
     30  CB        29.8080  105.0230   34.2700 C.3    90  SER90       0.2089
     31  OG        30.4570  104.4210   35.3760 O.3    90  SER90      -0.2183
     32  N         24.5260  103.9510   23.7560 N.3   130  PRO130     -0.2116
     33  CA        23.5860  102.8980   24.1530 C.3   130  PRO130      0.1372
     34  C         22.4730  103.4480   25.0420 C.2   130  PRO130      0.2244
     35  O         22.4540  104.6460   25.3310 O.2   130  PRO130     -0.2868
     36  CB        24.4680  101.9030   24.9120 C.3   130  PRO130      0.0268
     37  CG        25.6290  102.7110   25.3840 C.3   130  PRO130      0.0207
     38  CD        25.8750  103.7190   24.3020 C.3   130  PRO130      0.0892
     39  N         20.2160  101.0670   27.5880 N.3   132  HIS132     -0.1226
     40  CA        19.4330  100.2810   28.5500 C.3   132  HIS132      0.1752
     41  C         19.7260  100.5910   30.0240 C.2   132  HIS132      0.2596
     42  O         18.9710  100.1590   30.8960 O.2   132  HIS132     -0.2718
     43  CB        19.5900   98.7720   28.2830 C.3   132  HIS132      0.0759
     44  CG        20.9710   98.2370   28.5020 C.ar  132  HIS132      0.0818
     45  ND1       21.2140   96.9040   28.7560 N.ar  132  HIS132     -0.2268
     46  CD2       22.1840   98.8410   28.4770 C.ar  132  HIS132      0.1154
     47  CE1       22.5130   96.7140   28.9060 C.ar  132  HIS132      0.1986
     48  NE2       23.1240   97.8720   28.7350 N.ar  132  HIS132     -0.2212
     49  N         20.7850  101.3520   30.3090 N.am  133  HIS133     -0.1975
     50  CA        21.0320  101.8100   31.6810 C.3   133  HIS133      0.1656
     51  C         20.3190  103.1290   32.0040 C.2   133  HIS133      0.2291
     52  O         20.2760  103.5440   33.1650 O.2   133  HIS133     -0.2864
     53  CB        22.5310  101.9910   31.9480 C.3   133  HIS133      0.0771
     54  CG        23.3150  100.7180   31.8980 C.ar  133  HIS133      0.0820
     55  ND1       22.9880   99.6120   32.6510 N.ar  133  HIS133     -0.2267
     56  CD2       24.4190  100.3780   31.1880 C.ar  133  HIS133      0.1154
     57  CE1       23.8540   98.6450   32.4060 C.ar  133  HIS133      0.1986
     58  NE2       24.7320   99.0830   31.5230 N.ar  133  HIS133     -0.2212
     59  N         25.7770  104.7730   32.9260 N.3   141  GLY141     -0.1210
     60  CA        26.4890  103.7290   32.2030 C.3   141  GLY141      0.1956
     61  C         26.5860  103.9090   30.7000 C.2   141  GLY141      0.2612
     62  O         26.2970  102.9810   29.9470 O.2   141  GLY141     -0.2717
     63  N         26.9910  105.1120   30.2910 N.am  142  PHE142     -0.1962
     64  CA        27.2130  105.5200   28.8960 C.3   142  PHE142      0.1771
     65  C         25.9010  105.8070   28.1760 C.2   142  PHE142      0.2619
     66  O         25.9210  106.1000   26.9810 O.2   142  PHE142     -0.2715
     67  CB        27.9880  104.4730   28.0560 C.3   142  PHE142      0.0574
     68  CG        29.1940  103.8630   28.7370 C.ar  142  PHE142     -0.0200
     69  CD1       29.8410  104.4940   29.7880 C.ar  142  PHE142     -0.0042
     70  CD2       29.6830  102.6410   28.2950 C.ar  142  PHE142     -0.0042
     71  CE1       30.9380  103.9080   30.4000 C.ar  142  PHE142     -0.0003
     72  CE2       30.7840  102.0510   28.9010 C.ar  142  PHE142     -0.0003
     73  CZ        31.4110  102.6870   29.9550 C.ar  142  PHE142     -0.0000
     74  N         24.7760  105.7070   28.8900 N.am  143  CYS143     -0.1968
     75  CA        23.4390  105.8420   28.2940 C.3   143  CYS143      0.1712
     76  C         22.7220  107.1120   28.7340 C.2   143  CYS143      0.2296
     77  O         22.7730  107.4830   29.9040 O.2   143  CYS143     -0.2864
     78  CB        22.5530  104.6430   28.6580 C.3   143  CYS143      0.0983
     79  SG        23.2580  103.0220   28.3230 S.3   143  CYS143     -0.0798
     80  N         22.9890   91.9590   26.1710 N.3   171  ASP171     -0.1239
     81  CA        24.1390   92.7410   26.6300 C.3   171  ASP171      0.1674
     82  C         24.6310   92.1010   27.9290 C.2   171  ASP171      0.2266
     83  O         23.8340   91.5550   28.6860 O.2   171  ASP171     -0.2867
     84  CB        23.7410   94.2090   26.8360 C.3   171  ASP171      0.1410
     85  CG        24.9170   95.1000   27.1950 C.2   171  ASP171      0.3668
     86  OD1       25.4150   94.9920   28.3340 O.co2 171  ASP171     -0.2456
     87  OD2       25.3270   95.9220   26.3450 O.co2 171  ASP171     -0.2456
     88  N         25.6500   93.3220   30.5900 N.3   173  HIS173     -0.1241
     89  CA        25.2290   94.0510   31.7870 C.3   173  HIS173      0.1621
     90  C         23.7200   94.0520   31.9400 C.2   173  HIS173      0.2264
     91  O         23.0010   93.9880   30.9530 O.2   173  HIS173     -0.2867
     92  CB        25.7320   95.4910   31.7330 C.3   173  HIS173      0.0745
     93  CG        27.2190   95.6050   31.6170 C.ar  173  HIS173      0.0817
     94  ND1       27.8530   95.8460   30.4170 N.ar  173  HIS173     -0.2268
     95  CD2       28.1960   95.5210   32.5510 C.ar  173  HIS173      0.1154
     96  CE1       29.1590   95.8960   30.6150 C.ar  173  HIS173      0.1986
     97  NE2       29.3920   95.7040   31.9030 N.ar  173  HIS173     -0.2212
     98  N         29.1550   93.0530   39.8030 N.3   201  PHE201     -0.1227
     99  CA        29.3630   93.4860   38.4240 C.3   201  PHE201      0.1736
    100  C         28.4660   94.6830   38.1220 C.2   201  PHE201      0.2595
    101  O         27.3230   94.7350   38.5890 O.2   201  PHE201     -0.2718
    102  CB        29.0860   92.3330   37.4540 C.3   201  PHE201      0.0547
    103  CG        29.8140   92.4490   36.1430 C.ar  201  PHE201     -0.0202
    104  CD1       31.1940   92.3090   36.0870 C.ar  201  PHE201     -0.0042
    105  CD2       29.1200   92.6880   34.9680 C.ar  201  PHE201     -0.0042
    106  CE1       31.8750   92.4130   34.8860 C.ar  201  PHE201     -0.0003
    107  CE2       29.7910   92.7940   33.7570 C.ar  201  PHE201     -0.0003
    108  CZ        31.1740   92.6580   33.7150 C.ar  201  PHE201     -0.0000
    109  N         28.9890   95.6500   37.3690 N.am  202  PHE202     -0.1976
    110  CA        28.1950   96.8010   36.9470 C.3   202  PHE202      0.1639
    111  C         26.8870   96.3050   36.3310 C.2   202  PHE202      0.2290
    112  O         26.9020   95.3470   35.5560 O.2   202  PHE202     -0.2864
    113  CB        28.9740   97.6720   35.9530 C.3   202  PHE202      0.0560
    114  CG        28.2640   98.9480   35.5860 C.ar  202  PHE202     -0.0200
    115  CD1       27.4410   99.0080   34.4680 C.ar  202  PHE202     -0.0042
    116  CD2       28.3850  100.0720   36.3820 C.ar  202  PHE202     -0.0042
    117  CE1       26.7740  100.1730   34.1380 C.ar  202  PHE202     -0.0003
    118  CE2       27.7210  101.2390   36.0620 C.ar  202  PHE202     -0.0003
    119  CZ        26.9120  101.2900   34.9360 C.ar  202  PHE202     -0.0000
    120  N         29.0240   92.8380   24.4020 N.3   264  ASP264     -0.1239
    121  CA        30.1280   92.7760   25.3540 C.3   264  ASP264      0.1674
    122  C         30.1910   91.4460   26.1120 C.2   264  ASP264      0.2266
    123  O         31.0680   91.2540   26.9510 O.2   264  ASP264     -0.2867
    124  CB        30.0850   93.9440   26.3510 C.3   264  ASP264      0.1410
    125  CG        28.6770   94.3960   26.7000 C.2   264  ASP264      0.3668
    126  OD1       27.6940   93.6500   26.4810 O.co2 264  ASP264     -0.2456
    127  OD2       28.5780   95.5250   27.2160 O.co2 264  ASP264     -0.2456
    128  N         35.7850   94.3310   28.6280 N.3   271  LEU271     -0.1245
    129  CA        35.0150   94.6270   29.8420 C.3   271  LEU271      0.1561
    130  C         34.1380   93.4670   30.3120 C.2   271  LEU271      0.2260
    131  O         33.9180   93.2900   31.5120 O.2   271  LEU271     -0.2867
    132  CB        34.1250   95.8530   29.6250 C.3   271  LEU271      0.0270
    133  CG        34.7870   97.1650   29.2020 C.3   271  LEU271      0.0019
    134  CD1       33.7500   98.2830   29.1430 C.3   271  LEU271      0.0001
    135  CD2       35.9260   97.5290   30.1420 C.3   271  LEU271      0.0001
    136  N         25.8640   97.8410   24.2150 N.3   302  GLY302     -0.1225
    137  CA        27.3010   97.8470   24.4490 C.3   302  GLY302      0.1811
    138  C         28.0710   96.8930   23.5490 C.2   302  GLY302      0.2280
    139  O         27.5450   96.4170   22.5380 O.2   302  GLY302     -0.2866
    140  N         32.6160   96.2270   23.0800 N.3   304  TYR304     -0.1241
    141  CA        33.7690   97.1260   23.0270 C.3   304  TYR304      0.1605
    142  C         35.0290   96.5860   22.3510 C.2   304  TYR304      0.2264
    143  O         35.9910   97.3280   22.1830 O.2   304  TYR304     -0.2867
    144  CB        34.0940   97.5870   24.4470 C.3   304  TYR304      0.0534
    145  CG        32.8560   98.1640   25.0700 C.ar  304  TYR304     -0.0201
    146  CD1       32.3770   99.4000   24.6610 C.ar  304  TYR304     -0.0009
    147  CD2       32.1200   97.4430   25.9990 C.ar  304  TYR304     -0.0009
    148  CE1       31.2200   99.9270   25.1910 C.ar  304  TYR304      0.0417
    149  CE2       30.9520   97.9640   26.5420 C.ar  304  TYR304      0.0417
    150  CZ        30.5110   99.2090   26.1280 C.ar  304  TYR304      0.1957
    151  OH        29.3600   99.7510   26.6410 O.3   304  TYR304     -0.2866
@<TRIPOS>BOND
     1   143   142    2
     2   142   141    1
     3   139   138    2
     4   141   140    1
     5   141   144    1
     6    22    21    2
     7   138   137    1
     8    32    33    1
     9    32    38    1
    10    33    36    1
    11    33    34    1
    12   136   137    1
    13    38    37    1
    14   120   121    1
    15    21    20    1
    16    12    11    2
    17   144   145    1
    18   146   145   ar
    19   146   148   ar
    20    36    37    1
    21    34    35    2
    22   145   147   ar
    23    20    19    1
    24    20    23    1
    25   148   150   ar
    26   121   122    1
    27   121   124    1
    28    11    19   am
    29    11    10    1
    30     9    10    1
    31   147   149   ar
    32    19    25    1
    33   122   123    2
    34   150   149   ar
    35   150   151    1
    36    23    24    1
    37    80    81    1
    38     4     3    2
    39     3     2    1
    40    87    85   ar
    41   124   125    1
    42   126   125   ar
    43    10    13    1
    44    81    84    1
    45    81    82    1
    46   125   127   ar
    47    84    85    1
    48    13    14    1
    49    66    65    2
    50    15    14   ar
    51    15    17   ar
    52    85    86   ar
    53    24    25    1
    54    39    40    1
    55     2     1    1
    56     2     5    1
    57    14    16   ar
    58     7     6   ar
    59    82    83    2
    60    17    18   ar
    61    67    68    1
    62    67    64    1
    63    65    74   am
    64    65    64    1
    65    43    44    1
    66    43    40    1
    67    75    78    1
    68    75    76    1
    69    75    74    1
    70    70    68   ar
    71    70    72   ar
    72    79    78    1
    73    46    44   ar
    74    46    48   ar
    75    44    45   ar
    76    40    41    1
    77     6     5    1
    78     6     8   ar
    79   128   129    1
    80    76    77    2
    81    48    47   ar
    82    68    69   ar
    83    45    47   ar
    84    64    63    1
    85    72    73   ar
    86    16    18   ar
    87   134   133    1
    88   133   132    1
    89   133   135    1
    90   132   129    1
    91    69    71   ar
    92   129   130    1
    93    62    61    2
    94    73    71   ar
    95    41    49   am
    96    41    42    2
    97    63    61   am
    98    49    50    1
    99   130   131    2
   100    94    96   ar
   101    94    93   ar
   102    88    89    1
   103    96    97   ar
   104    61    60    1
   105    91    90    2
   106    56    58   ar
   107    56    54   ar
   108    58    57   ar
   109    93    92    1
   110    93    95   ar
   111    50    53    1
   112    50    51    1
   113    92    89    1
   114    89    90    1
   115    54    53    1
   116    54    55   ar
   117    97    95   ar
   118    51    52    2
   119    60    59    1
   120    29    28    2
   121    57    55   ar
   122    28    27    1
   123   108   107   ar
   124   108   106   ar
   125   107   105   ar
   126   117   115   ar
   127   117   119   ar
   128    30    27    1
   129    30    31    1
   130    27    26    1
   131   115   114   ar
   132   106   104   ar
   133   119   118   ar
   134   105   103   ar
   135   112   111    2
   136   114   113    1
   137   114   116   ar
   138   113   110    1
   139   118   116   ar
   140   104   103   ar
   141   103   102    1
   142   111   110    1
   143   110   109    1
   144   109   100   am
   145   102    99    1
   146   100    99    1
   147   100   101    2
   148    99    98    1
