@<TRIPOS>MOLECULE
tmp/5eeqA00.pdb
 135 129 0 0 0
SMALL
GASTEIGER

@<TRIPOS>ATOM
      1  N          9.5880  -10.4380    2.2160 N.3    13  ARG13      -0.1245
      2  CA         8.5280  -10.3920    3.2070 C.3    13  ARG13       0.1563
      3  C          8.5660  -11.6520    4.0650 C.2    13  ARG13       0.2260
      4  O          8.4980  -11.5820    5.2930 O.2    13  ARG13      -0.2867
      5  CB         7.1670  -10.2470    2.5270 C.3    13  ARG13       0.0307
      6  CG         5.9970  -10.2140    3.4920 C.3    13  ARG13       0.0489
      7  CD         4.6880   -9.9750    2.7630 C.3    13  ARG13       0.2205
      8  NE         4.6210   -8.6200    2.2340 N.pl3  13  ARG13      -0.0865
      9  CZ         3.5100   -7.8920    2.1720 C.cat  13  ARG13       0.5346
     10  NH1        2.3550   -8.3930    2.5990 N.pl3  13  ARG13       0.1354
     11  NH2        3.5560   -6.6650    1.6610 N.pl3  13  ARG13       0.1354
     12  N         11.4120   -2.9460   -0.3060 N.3    35  SER35      -0.1217
     13  CA        10.2450   -3.6370   -0.8510 C.3    35  SER35       0.1889
     14  C         10.6280   -4.4530   -2.0760 C.2    35  SER35       0.2288
     15  O         11.3340   -3.9610   -2.9510 O.2    35  SER35      -0.2866
     16  CB         9.1450   -2.6310   -1.2100 C.3    35  SER35       0.2089
     17  OG         8.1030   -3.2470   -1.9530 O.3    35  SER35      -0.2183
     18  N          8.2710   -5.8010   -4.1730 N.3    37  ARG37      -0.1231
     19  CA         7.3250   -5.4130   -5.2190 C.3    37  ARG37       0.1694
     20  C          7.6030   -4.0050   -5.7360 C.2    37  ARG37       0.2592
     21  O          7.3820   -3.7110   -6.9100 O.2    37  ARG37      -0.2718
     22  CB         5.8870   -5.5070   -4.7060 C.3    37  ARG37       0.0321
     23  CG         5.4230   -6.9270   -4.4080 C.3    37  ARG37       0.0489
     24  CD         3.9940   -6.9310   -3.8770 C.3    37  ARG37       0.2205
     25  NE         3.0540   -6.3460   -4.8360 N.pl3  37  ARG37      -0.0865
     26  CZ         1.8470   -5.8930   -4.5090 C.cat  37  ARG37       0.5346
     27  NH1        1.4380   -5.9500   -3.2460 N.pl3  37  ARG37       0.1354
     28  NH2        1.0560   -5.3740   -5.4400 N.pl3  37  ARG37       0.1354
     29  N          8.1020   -3.1500   -4.8560 N.am   38  ASN38      -0.1974
     30  CA         8.4040   -1.7600   -5.1790 C.3    38  ASN38       0.1688
     31  C          9.8320   -1.4180   -4.7670 C.2    38  ASN38       0.2292
     32  O         10.0540   -0.8460   -3.6970 O.2    38  ASN38      -0.2864
     33  CB         7.4200   -0.8200   -4.4730 C.3    38  ASN38       0.1181
     34  CG         5.9740   -1.1650   -4.7640 C.2    38  ASN38       0.2629
     35  OD1        5.4220   -0.7500   -5.7740 O.2    38  ASN38      -0.2716
     36  ND2        5.3510   -1.9260   -3.8690 N.am   38  ASN38      -0.0877
     37  N          9.6470   -1.2310    3.1630 N.3    43  VAL43      -0.1245
     38  CA         8.5550   -1.7540    3.9690 C.3    43  VAL43       0.1561
     39  C          8.9250   -1.7220    5.4430 C.2    43  VAL43       0.2260
     40  O         10.0180   -2.1400    5.8290 O.2    43  VAL43      -0.2867
     41  CB         8.1830   -3.2050    3.5790 C.3    43  VAL43       0.0252
     42  CG1        6.9580   -3.6620    4.3760 C.3    43  VAL43       0.0019
     43  CG2        7.9160   -3.3110    2.0820 C.3    43  VAL43       0.0019
     44  N          2.4000  -10.3190   11.9450 N.3    52  VAL52      -0.1231
     45  CA         3.3110   -9.3970   11.2870 C.3    52  VAL52       0.1692
     46  C          2.5920   -8.6150   10.1900 C.2    52  VAL52       0.2592
     47  O          1.9750   -9.1950    9.2860 O.2    52  VAL52      -0.2718
     48  CB         4.5310  -10.1350   10.7020 C.3    52  VAL52       0.0266
     49  CG1        5.4840   -9.1460   10.0520 C.3    52  VAL52       0.0020
     50  CG2        5.2430  -10.9090   11.8040 C.3    52  VAL52       0.0020
     51  N          2.6710   -7.2940   10.2960 N.am   53  LYS53      -0.1966
     52  CA         2.0490   -6.3880    9.3360 C.3    53  LYS53       0.1728
     53  C          3.1260   -5.7130    8.5040 C.2    53  LYS53       0.2616
     54  O          4.2620   -5.5520    8.9500 O.2    53  LYS53      -0.2715
     55  CB         1.2070   -5.3320   10.0580 C.3    53  LYS53       0.0311
     56  CG         0.1090   -5.8940   10.9590 C.3    53  LYS53       0.0038
     57  CD        -1.0040   -6.5120   10.1300 C.3    53  LYS53       0.0206
     58  CE        -2.2650   -6.7360   10.9520 C.3    53  LYS53       0.1093
     59  NZ        -2.0380   -7.6930   12.0640 N.3    53  LYS53      -0.1314
     60  N          2.7690   -5.3020    7.2940 N.am   54  HIS54      -0.1959
     61  CA         3.7440   -4.6980    6.3990 C.3    54  HIS54       0.1787
     62  C          3.2270   -3.3770    5.8550 C.2    54  HIS54       0.2620
     63  O          2.1890   -3.3350    5.1850 O.2    54  HIS54      -0.2715
     64  CB         4.0790   -5.6630    5.2640 C.3    54  HIS54       0.0785
     65  CG         4.5720   -6.9900    5.7470 C.ar   54  HIS54       0.0821
     66  ND1        5.9000   -7.2310    6.0290 N.ar   54  HIS54      -0.2267
     67  CD2        3.9110   -8.1360    6.0360 C.ar   54  HIS54       0.1154
     68  CE1        6.0380   -8.4720    6.4580 C.ar   54  HIS54       0.1986
     69  NE2        4.8460   -9.0430    6.4730 N.ar   54  HIS54      -0.2212
     70  N          3.9580   -2.3060    6.1580 N.am   55  TYR55      -0.1960
     71  CA         3.5710   -0.9560    5.7520 C.3    55  TYR55       0.1771
     72  C          4.5030   -0.4260    4.6790 C.2    55  TYR55       0.2619
     73  O          5.6990   -0.2460    4.9170 O.2    55  TYR55      -0.2715
     74  CB         3.5470   -0.0290    6.9780 C.3    55  TYR55       0.0574
     75  CG         2.5650   -0.5520    7.9850 C.ar   55  TYR55      -0.0198
     76  CD1        2.9680   -1.4540    8.9620 C.ar   55  TYR55      -0.0009
     77  CD2        1.2230   -0.2160    7.9130 C.ar   55  TYR55      -0.0009
     78  CE1        2.0700   -1.9790    9.8520 C.ar   55  TYR55       0.0417
     79  CE2        0.3100   -0.7380    8.8150 C.ar   55  TYR55       0.0417
     80  CZ         0.7470   -1.6220    9.7750 C.ar   55  TYR55       0.1957
     81  OH        -0.1390   -2.1670   10.6700 O.3    55  TYR55      -0.2866
     82  N          3.9470   -0.1920    3.4900 N.am   56  LEU56      -0.1977
     83  CA         4.7150    0.3200    2.3730 C.3    56  LEU56       0.1596
     84  C          5.1410    1.7600    2.6100 C.2    56  LEU56       0.2287
     85  O          4.3440    2.5880    3.0610 O.2    56  LEU56      -0.2864
     86  CB         3.8980    0.2180    1.0890 C.3    56  LEU56       0.0297
     87  CG         4.6050    0.5950   -0.2180 C.3    56  LEU56       0.0022
     88  CD1        5.8020   -0.3160   -0.4940 C.3    56  LEU56       0.0001
     89  CD2        3.6150    0.5230   -1.3610 C.3    56  LEU56       0.0001
     90  N          6.8370    4.8420    0.4840 N.3    58  LEU58      -0.1245
     91  CA         7.1710    5.2570   -0.8730 C.3    58  LEU58       0.1561
     92  C          7.8070    6.6460   -0.9240 C.2    58  LEU58       0.2260
     93  O          7.4000    7.5470   -0.1830 O.2    58  LEU58      -0.2867
     94  CB         5.9150    5.2350   -1.7550 C.3    58  LEU58       0.0270
     95  CG         5.2970    3.8700   -2.0660 C.3    58  LEU58       0.0019
     96  CD1        4.0180    4.0400   -2.8760 C.3    58  LEU58       0.0001
     97  CD2        6.2930    2.9940   -2.8070 C.3    58  LEU58       0.0001
     98  N          6.6890    8.5820    2.5840 N.3    69  SER69      -0.1202
     99  CA         5.3800    8.5550    3.2230 C.3    69  SER69       0.2020
    100  C          4.7220    7.1750    3.1780 C.2    69  SER69       0.2619
    101  O          4.9130    6.4140    2.2190 O.2    69  SER69      -0.2717
    102  CB         4.4640    9.5870    2.5680 C.3    69  SER69       0.2103
    103  OG         3.1830    9.6040    3.1650 O.3    69  SER69      -0.2182
    104  N          3.9370    6.8730    4.2090 N.am   70  MET70      -0.1965
    105  CA         3.1650    5.6360    4.2810 C.3    70  MET70       0.1736
    106  C          1.6870    5.8870    3.9940 C.2    70  MET70       0.2616
    107  O          0.8820    4.9560    3.9830 O.2    70  MET70      -0.2715
    108  CB         3.3150    4.9870    5.6570 C.3    70  MET70       0.0427
    109  CG         4.7250    4.5710    5.9750 C.3    70  MET70       0.0599
    110  SD         4.8120    3.6310    7.5080 S.3    70  MET70      -0.1393
    111  CE         4.4910    4.9100    8.7240 C.3    70  MET70       0.0692
    112  N          1.3250    7.1440    3.7510 N.am   71  ASP71      -0.1957
    113  CA        -0.0860    7.4850    3.5980 C.3    71  ASP71       0.1840
    114  C         -0.3510    8.5170    2.5090 C.2    71  ASP71       0.2622
    115  O         -1.1780    9.4090    2.6810 O.2    71  ASP71      -0.2715
    116  CB        -0.6620    7.9730    4.9450 C.3    71  ASP71       0.1450
    117  CG         0.1240    9.1390    5.5520 C.2    71  ASP71       0.3671
    118  OD1        0.9490    9.7480    4.8370 O.co2  71  ASP71      -0.2456
    119  OD2       -0.1010    9.4560    6.7490 O.co2  71  ASP71      -0.2456
    120  N          0.3460    8.3690    1.3870 N.am   72  ASP72      -0.1971
    121  CA         0.1380    9.1950    0.1990 C.3    72  ASP72       0.1709
    122  C          0.3820   10.6740    0.4930 C.2    72  ASP72       0.2293
    123  O         -0.2730   11.5450   -0.0730 O.2    72  ASP72      -0.2864
    124  CB        -1.2690    8.9920   -0.3640 C.3    72  ASP72       0.1436
    125  CG        -1.3920    7.7120   -1.1720 C.2    72  ASP72       0.3671
    126  OD1       -0.4400    7.3900   -1.9160 O.co2  72  ASP72      -0.2456
    127  OD2       -2.4390    7.0380   -1.0720 O.co2  72  ASP72      -0.2456
    128  N         -0.5210    6.1340   11.7530 N.3    93  ILE93      -0.1245
    129  CA        -1.4190    5.1430   11.1600 C.3    93  ILE93       0.1561
    130  C         -1.1750    3.7110   11.6490 C.2    93  ILE93       0.2260
    131  O         -1.9440    2.8070   11.3230 O.2    93  ILE93      -0.2867
    132  CB        -1.3280    5.1480    9.6100 C.3    93  ILE93       0.0252
    133  CG1        0.0140    4.5920    9.1390 C.3    93  ILE93       0.0019
    134  CG2       -1.5470    6.5550    9.0840 C.3    93  ILE93       0.0019
    135  CD1        0.0430    4.3170    7.6160 C.3    93  ILE93       0.0001
@<TRIPOS>BOND
     1    21    20    2
     2    35    34    2
     3    20    19    1
     4    20    29   am
     5    28    26    1
     6    19    22    1
     7    19    18    1
     8    30    29    1
     9    30    31    1
    10    30    33    1
    11    25    26    2
    12    25    24    1
    13    31    32    2
    14    34    33    1
    15    34    36   am
    16    22    23    1
    17    26    27    1
    18    23    24    1
    19    15    14    2
    20    96    95    1
    21    97    95    1
    22    14    13    1
    23    95    94    1
    24    17    16    1
    25   126   125   ar
    26    94    91    1
    27    89    87    1
    28    16    13    1
    29   125   127   ar
    30   125   124    1
    31    92    91    1
    32    92    93    2
    33    91    90    1
    34    13    12    1
    35    88    87    1
    36   124   121    1
    37    87    86    1
    38   123   122    2
    39   121   122    1
    40   121   120    1
    41    86    83    1
    42   120   114   am
    43    11     9    1
    44    43    41    1
    45     9     8    2
    46     9    10    1
    47     1     2    1
    48   101   100    2
    49     8     7    1
    50    83    84    1
    51    83    82    1
    52   114   115    2
    53   114   113    1
    54     5     2    1
    55     5     6    1
    56   102   103    1
    57   102    99    1
    58    98    99    1
    59    84    85    2
    60     7     6    1
    61    37    38    1
    62   100    99    1
    63   100   104   am
    64     2     3    1
    65    82    72   am
    66    41    38    1
    67    41    42    1
    68   113   112    1
    69   113   116    1
    70   112   106   am
    71    38    39    1
    72   107   106    2
    73   106   105    1
    74     3     4    2
    75   104   105    1
    76   105   108    1
    77    72    73    2
    78    72    71    1
    79   118   117   ar
    80   116   117    1
    81    63    62    2
    82    64    65    1
    83    64    61    1
    84    39    40    2
    85   117   119   ar
    86   108   109    1
    87    65    66   ar
    88    65    67   ar
    89    71    70    1
    90    71    74    1
    91    62    70   am
    92    62    61    1
    93   109   110    1
    94    66    68   ar
    95    67    69   ar
    96    61    60    1
    97    68    69   ar
    98    74    75    1
    99    60    53   am
   100   110   111    1
   101   135   133    1
   102    77    75   ar
   103    77    79   ar
   104    75    76   ar
   105    53    54    2
   106    53    52    1
   107    79    80   ar
   108    76    78   ar
   109   134   132    1
   110   133   132    1
   111    47    46    2
   112    52    55    1
   113    52    51    1
   114   132   129    1
   115    80    78   ar
   116    80    81    1
   117    49    48    1
   118    55    56    1
   119    57    58    1
   120    57    56    1
   121    46    51   am
   122    46    45    1
   123    48    45    1
   124    48    50    1
   125    58    59    1
   126   129   130    1
   127   129   128    1
   128    45    44    1
   129   131   130    2
