@<TRIPOS>MOLECULE
tmp/5eesA00.pdb
 179 174 0 0 0
SMALL
GASTEIGER

@<TRIPOS>ATOM
      1  N         46.9760   16.4490    3.8020 N.3     7  LEU7       -0.1231
      2  CA        46.2910   16.2100    5.0810 C.3     7  LEU7        0.1693
      3  C         45.6750   17.5010    5.5010 C.2     7  LEU7        0.2592
      4  O         46.2980   18.5690    5.4120 O.2     7  LEU7       -0.2718
      5  CB        47.2680   15.8140    6.1760 C.3     7  LEU7        0.0284
      6  CG        47.7740   14.3870    6.1830 C.3     7  LEU7        0.0019
      7  CD1       47.8790   13.8770    4.7750 C.3     7  LEU7        0.0001
      8  CD2       49.1460   14.2560    6.8100 C.3     7  LEU7        0.0001
      9  N         44.4630   17.4090    5.9930 N.am    8  GLY8       -0.1957
     10  CA        43.6590   18.5920    6.2700 C.3     8  GLY8        0.1869
     11  C         43.0800   19.1500    4.9820 C.2     8  GLY8        0.2309
     12  O         42.6080   20.2480    4.9730 O.2     8  GLY8       -0.2863
     13  N         40.2870   19.3380    3.6280 N.3    10  LYS10      -0.1231
     14  CA        39.0430   20.1280    3.6770 C.3    10  LYS10       0.1693
     15  C         39.1200   21.3360    4.5700 C.2    10  LYS10       0.2593
     16  O         38.1200   22.0120    4.6940 O.2    10  LYS10      -0.2718
     17  CB        37.8240   19.3200    4.1710 C.3    10  LYS10       0.0285
     18  CG        37.7700   17.8470    3.8640 C.3    10  LYS10       0.0035
     19  CD        37.4470   17.5670    2.4110 C.3    10  LYS10       0.0206
     20  CE        37.6360   16.0740    2.1150 C.3    10  LYS10       0.1093
     21  NZ        38.3080   15.8520    0.8010 N.3    10  LYS10      -0.1314
     22  N         40.2500   21.6120    5.2290 N.am   11  GLY11      -0.1942
     23  CA        40.3430   22.7770    6.1040 C.3    11  GLY11       0.2014
     24  C         40.5160   24.0900    5.3520 C.2    11  GLY11       0.2639
     25  O         40.6430   24.1330    4.1150 O.2    11  GLY11      -0.2714
     26  N         40.5580   25.1740    6.1140 N.am   12  ARG12      -0.1963
     27  CA        40.6460   26.4890    5.5250 C.3    12  ARG12       0.1729
     28  C         41.8580   26.5330    4.6250 C.2    12  ARG12       0.2616
     29  O         41.7770   26.8580    3.4690 O.2    12  ARG12      -0.2715
     30  CB        40.7200   27.5680    6.6000 C.3    12  ARG12       0.0348
     31  CG        40.5780   29.0000    6.0610 C.3    12  ARG12       0.0492
     32  CD        40.7250   30.1320    7.0950 C.3    12  ARG12       0.2205
     33  NE        41.9320   29.8630    7.8830 N.pl3  12  ARG12      -0.0865
     34  CZ        43.1620   30.3980    7.7180 C.cat  12  ARG12       0.5346
     35  NH1       44.1580   29.9730    8.5300 N.pl3  12  ARG12       0.1354
     36  NH2       43.4240   31.3490    6.7860 N.pl3  12  ARG12       0.1354
     37  N         43.0000   26.1500    5.1320 N.am   13  VAL13      -0.1963
     38  CA        44.2110   26.2620    4.3170 C.3    13  VAL13       0.1727
     39  C         44.3500   25.0960    3.3790 C.2    13  VAL13       0.2616
     40  O         44.8120   25.2690    2.2510 O.2    13  VAL13      -0.2715
     41  CB        45.4650   26.3840    5.2120 C.3    13  VAL13       0.0290
     42  CG1       46.7270   26.4510    4.3590 C.3    13  VAL13       0.0023
     43  CG2       45.3460   27.6270    6.0970 C.3    13  VAL13       0.0023
     44  N         43.9910   23.8920    3.8320 N.am   14  GLY14      -0.1955
     45  CA        44.1590   22.7050    2.9890 C.3    14  GLY14       0.1869
     46  C         43.4720   22.7830    1.6160 C.2    14  GLY14       0.2309
     47  O         44.0340   22.3480    0.5770 O.2    14  GLY14      -0.2863
     48  N         43.3670   13.5160    2.4220 N.3    33  ILE33      -0.1231
     49  CA        43.0120   12.9650    3.7290 C.3    33  ILE33       0.1692
     50  C         42.4010   14.0470    4.6280 C.2    33  ILE33       0.2593
     51  O         43.0460   15.0150    5.0250 O.2    33  ILE33      -0.2718
     52  CB        44.2740   12.4460    4.4300 C.3    33  ILE33       0.0266
     53  CG1       45.1080   11.5560    3.5210 C.3    33  ILE33       0.0019
     54  CG2       43.9770   11.8020    5.7840 C.3    33  ILE33       0.0020
     55  CD1       44.3300   10.4610    2.8620 C.3    33  ILE33       0.0001
     56  N         41.1460   13.8580    4.9640 N.am   34  GLY34      -0.1942
     57  CA        40.5190   14.5570    6.0770 C.3    34  GLY34       0.2014
     58  C         40.5410   13.7330    7.3720 C.2    34  GLY34       0.2638
     59  O         41.2370   12.7020    7.5060 O.2    34  GLY34      -0.2714
     60  N         39.8040   14.2230    8.3500 N.am   35  VAL35      -0.1977
     61  CA        39.9240   13.7170    9.6860 C.3    35  VAL35       0.1596
     62  C         39.5760   12.2220    9.7920 C.2    35  VAL35       0.2287
     63  O         40.1830   11.5420   10.5980 O.2    35  VAL35      -0.2864
     64  CB        39.0890   14.5640   10.6870 C.3    35  VAL35       0.0276
     65  CG1       37.5950   14.5300   10.3360 C.3    35  VAL35       0.0022
     66  CG2       39.3620   14.1340   12.1300 C.3    35  VAL35       0.0022
     67  N         45.2440    7.0540    6.6270 N.3    39  LEU39      -0.1245
     68  CA        46.4680    7.4910    6.0180 C.3    39  LEU39       0.1561
     69  C         47.0740    6.4950    5.0680 C.2    39  LEU39       0.2260
     70  O         47.9390    6.8560    4.2500 O.2    39  LEU39      -0.2867
     71  CB        47.4940    7.8510    7.1160 C.3    39  LEU39       0.0270
     72  CG        47.5900    9.3640    7.4270 C.3    39  LEU39       0.0019
     73  CD1       46.3330    9.9830    8.0300 C.3    39  LEU39       0.0001
     74  CD2       48.7650    9.6000    8.3470 C.3    39  LEU39       0.0001
     75  N         48.2670   20.6320    6.8790 N.3    53  PHE53      -0.1227
     76  CA        47.6160   21.6960    7.6600 C.3    53  PHE53       0.1736
     77  C         46.4340   21.1090    8.4450 C.2    53  PHE53       0.2596
     78  O         45.2740   21.1050    7.9660 O.2    53  PHE53      -0.2718
     79  CB        47.1280   22.7440    6.7150 C.3    53  PHE53       0.0547
     80  CG        48.2240   23.5920    6.1400 C.ar   53  PHE53      -0.0202
     81  CD1       48.5930   24.7320    6.7830 C.ar   53  PHE53      -0.0042
     82  CD2       48.8600   23.2370    4.9490 C.ar   53  PHE53      -0.0042
     83  CE1       49.5810   25.5390    6.2610 C.ar   53  PHE53      -0.0003
     84  CE2       49.8540   24.0270    4.4390 C.ar   53  PHE53      -0.0003
     85  CZ        50.2120   25.1820    5.0990 C.ar   53  PHE53      -0.0000
     86  N         46.7330   20.6210    9.6480 N.am   54  THR54      -0.1939
     87  CA        45.7950   19.8580   10.4380 C.3    54  THR54       0.2028
     88  C         45.6650   20.4990   11.8070 C.2    54  THR54       0.2643
     89  O         45.1960   21.6170   11.8520 O.2    54  THR54      -0.2714
     90  CB        46.1420   18.3490   10.4780 C.3    54  THR54       0.1808
     91  OG1       47.4330   18.0690   11.0950 O.3    54  THR54      -0.2208
     92  CG2       46.0840   17.8050    9.0860 C.3    54  THR54       0.0379
     93  N         46.0630   19.8230   12.8970 N.am   55  THR55      -0.1937
     94  CA        46.0190   20.4060   14.2470 C.3    55  THR55       0.2013
     95  C         47.2370   19.9200   14.9450 C.2    55  THR55       0.2484
     96  O         47.8210   18.8920   14.5280 O.2    55  THR55      -0.2729
     97  CB        44.8220   19.9240   15.1230 C.3    55  THR55       0.1807
     98  OG1       45.0600   18.5630   15.5290 O.3    55  THR55      -0.2208
     99  CG2       43.4720   20.0010   14.3450 C.3    55  THR55       0.0379
    100  N         47.6040   20.6110   16.0170 N.am   56  PRO56      -0.2726
    101  CA        48.7380   20.1850   16.8280 C.3    56  PRO56       0.1402
    102  C         48.5360   18.8090   17.4450 C.2    56  PRO56       0.2269
    103  O         49.5160   18.1190   17.6820 O.2    56  PRO56      -0.2865
    104  CB        48.8000   21.2460   17.9150 C.3    56  PRO56       0.0296
    105  CG        48.1750   22.4800   17.2870 C.3    56  PRO56       0.0237
    106  CD        47.0970   21.9490   16.3990 C.3    56  PRO56       0.0939
    107  N         47.0370   16.1800   15.9940 N.3    58  ALA58      -0.1245
    108  CA        47.0990   15.1420   14.9400 C.3    58  ALA58       0.1562
    109  C         48.4410   14.9850   14.3070 C.2    58  ALA58       0.2260
    110  O         48.7840   13.9130   13.7350 O.2    58  ALA58      -0.2867
    111  CB        46.0790   15.4650   13.8410 C.3    58  ALA58       0.0290
    112  N         50.5430   11.6960   12.4140 N.3    62  ASN62      -0.1240
    113  CA        50.5650   11.6560   10.9560 C.3    62  ASN62       0.1653
    114  C         51.9660   11.7420   10.4200 C.2    62  ASN62       0.2266
    115  O         52.3300   11.0600    9.4870 O.2    62  ASN62      -0.2867
    116  CB        49.8190   12.8330   10.3090 C.3    62  ASN62       0.1155
    117  CG        48.3710   12.9220   10.7000 C.2    62  ASN62       0.2627
    118  OD1       47.7660   11.9260   11.0760 O.2    62  ASN62      -0.2716
    119  ND2       47.8020   14.1650   10.6170 N.am   62  ASN62      -0.0877
    120  N         52.7570   22.8410    7.6940 N.3    76  GLY76      -0.1210
    121  CA        52.3950   24.1750    8.1310 C.3    76  GLY76       0.1956
    122  C         51.7420   24.2050    9.4790 C.2    76  GLY76       0.2613
    123  O         51.7320   25.2350   10.1390 O.2    76  GLY76      -0.2717
    124  N         51.1980   23.0840    9.9150 N.am   77  THR77      -0.1938
    125  CA        50.6030   23.0030   11.2440 C.3    77  THR77       0.2028
    126  C         51.5110   23.5290   12.3410 C.2    77  THR77       0.2642
    127  O         52.7270   23.3290   12.2920 O.2    77  THR77      -0.2714
    128  CB        50.2270   21.5500   11.5300 C.3    77  THR77       0.1808
    129  OG1       49.3890   21.1220   10.4750 O.3    77  THR77      -0.2208
    130  CG2       49.4680   21.4070   12.8350 C.3    77  THR77       0.0379
    131  N         50.9190   24.2050   13.3240 N.am   78  THR78      -0.1950
    132  CA        51.6900   24.9530   14.3470 C.3    78  THR78       0.1897
    133  C         51.8210   24.0860   15.5750 C.2    78  THR78       0.2313
    134  O         51.3720   22.9250   15.5800 O.2    78  THR78      -0.2863
    135  CB        51.0100   26.2670   14.7340 C.3    78  THR78       0.1794
    136  OG1       49.6260   26.0310   14.9860 O.3    78  THR78      -0.2208
    137  CG2       51.1460   27.2670   13.5710 C.3    78  THR78       0.0378
    138  N         57.5200   24.8790    8.6860 N.3   103  ALA103     -0.1231
    139  CA        57.6230   26.2840    8.4170 C.3   103  ALA103      0.1679
    140  C         56.5580   26.9870    9.2590 C.2   103  ALA103      0.2434
    141  O         55.3670   26.8320    9.0500 O.2   103  ALA103     -0.2733
    142  CB        57.3970   26.5290    6.9600 C.3   103  ALA103      0.0304
    143  N         56.9840   27.7300   10.2610 N.am  104  PRO104     -0.2718
    144  CA        55.9890   28.4710   11.0390 C.3   104  PRO104      0.1535
    145  C         55.3420   29.5880   10.2280 C.2   104  PRO104      0.2599
    146  O         54.3120   30.0640   10.6010 O.2   104  PRO104     -0.2715
    147  CB        56.8070   29.0610   12.1840 C.3   104  PRO104      0.0310
    148  CG        58.2140   29.0020   11.7360 C.3   104  PRO104      0.0237
    149  CD        58.3720   27.9180   10.7310 C.3   104  PRO104      0.0939
    150  N         55.9290   29.9750    9.1020 N.am  105  ASN105     -0.1959
    151  CA        55.2930   30.9090    8.2120 C.3   105  ASN105      0.1819
    152  C         55.5410   30.5560    6.7550 C.2   105  ASN105      0.2621
    153  O         56.6830   30.5730    6.2950 O.2   105  ASN105     -0.2715
    154  CB        55.8540   32.2970    8.4930 C.3   105  ASN105      0.1195
    155  CG        55.0330   33.4210    7.8330 C.2   105  ASN105      0.2630
    156  OD1       54.3970   33.2380    6.8010 O.2   105  ASN105     -0.2716
    157  ND2       55.0730   34.6040    8.4410 N.am  105  ASN105     -0.0877
    158  N         54.4580   30.3630    6.0150 N.am  106  PHE106     -0.1974
    159  CA        54.4750   29.9710    4.6380 C.3   106  PHE106      0.1639
    160  C         54.1460   31.1260    3.6530 C.2   106  PHE106      0.2290
    161  O         54.1590   30.9160    2.4520 O.2   106  PHE106     -0.2864
    162  CB        53.5030   28.8070    4.4180 C.3   106  PHE106      0.0560
    163  CG        54.1580   27.4750    4.4730 C.ar  106  PHE106     -0.0200
    164  CD1       55.1760   27.1650    3.5810 C.ar  106  PHE106     -0.0042
    165  CD2       53.7730   26.5160    5.4020 C.ar  106  PHE106     -0.0042
    166  CE1       55.7880   25.9020    3.5830 C.ar  106  PHE106     -0.0003
    167  CE2       54.3780   25.2480    5.4150 C.ar  106  PHE106     -0.0003
    168  CZ        55.3670   24.9320    4.4990 C.ar  106  PHE106     -0.0000
    169  N         48.9450   31.0950    1.3290 N.3   220  PHE220     -0.1241
    170  CA        50.0580   30.2630    1.7130 C.3   220  PHE220      0.1605
    171  C         50.5130   29.3050    0.6540 C.2   220  PHE220      0.2264
    172  O         51.6200   28.7040    0.7650 O.2   220  PHE220     -0.2867
    173  CB        49.7170   29.5460    2.9890 C.3   220  PHE220      0.0534
    174  CG        49.3240   30.4610    4.0630 C.ar  220  PHE220     -0.0203
    175  CD1       50.2960   31.2920    4.6710 C.ar  220  PHE220     -0.0042
    176  CD2       48.0310   30.5730    4.4390 C.ar  220  PHE220     -0.0042
    177  CE1       49.9450   32.2020    5.6700 C.ar  220  PHE220     -0.0003
    178  CE2       47.6660   31.4680    5.4590 C.ar  220  PHE220     -0.0003
    179  CZ        48.6230   32.3120    6.0500 C.ar  220  PHE220     -0.0000
@<TRIPOS>BOND
     1    47    46    2
     2   171   172    2
     3   171   170    1
     4    21    20    1
     5   169   170    1
     6    46    45    1
     7   170   173    1
     8    20    19    1
     9    40    39    2
    10    19    18    1
    11    48    49    1
    12   161   160    2
    13    55    53    1
    14    45    44    1
    15   173   174    1
    16    39    44   am
    17    39    38    1
    18    29    28    2
    19    53    52    1
    20   164   166   ar
    21   164   163   ar
    22   166   168   ar
    23    13    14    1
    24   160   159    1
    25    14    17    1
    26    14    15    1
    27    49    52    1
    28    49    50    1
    29     1     2    1
    30    18    17    1
    31   174   176   ar
    32   174   175   ar
    33    25    24    2
    34    70    69    2
    35    38    37    1
    36    38    41    1
    37    42    41    1
    38   162   163    1
    39   162   159    1
    40    52    54    1
    41    84    82   ar
    42    84    85   ar
    43   176   178   ar
    44   163   165   ar
    45   168   167   ar
    46    15    16    2
    47    15    22   am
    48    28    37   am
    49    28    27    1
    50    50    56   am
    51    50    51    2
    52   159   158    1
    53   175   177   ar
    54     7     6    1
    55    82    80   ar
    56    56    57    1
    57    12    11    2
    58    11    10    1
    59    69    68    1
    60     2     3    1
    61     2     5    1
    62    85    83   ar
    63    41    43    1
    64    22    23    1
    65    24    23    1
    66    24    26   am
    67   165   167   ar
    68     4     3    2
    69   178   179   ar
    70     3     9   am
    71    27    26    1
    72    27    30    1
    73   177   179   ar
    74     9    10    1
    75   158   152   am
    76    68    67    1
    77    68    71    1
    78    31    30    1
    79    31    32    1
    80    57    58    1
    81    80    79    1
    82    80    81   ar
    83     5     6    1
    84     6     8    1
    85    83    81   ar
    86   153   152    2
    87    79    76    1
    88   152   151    1
    89    36    34    1
    90   156   155    2
    91    75    76    1
    92   142   139    1
    93    32    33    1
    94    71    72    1
    95    58    59    2
    96    58    60   am
    97    72    73    1
    98    72    74    1
    99    76    77    1
   100   120   121    1
   101    34    33    2
   102    34    35    1
   103   155   157   am
   104   155   154    1
   105    78    77    2
   106   121   122    1
   107   151   154    1
   108   151   150    1
   109    60    61    1
   110   139   138    1
   111   139   140    1
   112    77    86   am
   113   141   140    2
   114    92    90    1
   115   150   145   am
   116   140   143   am
   117   122   124   am
   118   122   123    2
   119   115   114    2
   120    86    87    1
   121    61    62    1
   122    61    64    1
   123    62    63    2
   124   124   125    1
   125   145   146    2
   126   145   144    1
   127   143   149    1
   128   143   144    1
   129   116   117    1
   130   116   113    1
   131    65    64    1
   132   114   113    1
   133    87    90    1
   134    87    88    1
   135   129   128    1
   136    90    91    1
   137   119   117   am
   138    64    66    1
   139   117   118    2
   140   149   148    1
   141   113   112    1
   142   144   147    1
   143   125   128    1
   144   125   126    1
   145   128   130    1
   146   148   147    1
   147    88    89    2
   148    88    93   am
   149   127   126    2
   150   126   131   am
   151    93    94    1
   152   131   132    1
   153   137   135    1
   154   110   109    2
   155   111   108    1
   156    94    95    1
   157    94    97    1
   158   109   108    1
   159    99    97    1
   160   132   135    1
   161   132   133    1
   162    96    95    2
   163   135   136    1
   164   108   107    1
   165    95   100   am
   166    97    98    1
   167   133   134    2
   168   100   106    1
   169   100   101    1
   170   106   105    1
   171   101   102    1
   172   101   104    1
   173   105   104    1
   174   102   103    2
