@<TRIPOS>MOLECULE
tmp/5ef7A00.pdb
 117 113 0 0 0
SMALL
GASTEIGER

@<TRIPOS>ATOM
      1  N         -9.9050   25.7630   27.6030 N.3    90  ASN90      -0.1225
      2  CA        -9.8710   24.3920   28.0790 C.3    90  ASN90       0.1785
      3  C         -8.9810   23.5670   27.1460 C.2    90  ASN90       0.2597
      4  O         -9.3100   23.3780   25.9670 O.2    90  ASN90      -0.2718
      5  CB       -11.3080   23.8400   28.1680 C.3    90  ASN90       0.1169
      6  CG       -11.3760   22.3950   28.6380 C.2    90  ASN90       0.2627
      7  OD1      -10.3650   21.7510   28.8840 O.2    90  ASN90      -0.2716
      8  ND2      -12.5940   21.8820   28.7670 N.am   90  ASN90      -0.0877
      9  N         -7.8380   23.1190   27.6710 N.am   91  SER91      -0.1952
     10  CA        -6.9330   22.2170   26.9490 C.3    91  SER91       0.1924
     11  C         -6.3930   22.7860   25.6270 C.2    91  SER91       0.2314
     12  O         -6.6170   22.2080   24.5640 O.2    91  SER91      -0.2863
     13  CB        -7.6340   20.8820   26.6670 C.3    91  SER91       0.2116
     14  OG        -7.8420   20.1540   27.8660 O.3    91  SER91      -0.2180
     15  N         -6.3030   19.9420   14.9020 N.3   131  PRO131     -0.2116
     16  CA        -7.6640   19.4530   14.6730 C.3   131  PRO131      0.1372
     17  C         -8.7050   20.5450   14.8700 C.2   131  PRO131      0.2244
     18  O         -8.3430   21.6570   15.2670 O.2   131  PRO131     -0.2868
     19  CB        -7.8160   18.3470   15.7220 C.3   131  PRO131      0.0268
     20  CG        -6.9130   18.7650   16.8250 C.3   131  PRO131      0.0207
     21  CD        -5.7070   19.3480   16.1130 C.3   131  PRO131      0.0892
     22  N        -12.7170   19.7800   15.6010 N.3   133  HIS133     -0.1226
     23  CA       -14.1160   19.5420   15.9890 C.3   133  HIS133      0.1752
     24  C        -14.5380   19.9890   17.4040 C.2   133  HIS133      0.2596
     25  O        -15.7480   20.0900   17.6500 O.2   133  HIS133     -0.2718
     26  CB       -14.4940   18.0570   15.8000 C.3   133  HIS133      0.0759
     27  CG       -13.8240   17.1100   16.7470 C.ar  133  HIS133      0.0818
     28  ND1      -14.4220   15.9410   17.1650 N.ar  133  HIS133     -0.2268
     29  CD2      -12.5980   17.1350   17.3280 C.ar  133  HIS133      0.1154
     30  CE1      -13.6060   15.3010   17.9860 C.ar  133  HIS133      0.1986
     31  NE2      -12.4950   16.0040   18.1030 N.ar  133  HIS133     -0.2212
     32  N        -13.5920   20.2550   18.3180 N.am  134  HIS134     -0.1975
     33  CA       -13.9540   20.8280   19.6340 C.3   134  HIS134      0.1656
     34  C        -14.0760   22.3480   19.5790 C.2   134  HIS134      0.2291
     35  O        -14.5100   22.9690   20.5460 O.2   134  HIS134     -0.2864
     36  CB       -12.9300   20.4810   20.7340 C.3   134  HIS134      0.0771
     37  CG       -12.7920   19.0150   21.0130 C.ar  134  HIS134      0.0820
     38  ND1      -13.8430   18.2380   21.4530 N.ar  134  HIS134     -0.2267
     39  CD2      -11.7210   18.1870   20.9190 C.ar  134  HIS134      0.1154
     40  CE1      -13.4270   16.9920   21.6100 C.ar  134  HIS134      0.1986
     41  NE2      -12.1460   16.9340   21.2880 N.ar  134  HIS134     -0.2212
     42  N         -9.7220   21.9700   23.3840 N.3   142  GLY142     -0.1210
     43  CA        -9.2360   20.6280   23.1230 C.3   142  GLY142      0.1956
     44  C         -8.3540   20.4740   21.9010 C.2   142  GLY142      0.2611
     45  O         -8.6280   19.6250   21.0700 O.2   142  GLY142     -0.2717
     46  N         -7.3070   21.3020   21.8200 N.am  143  PHE143     -0.1976
     47  CA        -6.3040   21.2970   20.7460 C.3   143  PHE143      0.1639
     48  C         -6.8420   21.8700   19.4400 C.2   143  PHE143      0.2290
     49  O         -6.1270   21.8820   18.4410 O.2   143  PHE143     -0.2864
     50  CB        -5.7470   19.8770   20.4720 C.3   143  PHE143      0.0560
     51  CG        -5.3920   19.0980   21.7130 C.ar  143  PHE143     -0.0200
     52  CD1       -5.0000   19.7400   22.8740 C.ar  143  PHE143     -0.0042
     53  CD2       -5.4440   17.7080   21.7070 C.ar  143  PHE143     -0.0042
     54  CE1       -4.6740   19.0130   24.0250 C.ar  143  PHE143     -0.0003
     55  CE2       -5.1120   16.9750   22.8540 C.ar  143  PHE143     -0.0003
     56  CZ        -4.7270   17.6300   24.0120 C.ar  143  PHE143     -0.0000
     57  N        -13.9330   10.2020   15.6010 N.3   172  ASP172     -0.1239
     58  CA       -13.0220   10.5420   16.6890 C.3   172  ASP172      0.1674
     59  C        -13.6260   10.0450   18.0200 C.2   172  ASP172      0.2266
     60  O        -14.8460   10.0620   18.2040 O.2   172  ASP172     -0.2867
     61  CB       -12.7820   12.0580   16.7100 C.3   172  ASP172      0.1410
     62  CG       -11.7370   12.4810   17.7370 C.2   172  ASP172      0.3668
     63  OD1      -12.0250   12.4190   18.9650 O.co2 172  ASP172     -0.2456
     64  OD2      -10.6330   12.8960   17.3050 O.co2 172  ASP172     -0.2456
     65  N        -13.7340   11.3300   20.8630 N.3   174  HIS174     -0.1241
     66  CA       -14.3980   12.3830   21.6320 C.3   174  HIS174      0.1621
     67  C        -15.5960   12.9600   20.8650 C.2   174  HIS174      0.2264
     68  O        -15.6200   12.9440   19.6330 O.2   174  HIS174     -0.2867
     69  CB       -13.4130   13.5030   21.9780 C.3   174  HIS174      0.0745
     70  CG       -12.2020   13.0420   22.7330 C.ar  174  HIS174      0.0817
     71  ND1      -11.0180   12.6980   22.1110 N.ar  174  HIS174     -0.2268
     72  CD2      -11.9910   12.8720   24.0600 C.ar  174  HIS174      0.1154
     73  CE1      -10.1300   12.3410   23.0250 C.ar  174  HIS174      0.1986
     74  NE2      -10.6950   12.4420   24.2150 N.ar  174  HIS174     -0.2212
     75  N        -13.8750   13.5120   28.4640 N.3   203  PHE203     -0.1241
     76  CA       -13.7390   14.7780   27.7170 C.3   203  PHE203      0.1605
     77  C        -14.6290   14.8040   26.4490 C.2   203  PHE203      0.2264
     78  O        -14.6790   13.8180   25.6930 O.2   203  PHE203     -0.2867
     79  CB       -12.2690   15.0510   27.3210 C.3   203  PHE203      0.0534
     80  CG       -12.0530   16.4300   26.7620 C.ar  203  PHE203     -0.0203
     81  CD1      -11.8030   17.5020   27.6100 C.ar  203  PHE203     -0.0042
     82  CD2      -12.1510   16.6700   25.3930 C.ar  203  PHE203     -0.0042
     83  CE1      -11.6370   18.7820   27.1120 C.ar  203  PHE203     -0.0003
     84  CE2      -11.9880   17.9500   24.8810 C.ar  203  PHE203     -0.0003
     85  CZ       -11.7330   19.0120   25.7440 C.ar  203  PHE203     -0.0000
     86  N         -8.1720    8.2900   17.4790 N.3   265  ASP265     -0.1239
     87  CA        -7.9230    8.0480   18.9030 C.3   265  ASP265      0.1674
     88  C         -8.8680    6.9940   19.5030 C.2   265  ASP265      0.2266
     89  O         -8.7350    6.6600   20.6730 O.2   265  ASP265     -0.2867
     90  CB        -8.0080    9.3510   19.7130 C.3   265  ASP265      0.1410
     91  CG        -9.1850   10.2380   19.3180 C.2   265  ASP265      0.3668
     92  OD1      -10.0690    9.7990   18.5450 O.co2 265  ASP265     -0.2456
     93  OD2       -9.2230   11.3900   19.8090 O.co2 265  ASP265     -0.2456
     94  N         -5.1020    7.8540   24.9110 N.3   272  LEU272     -0.1245
     95  CA        -6.1300    8.8470   25.2230 C.3   272  LEU272      0.1561
     96  C         -7.5580    8.3390   24.9820 C.2   272  LEU272      0.2260
     97  O         -8.4940    8.8320   25.6070 O.2   272  LEU272     -0.2867
     98  CB        -5.9000   10.1330   24.4200 C.3   272  LEU272      0.0270
     99  CG        -4.9240   11.1440   25.0350 C.3   272  LEU272      0.0019
    100  CD1       -3.4680   10.6640   24.9470 C.3   272  LEU272      0.0001
    101  CD2       -5.0790   12.5240   24.4120 C.3   272  LEU272      0.0001
    102  N         -8.1700   13.9260   15.7910 N.3   303  GLY303     -0.1225
    103  CA        -7.2390   13.4470   16.8120 C.3   303  GLY303      0.1811
    104  C         -6.6430   12.0820   16.4890 C.2   303  GLY303      0.2280
    105  O         -6.7500   11.6130   15.3630 O.2   303  GLY303     -0.2866
    106  N         -3.3070    9.6360   18.5630 N.3   305  TYR305     -0.1241
    107  CA        -2.0190   10.0500   19.1560 C.3   305  TYR305      0.1605
    108  C         -0.9250    8.9980   19.1400 C.2   305  TYR305      0.2264
    109  O          0.2490    9.3160   19.3290 O.2   305  TYR305     -0.2867
    110  CB        -2.2700   10.5680   20.5820 C.3   305  TYR305      0.0534
    111  CG        -3.3230   11.6310   20.5090 C.ar  305  TYR305     -0.0201
    112  CD1       -2.9990   12.9020   20.0670 C.ar  305  TYR305     -0.0009
    113  CD2       -4.6640   11.3370   20.7640 C.ar  305  TYR305     -0.0009
    114  CE1       -3.9570   13.8760   19.9260 C.ar  305  TYR305      0.0417
    115  CE2       -5.6420   12.3140   20.6260 C.ar  305  TYR305      0.0417
    116  CZ        -5.2730   13.5810   20.2140 C.ar  305  TYR305      0.1957
    117  OH        -6.2040   14.5720   20.0590 O.3   305  TYR305     -0.2866
@<TRIPOS>BOND
     1    16    17    1
     2    16    15    1
     3    16    19    1
     4    17    18    2
     5    15    21    1
     6   105   104    2
     7    22    23    1
     8    57    58    1
     9    19    20    1
    10   102   103    1
    11    26    23    1
    12    26    27    1
    13    23    24    1
    14    21    20    1
    15   104   103    1
    16    58    61    1
    17    58    59    1
    18    61    62    1
    19    27    28   ar
    20    27    29   ar
    21    28    30   ar
    22    64    62   ar
    23    29    31   ar
    24    24    25    2
    25    24    32   am
    26    86    87    1
    27    62    63   ar
    28    30    31   ar
    29    59    60    2
    30    32    33    1
    31    49    48    2
    32    92    91   ar
    33   106   107    1
    34    87    88    1
    35    87    90    1
    36   108   107    1
    37   108   109    2
    38   107   110    1
    39    91    90    1
    40    91    93   ar
    41    48    47    1
    42    88    89    2
    43    34    33    1
    44    34    35    2
    45    68    67    2
    46    33    36    1
    47   114   112   ar
    48   114   116   ar
    49   117   116    1
    50   112   111   ar
    51   116   115   ar
    52    50    47    1
    53    50    51    1
    54   111   110    1
    55   111   113   ar
    56   115   113   ar
    57    36    37    1
    58    47    46    1
    59    65    66    1
    60    67    66    1
    61    39    37   ar
    62    39    41   ar
    63    37    38   ar
    64    45    44    2
    65    41    40   ar
    66    38    40   ar
    67    66    69    1
    68    53    51   ar
    69    53    55   ar
    70    51    52   ar
    71    46    44   am
    72    44    43    1
    73    69    70    1
    74    71    70   ar
    75    71    73   ar
    76    70    72   ar
    77    55    56   ar
    78    52    54   ar
    79    73    74   ar
    80    43    42    1
    81    56    54   ar
    82    72    74   ar
    83   101    99    1
    84    98    99    1
    85    98    95    1
    86    12    11    2
    87    84    82   ar
    88    84    85   ar
    89    94    95    1
    90   100    99    1
    91    96    95    1
    92    96    97    2
    93    82    80   ar
    94    11    10    1
    95    78    77    2
    96    85    83   ar
    97     4     3    2
    98    77    76    1
    99    13    10    1
   100    13    14    1
   101    80    79    1
   102    80    81   ar
   103    10     9    1
   104    83    81   ar
   105     3     9   am
   106     3     2    1
   107    79    76    1
   108     1     2    1
   109    76    75    1
   110     2     5    1
   111     5     6    1
   112     6     8   am
   113     6     7    2
