@<TRIPOS>MOLECULE
tmp/5ef8A00.pdb
 169 165 0 0 0
SMALL
GASTEIGER

@<TRIPOS>ATOM
      1  N         -7.2410   11.1390  -46.1030 N.3    16  ASN16      -0.1240
      2  CA        -6.0570   11.9050  -45.7270 C.3    16  ASN16       0.1653
      3  C         -4.9800   11.0030  -45.1270 C.2    16  ASN16       0.2266
      4  O         -5.1220   10.5050  -44.0100 O.2    16  ASN16      -0.2867
      5  CB        -6.4420   13.0130  -44.7420 C.3    16  ASN16       0.1155
      6  CG        -5.3320   14.0320  -44.5330 C.2    16  ASN16       0.2627
      7  OD1       -4.1670   13.6780  -44.3560 O.2    16  ASN16      -0.2716
      8  ND2       -5.6960   15.3090  -44.5510 N.am   16  ASN16      -0.0877
      9  N         -3.2020   12.9370  -41.9580 N.3    19  ASP19      -0.1239
     10  CA        -4.0570   13.2040  -40.8100 C.3    19  ASP19       0.1674
     11  C         -5.3740   12.4590  -40.9660 C.2    19  ASP19       0.2266
     12  O         -6.3200   12.9680  -41.5660 O.2    19  ASP19      -0.2867
     13  CB        -4.3060   14.7030  -40.6440 C.3    19  ASP19       0.1410
     14  CG        -5.0940   15.0240  -39.3890 C.2    19  ASP19       0.3668
     15  OD1       -5.1720   14.1590  -38.4910 O.co2  19  ASP19      -0.2456
     16  OD2       -5.6300   16.1460  -39.2950 O.co2  19  ASP19      -0.2456
     17  N         -7.5660   11.9970  -38.9840 N.3    21  HIS21      -0.1226
     18  CA        -8.6210   12.6040  -38.1840 C.3    21  HIS21       0.1752
     19  C         -9.1140   13.9060  -38.8080 C.2    21  HIS21       0.2596
     20  O         -9.7860   14.7040  -38.1540 O.2    21  HIS21      -0.2718
     21  CB        -8.1310   12.8500  -36.7570 C.3    21  HIS21       0.0759
     22  CG        -7.8710   11.5940  -35.9870 C.ar   21  HIS21       0.0818
     23  ND1       -6.7750   11.4360  -35.1660 N.ar   21  HIS21      -0.2268
     24  CD2       -8.5680   10.4350  -35.9120 C.ar   21  HIS21       0.1154
     25  CE1       -6.8070   10.2340  -34.6200 C.ar   21  HIS21       0.1986
     26  NE2       -7.8850    9.6060  -35.0550 N.ar   21  HIS21      -0.2212
     27  N         -8.7740   14.1150  -40.0760 N.am   22  HIS22      -0.1962
     28  CA        -9.2520   15.2740  -40.8190 C.3    22  HIS22       0.1772
     29  C        -10.7710   15.2060  -40.9580 C.2    22  HIS22       0.2462
     30  O        -11.3130   14.1560  -41.2940 O.2    22  HIS22      -0.2730
     31  CB        -8.5850   15.3400  -42.1950 C.3    22  HIS22       0.0785
     32  CG        -8.9070   16.5820  -42.9660 C.ar   22  HIS22       0.0821
     33  ND1      -10.1230   16.7790  -43.5850 N.ar   22  HIS22      -0.2267
     34  CD2       -8.1710   17.6890  -43.2220 C.ar   22  HIS22       0.1154
     35  CE1      -10.1230   17.9550  -44.1860 C.ar   22  HIS22       0.1986
     36  NE2       -8.9500   18.5280  -43.9810 N.ar   22  HIS22      -0.2212
     37  N        -11.4600   16.3290  -40.6970 N.am   23  PRO23      -0.2727
     38  CA       -12.9270   16.4250  -40.6830 C.3    23  PRO23       0.1402
     39  C        -13.6180   15.8400  -41.9180 C.2    23  PRO23       0.2269
     40  O        -14.6760   15.2290  -41.7790 O.2    23  PRO23      -0.2865
     41  CB       -13.1800   17.9380  -40.5930 C.3    23  PRO23       0.0296
     42  CG       -11.8560   18.5900  -40.8930 C.3    23  PRO23       0.0237
     43  CD       -10.8330   17.6270  -40.4050 C.3    23  PRO23       0.0939
     44  N         -5.2450   25.4700  -51.6150 N.3    89  ASN89      -0.1225
     45  CA        -5.7520   25.8730  -50.3120 C.3    89  ASN89       0.1785
     46  C         -6.6300   24.7820  -49.7040 C.2    89  ASN89       0.2597
     47  O         -7.7080   24.4820  -50.2230 O.2    89  ASN89      -0.2718
     48  CB        -6.5370   27.1820  -50.4300 C.3    89  ASN89       0.1169
     49  CG        -6.8560   27.8030  -49.0800 C.2    89  ASN89       0.2627
     50  OD1       -7.1610   27.1070  -48.1100 O.2    89  ASN89      -0.2716
     51  ND2       -6.7870   29.1260  -49.0130 N.am   89  ASN89      -0.0877
     52  N         -6.1520   24.1960  -48.6090 N.am   90  SER90      -0.1952
     53  CA        -6.9060   23.2030  -47.8440 C.3    90  SER90       0.1924
     54  C         -7.2860   21.9790  -48.6770 C.2    90  SER90       0.2314
     55  O         -8.4630   21.6420  -48.8040 O.2    90  SER90      -0.2863
     56  CB        -8.1630   23.8410  -47.2500 C.3    90  SER90       0.2116
     57  OG        -7.8440   25.0530  -46.5900 O.3    90  SER90      -0.2180
     58  N        -16.5820   17.1110  -51.6270 N.3   130  PRO130     -0.2116
     59  CA       -17.4460   18.2290  -52.0400 C.3   130  PRO130      0.1372
     60  C        -16.9500   18.9500  -53.2960 C.2   130  PRO130      0.2244
     61  O        -15.9550   18.5330  -53.8920 O.2   130  PRO130     -0.2868
     62  CB       -17.4120   19.1650  -50.8270 C.3   130  PRO130      0.0268
     63  CG       -16.1720   18.7890  -50.0850 C.3   130  PRO130      0.0207
     64  CD       -16.0410   17.3160  -50.2730 C.3   130  PRO130      0.0892
     65  N        -18.2310   22.8280  -54.2000 N.3   132  HIS132     -0.1226
     66  CA       -18.5780   24.2340  -54.4210 C.3   132  HIS132      0.1752
     67  C        -17.4110   25.2080  -54.2120 C.2   132  HIS132      0.2596
     68  O        -17.4930   26.3670  -54.6150 O.2   132  HIS132     -0.2718
     69  CB       -19.7660   24.6440  -53.5370 C.3   132  HIS132      0.0759
     70  CG       -19.4600   24.6940  -52.0720 C.ar  132  HIS132      0.0818
     71  ND1      -20.1370   25.5210  -51.2030 N.ar  132  HIS132     -0.2268
     72  CD2      -18.5640   24.0100  -51.3200 C.ar  132  HIS132      0.1154
     73  CE1      -19.6670   25.3520  -49.9800 C.ar  132  HIS132      0.1986
     74  NE2      -18.7130   24.4410  -50.0230 N.ar  132  HIS132     -0.2212
     75  N        -16.3260   24.7440  -53.6000 N.am  133  HIS133     -0.1975
     76  CA       -15.1320   25.5760  -53.4570 C.3   133  HIS133      0.1656
     77  C        -14.2240   25.4590  -54.6760 C.2   133  HIS133      0.2291
     78  O        -13.3500   26.3010  -54.8940 O.2   133  HIS133     -0.2864
     79  CB       -14.3480   25.1990  -52.2000 C.3   133  HIS133      0.0771
     80  CG       -14.9450   25.7190  -50.9320 C.ar  133  HIS133      0.0820
     81  ND1      -15.5570   26.9510  -50.8470 N.ar  133  HIS133     -0.2267
     82  CD2      -15.0210   25.1740  -49.6950 C.ar  133  HIS133      0.1154
     83  CE1      -15.9850   27.1420  -49.6110 C.ar  133  HIS133      0.1986
     84  NE2      -15.6720   26.0780  -48.8930 N.ar  133  HIS133     -0.2212
     85  N        -10.6350   24.0760  -50.6010 N.3   141  GLY141     -0.1210
     86  CA       -11.6030   23.7490  -49.5660 C.3   141  GLY141      0.1956
     87  C        -12.1890   22.3520  -49.6310 C.2   141  GLY141      0.2611
     88  O        -13.4100   22.1890  -49.6450 O.2   141  GLY141     -0.2717
     89  N        -11.3100   21.3540  -49.6840 N.am  142  PHE142     -0.1976
     90  CA       -11.6780   19.9330  -49.7330 C.3   142  PHE142      0.1639
     91  C        -12.3510   19.5600  -51.0560 C.2   142  PHE142      0.2290
     92  O        -12.8990   18.4650  -51.1890 O.2   142  PHE142     -0.2864
     93  CB       -12.6060   19.5450  -48.5670 C.3   142  PHE142      0.0560
     94  CG       -12.1890   20.0950  -47.2240 C.ar  142  PHE142     -0.0200
     95  CD1      -10.8560   20.3430  -46.9280 C.ar  142  PHE142     -0.0042
     96  CD2      -13.1420   20.3530  -46.2520 C.ar  142  PHE142     -0.0042
     97  CE1      -10.4870   20.8500  -45.6950 C.ar  142  PHE142     -0.0003
     98  CE2      -12.7780   20.8540  -45.0140 C.ar  142  PHE142     -0.0003
     99  CZ       -11.4480   21.1030  -44.7360 C.ar  142  PHE142     -0.0000
    100  N        -24.7100   25.4430  -47.5670 N.3   171  ASP171     -0.1239
    101  CA       -23.4810   25.1360  -46.8480 C.3   171  ASP171      0.1674
    102  C        -23.0520   26.4020  -46.1100 C.2   171  ASP171      0.2266
    103  O        -23.2270   27.5030  -46.6260 O.2   171  ASP171     -0.2867
    104  CB       -22.3930   24.6620  -47.8150 C.3   171  ASP171      0.1410
    105  CG       -21.1050   24.2850  -47.1110 C.2   171  ASP171      0.3668
    106  OD1      -20.2990   25.1920  -46.8130 O.co2 171  ASP171     -0.2456
    107  OD2      -20.8930   23.0790  -46.8670 O.co2 171  ASP171     -0.2456
    108  N        -20.3220   27.7000  -45.6200 N.3   173  HIS173     -0.1241
    109  CA       -19.2740   28.4230  -46.3290 C.3   173  HIS173      0.1621
    110  C        -19.7760   28.9210  -47.6840 C.2   173  HIS173      0.2264
    111  O        -20.6750   28.3280  -48.2770 O.2   173  HIS173     -0.2867
    112  CB       -18.0410   27.5360  -46.5240 C.3   173  HIS173      0.0745
    113  CG       -17.4780   26.9860  -45.2490 C.ar  173  HIS173      0.0817
    114  ND1      -17.9190   25.8080  -44.6860 N.ar  173  HIS173     -0.2268
    115  CD2      -16.5050   27.4500  -44.4300 C.ar  173  HIS173      0.1154
    116  CE1      -17.2430   25.5700  -43.5760 C.ar  173  HIS173      0.1986
    117  NE2      -16.3800   26.5530  -43.3970 N.ar  173  HIS173     -0.2212
    118  N        -13.8290   31.4080  -43.7190 N.3   202  PHE202     -0.1241
    119  CA       -13.5090   30.7180  -44.9690 C.3   202  PHE202      0.1605
    120  C        -14.6430   30.8410  -45.9900 C.2   202  PHE202      0.2264
    121  O        -15.8150   30.7170  -45.6320 O.2   202  PHE202     -0.2867
    122  CB       -13.2010   29.2420  -44.6930 C.3   202  PHE202      0.0534
    123  CG       -12.4980   28.5460  -45.8240 C.ar  202  PHE202     -0.0203
    124  CD1      -13.2100   27.7920  -46.7430 C.ar  202  PHE202     -0.0042
    125  CD2      -11.1270   28.6600  -45.9770 C.ar  202  PHE202     -0.0042
    126  CE1      -12.5640   27.1590  -47.7900 C.ar  202  PHE202     -0.0003
    127  CE2      -10.4770   28.0300  -47.0220 C.ar  202  PHE202     -0.0003
    128  CZ       -11.1970   27.2770  -47.9290 C.ar  202  PHE202     -0.0000
    129  N        -22.8600   21.9740  -42.4280 N.3   264  ASP264     -0.1239
    130  CA       -21.9530   22.5070  -41.4220 C.3   264  ASP264      0.1674
    131  C        -22.5410   23.7490  -40.7620 C.2   264  ASP264      0.2266
    132  O        -21.9740   24.2850  -39.8150 O.2   264  ASP264     -0.2867
    133  CB       -20.5890   22.8220  -42.0370 C.3   264  ASP264      0.1410
    134  CG       -20.6880   23.2700  -43.4800 C.2   264  ASP264      0.3668
    135  OD1      -21.8130   23.5420  -43.9510 O.co2 264  ASP264     -0.2456
    136  OD2      -19.6340   23.3550  -44.1420 O.co2 264  ASP264     -0.2456
    137  N        -17.1650   23.1360  -37.1000 N.3   271  LEU271     -0.1245
    138  CA       -16.5750   24.1430  -37.9750 C.3   271  LEU271      0.1561
    139  C        -17.4830   25.3540  -38.1940 C.2   271  LEU271      0.2260
    140  O        -17.0510   26.4970  -38.0440 O.2   271  LEU271     -0.2867
    141  CB       -16.2110   23.5160  -39.3230 C.3   271  LEU271      0.0270
    142  CG       -14.7610   23.0520  -39.5010 C.3   271  LEU271      0.0019
    143  CD1      -14.2780   22.2430  -38.3050 C.3   271  LEU271      0.0001
    144  CD2      -14.6120   22.2480  -40.7840 C.3   271  LEU271      0.0001
    145  N        -22.4600   18.6540  -49.6590 N.3   301  GLU301     -0.1231
    146  CA       -21.2160   19.4130  -49.6930 C.3   301  GLU301      0.1699
    147  C        -20.4400   19.1880  -48.3980 C.2   301  GLU301      0.2592
    148  O        -19.8400   18.1310  -48.2000 O.2   301  GLU301     -0.2718
    149  CB       -21.4890   20.9060  -49.8980 C.3   301  GLU301      0.0402
    150  CG       -22.1970   21.2540  -51.2040 C.3   301  GLU301      0.1161
    151  CD       -21.2590   21.3070  -52.3980 C.2   301  GLU301      0.3649
    152  OE1      -21.6830   21.7980  -53.4650 O.co2 301  GLU301     -0.2457
    153  OE2      -20.1000   20.8620  -52.2740 O.co2 301  GLU301     -0.2457
    154  N        -20.4660   20.1810  -47.5140 N.am  302  GLY302     -0.1957
    155  CA       -19.7860   20.0840  -46.2350 C.3   302  GLY302      0.1869
    156  C        -20.6470   19.4710  -45.1450 C.2   302  GLY302      0.2309
    157  O        -21.7200   18.9320  -45.4150 O.2   302  GLY302     -0.2863
    158  N        -19.6180   18.1720  -40.8400 N.3   304  TYR304     -0.1241
    159  CA       -18.5360   17.4220  -40.2050 C.3   304  TYR304      0.1605
    160  C        -18.8880   16.8490  -38.8330 C.2   304  TYR304      0.2264
    161  O        -18.0340   16.2780  -38.1540 O.2   304  TYR304     -0.2867
    162  CB       -17.3010   18.3160  -40.1060 C.3   304  TYR304      0.0534
    163  CG       -16.9670   18.9480  -41.4340 C.ar  304  TYR304     -0.0201
    164  CD1      -16.2520   18.2470  -42.3950 C.ar  304  TYR304     -0.0009
    165  CD2      -17.4020   20.2310  -41.7430 C.ar  304  TYR304     -0.0009
    166  CE1      -15.9600   18.8120  -43.6190 C.ar  304  TYR304      0.0417
    167  CE2      -17.1160   20.8070  -42.9650 C.ar  304  TYR304      0.0417
    168  CZ       -16.3950   20.0930  -43.8980 C.ar  304  TYR304      0.1957
    169  OH       -16.1060   20.6620  -45.1160 O.3   304  TYR304     -0.2866
@<TRIPOS>BOND
     1    78    77    2
     2    77    76    1
     3    68    67    2
     4    66    67    1
     5    66    65    1
     6    66    69    1
     7    67    75   am
     8    61    60    2
     9    75    76    1
    10    69    70    1
    11   152   151   ar
    12    76    79    1
    13    60    59    1
    14   151   153   ar
    15   151   150    1
    16    79    80    1
    17    70    72   ar
    18    70    71   ar
    19    59    58    1
    20    59    62    1
    21    58    64    1
    22    44    45    1
    23    72    74   ar
    24   150   149    1
    25    71    73   ar
    26    92    91    2
    27    91    90    1
    28    80    81   ar
    29    80    82   ar
    30    81    83   ar
    31    62    63    1
    32    85    86    1
    33    48    45    1
    34    48    49    1
    35    45    46    1
    36    64    63    1
    37    47    46    2
    38    74    73   ar
    39   149   146    1
    40    90    89    1
    41    90    93    1
    42    46    52   am
    43    82    84   ar
    44   146   145    1
    45   146   147    1
    46    89    87   am
    47    88    87    2
    48    87    86    1
    49    83    84   ar
    50    49    51   am
    51    49    50    2
    52    55    54    2
    53    54    53    1
    54    52    53    1
    55    93    94    1
    56   147   148    2
    57   147   154   am
    58   111   110    2
    59   128   126   ar
    60   128   127   ar
    61    53    56    1
    62   104   105    1
    63   104   101    1
    64   126   124   ar
    65   110   109    1
    66   100   101    1
    67   154   155    1
    68    56    57    1
    69    94    95   ar
    70    94    96   ar
    71   105   107   ar
    72   105   106   ar
    73   127   125   ar
    74    95    97   ar
    75   101   102    1
    76   124   123   ar
    77   103   102    2
    78   112   109    1
    79   112   113    1
    80   109   108    1
    81    96    98   ar
    82   155   156    1
    83     1     2    1
    84   120   121    2
    85   120   119    1
    86   125   123   ar
    87   123   122    1
    88     2     3    1
    89     2     5    1
    90    97    99   ar
    91   157   156    2
    92   113   114   ar
    93   113   115   ar
    94     3     4    2
    95   169   168    1
    96    98    99   ar
    97   119   122    1
    98   119   118    1
    99     5     6    1
   100   114   116   ar
   101     8     6   am
   102     6     7    2
   103   115   117   ar
   104    35    36   ar
   105    35    33   ar
   106   136   134   ar
   107    36    34   ar
   108   135   134   ar
   109   168   166   ar
   110   168   167   ar
   111   166   164   ar
   112    33    32   ar
   113   116   117   ar
   114   134   133    1
   115    34    32   ar
   116    32    31    1
   117   167   165   ar
   118   129   130    1
   119   164   163   ar
   120    31    28    1
   121   133   130    1
   122     9    10    1
   123    39    40    2
   124    39    38    1
   125   165   163   ar
   126    12    11    2
   127   163   162    1
   128   130   131    1
   129    30    29    2
   130    11    10    1
   131    29    28    1
   132    29    37   am
   133    42    41    1
   134    42    43    1
   135   158   159    1
   136    28    27    1
   137    10    13    1
   138   144   142    1
   139   131   132    2
   140    37    38    1
   141    37    43    1
   142    38    41    1
   143    13    14    1
   144   159   162    1
   145   159   160    1
   146    27    19   am
   147   142   141    1
   148   142   143    1
   149    14    16   ar
   150    14    15   ar
   151   141   138    1
   152    17    18    1
   153   160   161    2
   154    19    18    1
   155    19    20    2
   156   139   140    2
   157   139   138    1
   158    18    21    1
   159   138   137    1
   160    21    22    1
   161    22    24   ar
   162    22    23   ar
   163    24    26   ar
   164    23    25   ar
   165    26    25   ar
