@<TRIPOS>MOLECULE
tmp/5efbA00.pdb
 148 144 0 0 0
SMALL
GASTEIGER

@<TRIPOS>ATOM
      1  N         83.3790    9.7050    9.7180 N.3    19  ASP19      -0.1239
      2  CA        82.7670   11.0300    9.7040 C.3    19  ASP19       0.1674
      3  C         83.7010   12.0300    9.0710 C.2    19  ASP19       0.2266
      4  O         84.4580   12.7000    9.7710 O.2    19  ASP19      -0.2867
      5  CB        82.4150   11.4770   11.1200 C.3    19  ASP19       0.1410
      6  CG        81.8120   12.8730   11.1650 C.2    19  ASP19       0.3668
      7  OD1       81.4740   13.4240   10.0930 O.co2  19  ASP19      -0.2456
      8  OD2       81.6660   13.4180   12.2800 O.co2  19  ASP19      -0.2456
      9  N         84.1250   15.6920   10.4710 N.3    22  HIS22      -0.1227
     10  CA        84.7280   15.9510   11.7680 C.3    22  HIS22       0.1737
     11  C         85.6290   17.1800   11.6400 C.2    22  HIS22       0.2438
     12  O         86.4590   17.2560   10.7290 O.2    22  HIS22      -0.2733
     13  CB        85.5200   14.7440   12.2510 C.3    22  HIS22       0.0758
     14  CG        86.0280   14.8810   13.6490 C.ar   22  HIS22       0.0818
     15  ND1       86.9790   15.8110   14.0060 N.ar   22  HIS22      -0.2268
     16  CD2       85.7200   14.2040   14.7800 C.ar   22  HIS22       0.1154
     17  CE1       87.2330   15.7050   15.2960 C.ar   22  HIS22       0.1986
     18  NE2       86.4840   14.7350   15.7900 N.ar   22  HIS22      -0.2212
     19  N         85.4520   18.1470   12.5490 N.am   23  PRO23      -0.2729
     20  CA        86.0690   19.4670   12.4090 C.3    23  PRO23       0.1401
     21  C         87.5970   19.4200   12.3750 C.2    23  PRO23       0.2269
     22  O         88.1950   20.2980   11.7640 O.2    23  PRO23      -0.2865
     23  CB        85.5630   20.2200   13.6460 C.3    23  PRO23       0.0296
     24  CG        85.2380   19.1450   14.6370 C.3    23  PRO23       0.0237
     25  CD        84.7260   18.0050   13.8240 C.3    23  PRO23       0.0939
     26  N         88.9080    9.8290   25.4070 N.3    89  ASN89      -0.1225
     27  CA        88.0030   10.9740   25.2780 C.3    89  ASN89       0.1785
     28  C         88.2400   11.6810   23.9360 C.2    89  ASN89       0.2597
     29  O         89.3060   12.2490   23.7200 O.2    89  ASN89      -0.2718
     30  CB        88.2060   11.9400   26.4520 C.3    89  ASN89       0.1169
     31  CG        87.1450   13.0240   26.5310 C.2    89  ASN89       0.2627
     32  OD1       86.4140   13.2860   25.5730 O.2    89  ASN89      -0.2716
     33  ND2       87.0640   13.6730   27.6820 N.am   89  ASN89      -0.0877
     34  N         87.2560   11.6230   23.0410 N.am   90  SER90      -0.1952
     35  CA        87.3030   12.2990   21.7360 C.3    90  SER90       0.1924
     36  C         88.5600   12.0040   20.8950 C.2    90  SER90       0.2314
     37  O         89.4480   12.8470   20.7560 O.2    90  SER90      -0.2863
     38  CB        87.1690   13.8080   21.9260 C.3    90  SER90       0.2116
     39  OG        86.0780   14.1240   22.7710 O.3    90  SER90      -0.2180
     40  N         96.8530   17.7000   16.5630 N.3   130  PRO130     -0.2116
     41  CA        97.3510   18.5470   17.6550 C.3   130  PRO130      0.1372
     42  C         97.8330   17.6910   18.8210 C.2   130  PRO130      0.2244
     43  O         97.7770   16.4720   18.7360 O.2   130  PRO130     -0.2868
     44  CB        96.1260   19.3830   18.0320 C.3   130  PRO130      0.0268
     45  CG        94.9720   18.4670   17.7190 C.3   130  PRO130      0.0207
     46  CD        95.3810   17.7280   16.4700 C.3   130  PRO130      0.0892
     47  N         98.2010   19.0780   22.6990 N.3   132  HIS132     -0.1226
     48  CA        98.2710   19.5790   24.0790 C.3   132  HIS132      0.1752
     49  C         97.3310   18.8530   25.0580 C.2   132  HIS132      0.2596
     50  O         97.4970   18.9700   26.2740 O.2   132  HIS132     -0.2718
     51  CB        98.0120   21.1000   24.1210 C.3   132  HIS132      0.0759
     52  CG        96.6120   21.5100   23.7590 C.ar  132  HIS132      0.0818
     53  ND1       95.9940   22.6140   24.3120 N.ar  132  HIS132     -0.2268
     54  CD2       95.7170   20.9770   22.8900 C.ar  132  HIS132      0.1154
     55  CE1       94.7780   22.7400   23.8040 C.ar  132  HIS132      0.1986
     56  NE2       94.5850   21.7600   22.9390 N.ar  132  HIS132     -0.2212
     57  N         96.3670   18.0890   24.5460 N.am  133  HIS133     -0.1975
     58  CA        95.4930   17.3220   25.4320 C.3   133  HIS133      0.1656
     59  C         96.1100   15.9870   25.8100 C.2   133  HIS133      0.2291
     60  O         95.7060   15.3820   26.7990 O.2   133  HIS133     -0.2864
     61  CB        94.1270   17.0610   24.7980 C.3   133  HIS133      0.0771
     62  CG        93.2320   18.2610   24.7670 C.ar  133  HIS133      0.0820
     63  ND1       92.9920   19.0380   25.8750 N.ar  133  HIS133     -0.2267
     64  CD2       92.5080   18.8040   23.7600 C.ar  133  HIS133      0.1154
     65  CE1       92.1620   20.0160   25.5530 C.ar  133  HIS133      0.1986
     66  NE2       91.8520   19.8930   24.2780 N.ar  133  HIS133     -0.2212
     67  N         91.2310   14.2120   23.1560 N.3   141  GLY141     -0.1210
     68  CA        90.8060   15.4000   22.4470 C.3   141  GLY141      0.1956
     69  C         91.5710   15.6570   21.1720 C.2   141  GLY141      0.2612
     70  O         92.2310   16.6890   21.0430 O.2   141  GLY141     -0.2717
     71  N         91.4880   14.7010   20.2480 N.am  142  PHE142     -0.1962
     72  CA        92.1170   14.7700   18.9300 C.3   142  PHE142      0.1771
     73  C         93.6340   14.6790   19.0170 C.2   142  PHE142      0.2619
     74  O         94.2990   14.7720   17.9910 O.2   142  PHE142     -0.2715
     75  CB        91.7430   16.0530   18.1710 C.3   142  PHE142      0.0574
     76  CG        90.2820   16.4120   18.2350 C.ar  142  PHE142     -0.0200
     77  CD1       89.3050   15.4400   18.3910 C.ar  142  PHE142     -0.0042
     78  CD2       89.8900   17.7410   18.1400 C.ar  142  PHE142     -0.0042
     79  CE1       87.9560   15.7870   18.4620 C.ar  142  PHE142     -0.0003
     80  CE2       88.5390   18.1040   18.1990 C.ar  142  PHE142     -0.0003
     81  CZ        87.5730   17.1260   18.3630 C.ar  142  PHE142     -0.0000
     82  N         94.1910   14.4730   20.2100 N.am  143  CYS143     -0.1968
     83  CA        95.6550   14.4860   20.3730 C.3   143  CYS143      0.1712
     84  C         96.2230   13.1250   20.7400 C.2   143  CYS143      0.2296
     85  O         95.7160   12.4610   21.6530 O.2   143  CYS143     -0.2864
     86  CB        96.0730   15.4960   21.4520 C.3   143  CYS143      0.0983
     87  SG        95.4540   17.1710   21.2130 S.3   143  CYS143     -0.0798
     88  N         95.3300   28.2550   22.6860 N.3   171  ASP171     -0.1239
     89  CA        94.2190   27.4550   22.2050 C.3   171  ASP171      0.1674
     90  C         93.0490   27.6890   23.1660 C.2   171  ASP171      0.2266
     91  O         93.2650   27.9390   24.3420 O.2   171  ASP171     -0.2867
     92  CB        94.6290   25.9780   22.1400 C.3   171  ASP171      0.1410
     93  CG        93.5520   25.0910   21.5690 C.2   171  ASP171      0.3668
     94  OD1       93.6990   24.6660   20.4060 O.co2 171  ASP171     -0.2456
     95  OD2       92.5630   24.8070   22.2840 O.co2 171  ASP171     -0.2456
     96  N         91.0310   25.7350   24.4070 N.3   173  HIS173     -0.1241
     97  CA        90.8890   24.6300   25.3400 C.3   173  HIS173      0.1621
     98  C         92.1090   24.5070   26.2580 C.2   173  HIS173      0.2264
     99  O         93.2260   24.8490   25.8880 O.2   173  HIS173     -0.2867
    100  CB        90.6630   23.3230   24.5810 C.3   173  HIS173      0.0745
    101  CG        89.4050   23.3060   23.7670 C.ar  173  HIS173      0.0817
    102  ND1       89.3780   23.6340   22.4280 N.ar  173  HIS173     -0.2268
    103  CD2       88.1300   22.9940   24.1010 C.ar  173  HIS173      0.1154
    104  CE1       88.1440   23.5240   21.9730 C.ar  173  HIS173      0.1986
    105  NE2       87.3670   23.1390   22.9700 N.ar  173  HIS173     -0.2212
    106  N         84.9430   21.7300   27.5700 N.3   202  PHE202     -0.1241
    107  CA        85.9720   20.7180   27.3430 C.3   202  PHE202      0.1605
    108  C         87.3440   21.2490   27.7500 C.2   202  PHE202      0.2264
    109  O         87.6590   22.4030   27.4580 O.2   202  PHE202     -0.2867
    110  CB        85.9790   20.3080   25.8670 C.3   202  PHE202      0.0534
    111  CG        86.8440   19.1280   25.5660 C.ar  202  PHE202     -0.0203
    112  CD1       88.1710   19.2980   25.1830 C.ar  202  PHE202     -0.0042
    113  CD2       86.3400   17.8390   25.6660 C.ar  202  PHE202     -0.0042
    114  CE1       88.9790   18.1910   24.9070 C.ar  202  PHE202     -0.0003
    115  CE2       87.1340   16.7380   25.3910 C.ar  202  PHE202     -0.0003
    116  CZ        88.4460   16.9100   25.0090 C.ar  202  PHE202     -0.0000
    117  N         91.2570   28.3350   17.9060 N.3   264  ASP264     -0.1239
    118  CA        89.8320   28.0830   18.0860 C.3   264  ASP264      0.1674
    119  C         89.1930   29.1200   19.0250 C.2   264  ASP264      0.2266
    120  O         88.0030   29.0520   19.3100 O.2   264  ASP264     -0.2867
    121  CB        89.5730   26.6630   18.6000 C.3   264  ASP264      0.1410
    122  CG        90.6630   26.1550   19.5340 C.2   264  ASP264      0.3668
    123  OD1       91.5440   26.9360   19.9950 O.co2 264  ASP264     -0.2456
    124  OD2       90.6150   24.9420   19.8120 O.co2 264  ASP264     -0.2456
    125  N         83.6570   25.6760   17.6300 N.3   271  LEU271     -0.1245
    126  CA        83.8070   25.0010   18.9140 C.3   271  LEU271      0.1561
    127  C         84.1080   25.9830   20.0400 C.2   271  LEU271      0.2260
    128  O         83.7370   25.7570   21.1940 O.2   271  LEU271     -0.2867
    129  CB        84.9100   23.9410   18.8340 C.3   271  LEU271      0.0270
    130  CG        84.4600   22.4980   18.5850 C.3   271  LEU271      0.0019
    131  CD1       83.5090   22.4320   17.4210 C.3   271  LEU271      0.0001
    132  CD2       85.6660   21.6270   18.3230 C.3   271  LEU271      0.0001
    133  N         94.5820   23.4210   18.1330 N.3   302  GLY302     -0.1225
    134  CA        93.2180   23.4080   17.6200 C.3   302  GLY302      0.1811
    135  C         92.8890   24.5610   16.6770 C.2   302  GLY302      0.2280
    136  O         93.7860   25.2180   16.1600 O.2   302  GLY302     -0.2866
    137  N         89.2190   25.4220   14.0780 N.3   304  TYR304     -0.1241
    138  CA        88.4160   24.5740   13.1750 C.3   304  TYR304      0.1605
    139  C         87.6220   25.3330   12.1070 C.2   304  TYR304      0.2264
    140  O         86.9530   24.7250   11.2600 O.2   304  TYR304     -0.2867
    141  CB        87.4900   23.7030   14.0200 C.3   304  TYR304      0.0534
    142  CG        88.3070   22.9570   15.0220 C.ar  304  TYR304     -0.0201
    143  CD1       89.0880   21.8740   14.6340 C.ar  304  TYR304     -0.0009
    144  CD2       88.3740   23.3780   16.3440 C.ar  304  TYR304     -0.0009
    145  CE1       89.8810   21.2000   15.5510 C.ar  304  TYR304      0.0417
    146  CE2       89.1660   22.7040   17.2800 C.ar  304  TYR304      0.0417
    147  CZ        89.9130   21.6130   16.8750 C.ar  304  TYR304      0.1957
    148  OH        90.7010   20.9410   17.7840 O.3   304  TYR304     -0.2866
@<TRIPOS>BOND
     1     3     2    1
     2     3     4    2
     3     2     1    1
     4     2     5    1
     5     7     6   ar
     6     9    10    1
     7    12    11    2
     8     5     6    1
     9     6     8   ar
    10   140   139    2
    11    11    10    1
    12    11    19   am
    13    22    21    2
    14    10    13    1
    15   139   138    1
    16    13    14    1
    17    21    20    1
    18    20    19    1
    19    20    23    1
    20    19    25    1
    21   138   141    1
    22   138   137    1
    23    23    24    1
    24    14    15   ar
    25    14    16   ar
    26    25    24    1
    27    15    17   ar
    28   141   142    1
    29   143   142   ar
    30   143   145   ar
    31    16    18   ar
    32   142   144   ar
    33    17    18   ar
    34   145   147   ar
    35   136   135    2
    36   144   146   ar
    37    46    40    1
    38    46    45    1
    39    40    41    1
    40   135   134    1
    41   147   146   ar
    42   147   148    1
    43   131   130    1
    44   134   133    1
    45   125   126    1
    46    41    44    1
    47    41    42    1
    48    45    44    1
    49   117   118    1
    50    74    73    2
    51   118   121    1
    52   118   119    1
    53    78    80   ar
    54    78    76   ar
    55    75    76    1
    56    75    72    1
    57    80    81   ar
    58    76    77   ar
    59   132   130    1
    60    81    79   ar
    61    77    79   ar
    62   130   129    1
    63   121   122    1
    64    43    42    2
    65   129   126    1
    66   126   127    1
    67    72    73    1
    68    72    71    1
    69    73    82   am
    70   119   120    2
    71   122   124   ar
    72   122   123   ar
    73   127   128    2
    74    82    83    1
    75    71    69   am
    76    83    84    1
    77    83    86    1
    78    94    93   ar
    79    84    85    2
    80    37    36    2
    81    36    35    1
    82    70    69    2
    83    69    68    1
    84    87    86    1
    85    93    92    1
    86    93    95   ar
    87    35    38    1
    88    35    34    1
    89    38    39    1
    90   104   102   ar
    91   104   105   ar
    92    92    89    1
    93    89    88    1
    94    89    90    1
    95   102   101   ar
    96    68    67    1
    97    47    48    1
    98    54    56   ar
    99    54    52   ar
   100    56    55   ar
   101   105   103   ar
   102    34    28   am
   103    90    91    2
   104    29    28    2
   105    52    51    1
   106    52    53   ar
   107    64    66   ar
   108    64    62   ar
   109   101   103   ar
   110   101   100    1
   111    55    53   ar
   112    28    27    1
   113    48    51    1
   114    48    49    1
   115    66    65   ar
   116    96    97    1
   117    57    49   am
   118    57    58    1
   119   100    97    1
   120    62    61    1
   121    62    63   ar
   122    61    58    1
   123   114   116   ar
   124   114   112   ar
   125   116   115   ar
   126    49    50    2
   127   112   111   ar
   128    27    26    1
   129    27    30    1
   130    97    98    1
   131   115   113   ar
   132    58    59    1
   133    65    63   ar
   134   111   113   ar
   135   111   110    1
   136    32    31    2
   137    59    60    2
   138   110   107    1
   139    99    98    2
   140    30    31    1
   141    31    33   am
   142   107   106    1
   143   107   108    1
   144   109   108    2
