@<TRIPOS>MOLECULE
tmp/5efcA00.pdb
 150 143 0 0 0
SMALL
GASTEIGER

@<TRIPOS>ATOM
      1  N         28.4070   38.5230   20.2160 N.3     2  GLN2       -0.1231
      2  CA        28.1580   37.3490   21.0370 C.3     2  GLN2        0.1698
      3  C         27.2600   37.6140   22.2500 C.2     2  GLN2        0.2592
      4  O         27.0200   38.7590   22.6520 O.2     2  GLN2       -0.2718
      5  CB        29.4930   36.7560   21.4880 C.3     2  GLN2        0.0381
      6  CG        30.5390   37.7990   21.8340 C.3     2  GLN2        0.0905
      7  CD        31.9560   37.3440   21.5180 C.2     2  GLN2        0.2608
      8  OE1       32.5910   37.8400   20.5830 O.2     2  GLN2       -0.2717
      9  NE2       32.4590   36.3990   22.3030 N.am    2  GLN2       -0.0878
     10  N         26.7730   36.5190   22.8160 N.am    3  ARG3       -0.1966
     11  CA        25.8320   36.5230   23.9270 C.3     3  ARG3        0.1729
     12  C         26.3430   35.5990   25.0190 C.2     3  ARG3        0.2616
     13  O         26.7670   34.4840   24.7390 O.2     3  ARG3       -0.2715
     14  CB        24.4470   36.0660   23.4640 C.3     3  ARG3        0.0348
     15  CG        23.5210   37.1700   23.0000 C.3     3  ARG3        0.0492
     16  CD        22.9600   37.9280   24.1910 C.3     3  ARG3        0.2205
     17  NE        21.7010   38.5950   23.8730 N.pl3   3  ARG3       -0.0865
     18  CZ        20.7020   38.7490   24.7330 C.cat   3  ARG3        0.5346
     19  NH1       20.8160   38.2840   25.9680 N.pl3   3  ARG3        0.1354
     20  NH2       19.5900   39.3680   24.3590 N.pl3   3  ARG3        0.1354
     21  N         26.3210   36.0710   26.2570 N.am    4  PHE4       -0.1974
     22  CA        26.6200   35.2050   27.3890 C.3     4  PHE4        0.1639
     23  C         25.5140   35.3870   28.4100 C.2     4  PHE4        0.2290
     24  O         25.6280   36.1880   29.3380 O.2     4  PHE4       -0.2864
     25  CB        27.9980   35.5290   27.9830 C.3     4  PHE4        0.0560
     26  CG        28.3400   34.7270   29.2130 C.ar    4  PHE4       -0.0200
     27  CD1       28.3850   33.3330   29.1660 C.ar    4  PHE4       -0.0042
     28  CD2       28.6370   35.3700   30.4110 C.ar    4  PHE4       -0.0042
     29  CE1       28.7110   32.5960   30.2970 C.ar    4  PHE4       -0.0003
     30  CE2       28.9620   34.6450   31.5520 C.ar    4  PHE4       -0.0003
     31  CZ        29.0020   33.2500   31.4960 C.ar    4  PHE4       -0.0000
     32  N         27.9140   41.1620   23.9410 N.3     9  LEU9       -0.1245
     33  CA        29.2660   41.6700   23.7060 C.3     9  LEU9        0.1561
     34  C         29.6060   41.9240   22.2420 C.2     9  LEU9        0.2260
     35  O         29.1970   41.1810   21.3620 O.2     9  LEU9       -0.2867
     36  CB        30.3090   40.7020   24.2550 C.3     9  LEU9        0.0270
     37  CG        30.2140   40.2700   25.7130 C.3     9  LEU9        0.0019
     38  CD1       29.5030   38.9230   25.7670 C.3     9  LEU9        0.0001
     39  CD2       31.6010   40.1650   26.3010 C.3     9  LEU9        0.0001
     40  N         33.2550   42.8210   20.1090 N.3    11  ARG11      -0.1245
     41  CA        34.6920   42.9270   20.2800 C.3    11  ARG11       0.1563
     42  C         35.1970   44.2960   19.8510 C.2    11  ARG11       0.2260
     43  O         34.8140   44.8160   18.8010 O.2    11  ARG11      -0.2867
     44  CB        35.4320   41.8410   19.4920 C.3    11  ARG11       0.0307
     45  CG        36.9530   41.9980   19.5860 C.3    11  ARG11       0.0489
     46  CD        37.6890   40.8490   18.9390 C.3    11  ARG11       0.2205
     47  NE        37.1850   39.5700   19.4150 N.pl3  11  ARG11      -0.0865
     48  CZ        37.6420   38.9470   20.4950 C.cat  11  ARG11       0.5346
     49  NH1       38.6090   39.4920   21.2230 N.pl3  11  ARG11       0.1354
     50  NH2       37.1220   37.7820   20.8480 N.pl3  11  ARG11       0.1354
     51  N         41.3120   36.5230   21.8090 N.3    16  GLY16      -0.1225
     52  CA        41.3510   35.4980   22.8320 C.3    16  GLY16       0.1811
     53  C         41.6340   34.1470   22.2070 C.2    16  GLY16       0.2280
     54  O         41.1770   33.8510   21.1040 O.2    16  GLY16      -0.2866
     55  N         41.3280   30.1600   23.3870 N.3    18  LYS18      -0.1245
     56  CA        40.7770   29.3080   24.4340 C.3    18  LYS18       0.1561
     57  C         41.6270   28.0460   24.6370 C.2    18  LYS18       0.2260
     58  O         41.9650   27.3700   23.6650 O.2    18  LYS18      -0.2867
     59  CB        39.3280   28.9400   24.0740 C.3    18  LYS18       0.0271
     60  CG        38.5650   28.2220   25.1670 C.3    18  LYS18       0.0035
     61  CD        37.1290   27.9370   24.7460 C.3    18  LYS18       0.0206
     62  CE        37.0450   26.7320   23.8240 C.3    18  LYS18       0.1093
     63  NZ        35.6570   26.1850   23.7560 N.3    18  LYS18      -0.1314
     64  N         37.1120   26.1230   29.3840 N.3    34  GLY34      -0.1225
     65  CA        37.9200   26.6850   28.3240 C.3    34  GLY34       0.1811
     66  C         38.3560   28.0440   28.8290 C.2    34  GLY34       0.2280
     67  O         37.5460   28.9580   28.9320 O.2    34  GLY34      -0.2866
     68  N         40.1390   31.5240   28.4270 N.3    36  TRP36      -0.1241
     69  CA        40.5930   32.4110   27.3690 C.3    36  TRP36       0.1605
     70  C         41.8770   33.1100   27.7830 C.2    36  TRP36       0.2264
     71  O         41.9780   33.6560   28.8830 O.2    36  TRP36      -0.2867
     72  CB        39.4910   33.4190   27.0130 C.3    36  TRP36       0.0550
     73  CG        38.3140   32.7220   26.4160 C.ar   36  TRP36       0.0003
     74  CD1       37.2740   32.1420   27.0880 C.ar   36  TRP36       0.0946
     75  CD2       38.0830   32.4750   25.0250 C.ar   36  TRP36       0.0152
     76  NE1       36.4040   31.5590   26.1950 N.ar   36  TRP36      -0.2442
     77  CE2       36.8790   31.7510   24.9240 C.ar   36  TRP36       0.0810
     78  CE3       38.7800   32.7980   23.8540 C.ar   36  TRP36       0.0012
     79  CZ2       36.3450   31.3500   23.6920 C.ar   36  TRP36       0.0191
     80  CZ3       38.2560   32.4010   22.6400 C.ar   36  TRP36       0.0001
     81  CH2       37.0430   31.6860   22.5680 C.ar   36  TRP36       0.0015
     82  N         41.8600   41.4290   25.7670 N.3    40  GLU40      -0.1245
     83  CA        40.6810   41.6290   24.9340 C.3    40  GLU40       0.1567
     84  C         39.8940   42.8090   25.4550 C.2    40  GLU40       0.2260
     85  O         39.8560   43.0460   26.6600 O.2    40  GLU40      -0.2867
     86  CB        39.7630   40.3890   24.9140 C.3    40  GLU40       0.0388
     87  CG        40.3360   39.1310   24.2540 C.3    40  GLU40       0.1160
     88  CD        39.4190   37.9220   24.4090 C.2    40  GLU40       0.3649
     89  OE1       39.4850   37.2340   25.4540 O.co2  40  GLU40      -0.2457
     90  OE2       38.6230   37.6630   23.4820 O.co2  40  GLU40      -0.2457
     91  N         35.8860   44.5880   24.9530 N.3    42  PHE42      -0.1241
     92  CA        34.5440   44.3750   24.4270 C.3    42  PHE42       0.1605
     93  C         33.6430   45.5450   24.7630 C.2    42  PHE42       0.2264
     94  O         33.6930   46.0470   25.8900 O.2    42  PHE42      -0.2867
     95  CB        33.9000   43.1110   25.0210 C.3    42  PHE42       0.0534
     96  CG        34.6210   41.8380   24.7050 C.ar   42  PHE42      -0.0203
     97  CD1       34.2860   41.1040   23.5770 C.ar   42  PHE42      -0.0042
     98  CD2       35.6080   41.3580   25.5450 C.ar   42  PHE42      -0.0042
     99  CE1       34.9350   39.9140   23.2940 C.ar   42  PHE42      -0.0003
    100  CE2       36.2630   40.1730   25.2660 C.ar   42  PHE42      -0.0003
    101  CZ        35.9260   39.4520   24.1400 C.ar   42  PHE42      -0.0000
    102  N         39.9490   43.0080   29.6230 N.3    55  LYS55      -0.1245
    103  CA        40.2560   41.7680   30.3390 C.3    55  LYS55       0.1561
    104  C         41.5550   41.1610   29.8290 C.2    55  LYS55       0.2260
    105  O         42.0000   41.4560   28.7150 O.2    55  LYS55      -0.2867
    106  CB        39.1030   40.7500   30.1950 C.3    55  LYS55       0.0271
    107  CG        39.2700   39.8680   28.9690 C.3    55  LYS55       0.0035
    108  CD        38.5710   38.5390   29.0360 C.3    55  LYS55       0.0206
    109  CE        39.5530   37.5700   29.6420 C.3    55  LYS55       0.1093
    110  NZ        39.3900   36.1770   29.2860 N.3    55  LYS55      -0.1314
    111  N         32.2600   36.5340   32.9460 N.3    83  PHE83      -0.1241
    112  CA        32.7590   36.3790   31.5830 C.3    83  PHE83       0.1605
    113  C         34.2900   36.5230   31.4850 C.2    83  PHE83       0.2264
    114  O         34.9400   35.8550   30.6740 O.2    83  PHE83      -0.2867
    115  CB        32.0870   37.3880   30.6450 C.3    83  PHE83       0.0534
    116  CG        32.6110   37.3320   29.2380 C.ar   83  PHE83      -0.0203
    117  CD1       32.0460   36.4730   28.3100 C.ar   83  PHE83      -0.0042
    118  CD2       33.6870   38.1230   28.8510 C.ar   83  PHE83      -0.0042
    119  CE1       32.5390   36.4050   27.0160 C.ar   83  PHE83      -0.0003
    120  CE2       34.1840   38.0680   27.5620 C.ar   83  PHE83      -0.0003
    121  CZ        33.6090   37.2110   26.6410 C.ar   83  PHE83      -0.0000
    122  N         36.3260   35.5370   33.5410 N.3    85  GLN85      -0.1245
    123  CA        36.8850   34.3620   34.2170 C.3    85  GLN85       0.1566
    124  C         37.8700   34.7800   35.2920 C.2    85  GLN85       0.2260
    125  O         38.9010   34.1350   35.4990 O.2    85  GLN85      -0.2867
    126  CB        37.5620   33.4250   33.2090 C.3    85  GLN85       0.0367
    127  CG        36.5780   32.9330   32.1660 C.3    85  GLN85       0.0905
    128  CD        37.2130   32.0410   31.1380 C.2    85  GLN85       0.2608
    129  OE1       38.2580   32.3720   30.5730 O.2    85  GLN85      -0.2717
    130  NE2       36.5750   30.8950   30.8750 N.am   85  GLN85      -0.0878
    131  N         30.7250   27.5580   33.0060 N.3   110  MET110     -0.1230
    132  CA        30.5970   29.0120   32.9140 C.3   110  MET110      0.1702
    133  C         29.1510   29.4480   33.1320 C.2   110  MET110      0.2592
    134  O         28.8970   30.4970   33.7060 O.2   110  MET110     -0.2718
    135  CB        31.1000   29.5240   31.5630 C.3   110  MET110      0.0401
    136  CG        32.6160   29.4350   31.3850 C.3   110  MET110      0.0596
    137  SD        33.5430   30.2280   32.7280 S.3   110  MET110     -0.1393
    138  CE        33.0580   31.9560   32.5850 C.3   110  MET110      0.0692
    139  N         28.1970   28.6440   32.6750 N.am  111  TYR111     -0.1976
    140  CA        26.7850   28.9940   32.8600 C.3   111  TYR111      0.1639
    141  C         26.3100   28.7220   34.2900 C.2   111  TYR111      0.2290
    142  O         25.4550   29.4300   34.8010 O.2   111  TYR111     -0.2864
    143  CB        25.9330   28.2680   31.8190 C.3   111  TYR111      0.0560
    144  CG        26.0140   28.9930   30.4920 C.ar  111  TYR111     -0.0198
    145  CD1       26.9910   28.6810   29.5550 C.ar  111  TYR111     -0.0009
    146  CD2       25.1600   30.0480   30.2200 C.ar  111  TYR111     -0.0009
    147  CE1       27.0800   29.3840   28.3500 C.ar  111  TYR111      0.0417
    148  CE2       25.2390   30.7460   29.0290 C.ar  111  TYR111      0.0417
    149  CZ        26.1950   30.4150   28.1030 C.ar  111  TYR111      0.1957
    150  OH        26.2480   31.1290   26.9250 O.3   111  TYR111     -0.2866
@<TRIPOS>BOND
     1    43    42    2
     2    46    47    1
     3    46    45    1
     4    47    48    2
     5    44    45    1
     6    44    41    1
     7    42    41    1
     8    40    41    1
     9     1     2    1
    10    48    50    1
    11    48    49    1
    12     8     7    2
    13     2     5    1
    14     2     3    1
    15    54    53    2
    16    35    34    2
    17     5     6    1
    18     7     6    1
    19     7     9   am
    20    51    52    1
    21    53    52    1
    22    34    33    1
    23     3     4    2
    24     3    10   am
    25    81    80   ar
    26    81    79   ar
    27    80    78   ar
    28    10    11    1
    29    15    14    1
    30    15    16    1
    31    99    97   ar
    32    99   101   ar
    33    55    56    1
    34    14    11    1
    35    90    88   ar
    36    97    96   ar
    37    58    57    2
    38    79    77   ar
    39    33    32    1
    40    33    36    1
    41    63    62    1
    42    62    61    1
    43    78    75   ar
    44    17    16    1
    45    17    18    2
    46    11    12    1
    47    59    56    1
    48    59    60    1
    49   101   100   ar
    50    87    88    1
    51    87    86    1
    52    36    37    1
    53    20    18    1
    54    88    89   ar
    55    92    93    1
    56    92    91    1
    57    92    95    1
    58    56    57    1
    59    96    95    1
    60    96    98   ar
    61    18    19    1
    62    13    12    2
    63    61    60    1
    64    93    94    2
    65    86    83    1
    66    77    75   ar
    67    77    76   ar
    68    83    84    1
    69    83    82    1
    70    12    21   am
    71    75    73   ar
    72   100    98   ar
    73    84    85    2
    74    37    38    1
    75    37    39    1
    76    76    74   ar
    77    21    22    1
    78    73    72    1
    79    73    74   ar
    80   121   119   ar
    81   121   120   ar
    82   150   149    1
    83    72    69    1
    84   119   117   ar
    85    69    70    1
    86    69    68    1
    87    22    25    1
    88    22    23    1
    89   120   118   ar
    90    70    71    2
    91    25    26    1
    92   149   147   ar
    93   149   148   ar
    94   117   116   ar
    95    65    66    1
    96    65    64    1
    97   147   145   ar
    98    23    24    2
    99   105   104    2
   100    66    67    2
   101   118   116   ar
   102   107   108    1
   103   107   106    1
   104   148   146   ar
   105   108   109    1
   106    27    26   ar
   107    27    29   ar
   108    26    28   ar
   109   116   115    1
   110   110   109    1
   111   145   144   ar
   112   102   103    1
   113   104   103    1
   114   106   103    1
   115   146   144   ar
   116    29    31   ar
   117    28    30   ar
   118   144   143    1
   119   129   128    2
   120   115   112    1
   121   114   113    2
   122   130   128   am
   123   128   127    1
   124   136   135    1
   125   136   137    1
   126   113   112    1
   127    31    30   ar
   128   135   132    1
   129   112   111    1
   130   143   140    1
   131   127   126    1
   132   138   137    1
   133   139   140    1
   134   139   133   am
   135   140   141    1
   136   132   131    1
   137   132   133    1
   138   133   134    2
   139   126   123    1
   140   122   123    1
   141   123   124    1
   142   141   142    2
   143   124   125    2
