@<TRIPOS>MOLECULE
tmp/5efhB00.pdb
 133 128 0 0 0
SMALL
GASTEIGER

@<TRIPOS>ATOM
      1  N         78.7510  238.5730  167.5650 N.3    23  GLU23      -0.1245
      2  CA        79.9690  238.8740  168.2990 C.3    23  GLU23       0.1567
      3  C         79.6430  239.8710  169.4030 C.2    23  GLU23       0.2260
      4  O         79.9940  241.0520  169.3210 O.2    23  GLU23      -0.2867
      5  CB        81.0540  239.4170  167.3690 C.3    23  GLU23       0.0388
      6  CG        82.4820  239.1290  167.8370 C.3    23  GLU23       0.1160
      7  CD        82.9050  239.9970  169.0120 C.2    23  GLU23       0.3649
      8  OE1       83.4040  241.1200  168.7670 O.co2  23  GLU23      -0.2457
      9  OE2       82.7390  239.5570  170.1740 O.co2  23  GLU23      -0.2457
     10  N         82.9760  241.6240  156.6060 N.3    89  SER89      -0.1217
     11  CA        82.3470  241.3010  157.8960 C.3    89  SER89       0.1889
     12  C         83.0150  241.9740  159.0960 C.2    89  SER89       0.2288
     13  O         83.6050  241.3140  159.9560 O.2    89  SER89      -0.2866
     14  CB        82.3270  239.7840  158.1170 C.3    89  SER89       0.2089
     15  OG        81.7160  239.1090  157.0280 O.3    89  SER89      -0.2183
     16  N         87.9860  239.4310  168.5680 N.3   129  PRO129     -0.2116
     17  CA        88.8850  238.3330  168.1820 C.3   129  PRO129      0.1372
     18  C         89.9610  238.8130  167.2190 C.2   129  PRO129      0.2244
     19  O         89.9710  239.9950  166.8630 O.2   129  PRO129     -0.2868
     20  CB        87.9470  237.3370  167.4990 C.3   129  PRO129      0.0268
     21  CG        86.8480  238.1980  166.9520 C.3   129  PRO129      0.0207
     22  CD        86.6450  239.2750  167.9730 C.3   129  PRO129      0.0892
     23  N         92.0560  236.3250  164.6070 N.3   131  HIS131     -0.1226
     24  CA        92.7900  235.4920  163.6590 C.3   131  HIS131      0.1752
     25  C         92.4850  235.7430  162.1770 C.2   131  HIS131      0.2596
     26  O         93.2630  235.3230  161.3320 O.2   131  HIS131     -0.2718
     27  CB        92.6020  233.9990  163.9930 C.3   131  HIS131      0.0759
     28  CG        91.2260  233.4670  163.7450 C.ar  131  HIS131      0.0818
     29  ND1       90.9780  232.1230  163.5700 N.ar  131  HIS131     -0.2268
     30  CD2       90.0220  234.0840  163.6680 C.ar  131  HIS131      0.1154
     31  CE1       89.6830  231.9350  163.3830 C.ar  131  HIS131      0.1986
     32  NE2       89.0810  233.1100  163.4350 N.ar  131  HIS131     -0.2212
     33  N         91.3870  236.4190  161.8420 N.am  132  HIS132     -0.1975
     34  CA        91.1860  236.8350  160.4490 C.3   132  HIS132      0.1656
     35  C         91.9630  238.1100  160.1110 C.2   132  HIS132      0.2291
     36  O         92.0680  238.4840  158.9490 O.2   132  HIS132     -0.2864
     37  CB        89.7080  237.0620  160.1350 C.3   132  HIS132      0.0771
     38  CG        88.8690  235.8280  160.2200 C.ar  132  HIS132      0.0820
     39  ND1       89.1470  234.6870  159.4970 N.ar  132  HIS132     -0.2267
     40  CD2       87.7600  235.5510  160.9460 C.ar  132  HIS132      0.1154
     41  CE1       88.2410  233.7650  159.7690 C.ar  132  HIS132      0.1986
     42  NE2       87.3900  234.2630  160.6500 N.ar  132  HIS132     -0.2212
     43  N         86.4680  239.6680  159.3290 N.3   140  GLY140     -0.1210
     44  CA        85.8160  238.6580  160.1460 C.3   140  GLY140      0.1956
     45  C         85.8210  238.9210  161.6400 C.2   140  GLY140      0.2612
     46  O         86.2640  238.0750  162.4150 O.2   140  GLY140     -0.2717
     47  N         85.3690  240.1150  162.0180 N.am  141  PHE141     -0.1962
     48  CA        85.2190  240.5560  163.4080 C.3   141  PHE141      0.1771
     49  C         86.5800  240.8920  164.0430 C.2   141  PHE141      0.2619
     50  O         86.6470  241.2420  165.2200 O.2   141  PHE141     -0.2715
     51  CB        84.5020  239.5110  164.3000 C.3   141  PHE141      0.0574
     52  CG        83.2210  238.9330  163.7220 C.ar  141  PHE141     -0.0200
     53  CD1       82.5780  239.5050  162.6390 C.ar  141  PHE141     -0.0042
     54  CD2       82.6580  237.7990  164.3000 C.ar  141  PHE141     -0.0042
     55  CE1       81.4120  238.9510  162.1280 C.ar  141  PHE141     -0.0003
     56  CE2       81.4910  237.2470  163.8030 C.ar  141  PHE141     -0.0003
     57  CZ        80.8660  237.8200  162.7100 C.ar  141  PHE141     -0.0000
     58  N         87.6510  240.8020  163.2620 N.am  142  CYS142     -0.1968
     59  CA        89.0070  240.9830  163.7830 C.3   142  CYS142      0.1712
     60  C         89.6970  242.2460  163.2760 C.2   142  CYS142      0.2296
     61  O         89.6800  242.5310  162.0790 O.2   142  CYS142     -0.2864
     62  CB        89.8670  239.7760  163.4160 C.3   142  CYS142      0.0983
     63  SG        89.1780  238.1860  163.8870 S.3   142  CYS142     -0.0798
     64  N         89.4200  227.3020  166.4130 N.3   170  ASP170     -0.1239
     65  CA        88.2560  228.0390  165.9490 C.3   170  ASP170      0.1674
     66  C         87.7270  227.3210  164.6980 C.2   170  ASP170      0.2266
     67  O         88.5110  226.7750  163.9240 O.2   170  ASP170     -0.2867
     68  CB        88.6370  229.4940  165.6430 C.3   170  ASP170      0.1410
     69  CG        87.4410  230.3650  165.3380 C.2   170  ASP170      0.3668
     70  OD1       86.9340  230.3110  164.2000 O.co2 170  ASP170     -0.2456
     71  OD2       87.0160  231.1190  166.2370 O.co2 170  ASP170     -0.2456
     72  N         86.6180  228.4710  162.0900 N.3   172  HIS172     -0.1241
     73  CA        87.0300  229.1620  160.8650 C.3   172  HIS172      0.1621
     74  C         88.5440  229.1240  160.7020 C.2   172  HIS172      0.2264
     75  O         89.2860  229.0770  161.6820 O.2   172  HIS172     -0.2867
     76  CB        86.5350  230.6140  160.8550 C.3   172  HIS172      0.0745
     77  CG        85.0470  230.7460  160.9450 C.ar  172  HIS172      0.0817
     78  ND1       84.3750  230.7910  162.1480 N.ar  172  HIS172     -0.2268
     79  CD2       84.0990  230.8320  159.9820 C.ar  172  HIS172      0.1154
     80  CE1       83.0790  230.9050  161.9230 C.ar  172  HIS172      0.1986
     81  NE2       82.8840  230.9300  160.6160 N.ar  172  HIS172     -0.2212
     82  N         83.1620  230.3500  155.2370 N.3   201  PHE201     -0.1241
     83  CA        83.8990  231.5660  155.5860 C.3   201  PHE201      0.1605
     84  C         85.2390  231.2390  156.2400 C.2   201  PHE201      0.2264
     85  O         85.3130  230.3620  157.1030 O.2   201  PHE201     -0.2867
     86  CB        83.0670  232.4560  156.5180 C.3   201  PHE201      0.0534
     87  CG        83.7190  233.7760  156.8300 C.ar  201  PHE201     -0.0203
     88  CD1       83.4950  234.8830  156.0210 C.ar  201  PHE201     -0.0042
     89  CD2       84.5810  233.9020  157.9080 C.ar  201  PHE201     -0.0042
     90  CE1       84.1050  236.0930  156.2950 C.ar  201  PHE201     -0.0003
     91  CE2       85.1960  235.1120  158.1860 C.ar  201  PHE201     -0.0003
     92  CZ        84.9540  236.2090  157.3790 C.ar  201  PHE201     -0.0000
     93  N         83.4090  228.0950  168.2490 N.3   263  ASP263     -0.1239
     94  CA        82.2730  227.9880  167.3400 C.3   263  ASP263      0.1674
     95  C         82.2070  226.6510  166.6120 C.2   263  ASP263      0.2266
     96  O         81.3690  226.4600  165.7290 O.2   263  ASP263     -0.2867
     97  CB        82.2490  229.1330  166.3230 C.3   263  ASP263      0.1410
     98  CG        83.6210  229.5470  165.8480 C.2   263  ASP263      0.3668
     99  OD1       84.6170  228.8480  166.1160 O.co2 263  ASP263     -0.2456
    100  OD2       83.6950  230.5960  165.1790 O.co2 263  ASP263     -0.2456
    101  N         76.6330  229.2970  164.1680 N.3   270  LEU270     -0.1245
    102  CA        77.3770  229.4940  162.9270 C.3   270  LEU270      0.1561
    103  C         78.0930  228.2410  162.4230 C.2   270  LEU270      0.2260
    104  O         77.9960  227.8980  161.2470 O.2   270  LEU270     -0.2867
    105  CB        78.4000  230.6190  163.1180 C.3   270  LEU270      0.0270
    106  CG        78.0430  232.0070  162.5900 C.3   270  LEU270      0.0019
    107  CD1       76.6110  232.3800  162.9280 C.3   270  LEU270      0.0001
    108  CD2       79.0170  233.0470  163.1220 C.3   270  LEU270      0.0001
    109  N         88.9090  233.2550  170.6620 N.3   300  GLU300     -0.1231
    110  CA        88.6570  233.7950  169.3380 C.3   300  GLU300      0.1699
    111  C         87.1430  233.9060  169.1390 C.2   300  GLU300      0.2592
    112  O         86.4930  234.7440  169.7710 O.2   300  GLU300     -0.2718
    113  CB        89.3090  232.9220  168.2580 C.3   300  GLU300      0.0402
    114  CG        90.8410  232.8980  168.3140 C.3   300  GLU300      0.1161
    115  CD        91.4920  234.0980  167.6190 C.2   300  GLU300      0.3649
    116  OE1       92.7410  234.1180  167.5150 O.co2 300  GLU300     -0.2457
    117  OE2       90.7630  235.0150  167.1700 O.co2 300  GLU300     -0.2457
    118  N         86.5870  233.0490  168.2880 N.am  301  GLY301     -0.1957
    119  CA        85.1620  233.0470  168.0050 C.3   301  GLY301      0.1869
    120  C         84.3880  232.1470  168.9570 C.2   301  GLY301      0.2309
    121  O         84.8860  231.8030  170.0340 O.2   301  GLY301     -0.2863
    122  N         79.8640  231.5190  169.4450 N.3   303  TYR303     -0.1241
    123  CA        78.7350  232.4540  169.4670 C.3   303  TYR303      0.1605
    124  C         77.4840  231.9840  170.2330 C.2   303  TYR303      0.2264
    125  O         76.5370  232.7520  170.4100 O.2   303  TYR303     -0.2867
    126  CB        78.3930  232.8180  168.0140 C.3   303  TYR303      0.0534
    127  CG        79.6330  233.3260  167.3310 C.ar  303  TYR303     -0.0201
    128  CD1       80.0830  234.6200  167.5680 C.ar  303  TYR303     -0.0009
    129  CD2       80.4040  232.4980  166.5130 C.ar  303  TYR303     -0.0009
    130  CE1       81.2350  235.0900  166.9930 C.ar  303  TYR303      0.0417
    131  CE2       81.5740  232.9670  165.9340 C.ar  303  TYR303      0.0417
    132  CZ        81.9770  234.2660  166.1830 C.ar  303  TYR303      0.1957
    133  OH        83.1180  234.7680  165.6220 O.3   303  TYR303     -0.2866
@<TRIPOS>BOND
     1    82    83    1
     2    83    84    1
     3    83    86    1
     4    88    90   ar
     5    88    87   ar
     6    84    85    2
     7    90    92   ar
     8    86    87    1
     9    10    11    1
    10    87    89   ar
    11    15    14    1
    12    92    91   ar
    13    11    14    1
    14    11    12    1
    15    89    91   ar
    16    36    35    2
    17    12    13    2
    18    43    44    1
    19    39    41   ar
    20    39    38   ar
    21    41    42   ar
    22    79    81   ar
    23    79    77   ar
    24    35    34    1
    25    37    38    1
    26    37    34    1
    27    44    45    1
    28    38    40   ar
    29    34    33    1
    30    81    80   ar
    31    42    40   ar
    32    74    73    1
    33    74    75    2
    34    76    73    1
    35    76    77    1
    36    73    72    1
    37    77    78   ar
    38   104   103    2
    39    26    25    2
    40    45    47   am
    41    45    46    2
    42    33    25   am
    43    80    78   ar
    44    47    48    1
    45    61    60    2
    46    55    53   ar
    47    55    57   ar
    48    25    24    1
    49   103   102    1
    50   106   107    1
    51   106   105    1
    52   106   108    1
    53    53    52   ar
    54    57    56   ar
    55   102   105    1
    56   102   101    1
    57    58    59    1
    58    58    49   am
    59    60    59    1
    60    31    32   ar
    61    31    29   ar
    62    48    49    1
    63    48    51    1
    64    62    59    1
    65    62    63    1
    66    32    30   ar
    67    29    28   ar
    68    24    27    1
    69    24    23    1
    70    30    28   ar
    71    52    54   ar
    72    52    51    1
    73    28    27    1
    74    56    54   ar
    75    67    66    2
    76    49    50    2
    77    70    69   ar
    78    66    65    1
    79   100    98   ar
    80    69    68    1
    81    69    71   ar
    82   133   132    1
    83    68    65    1
    84    96    95    2
    85    98    99   ar
    86    98    97    1
    87   131   132   ar
    88   131   129   ar
    89    65    64    1
    90   132   130   ar
    91    97    94    1
    92   129   127   ar
    93    95    94    1
    94    19    18    2
    95    21    20    1
    96    21    22    1
    97   130   128   ar
    98   117   115   ar
    99    18    17    1
   100   127   128   ar
   101   127   126    1
   102    94    93    1
   103     5     6    1
   104     5     2    1
   105    20    17    1
   106   116   115   ar
   107     1     2    1
   108   115   114    1
   109     6     7    1
   110    22    16    1
   111   119   118    1
   112   119   120    1
   113   126   123    1
   114    17    16    1
   115   113   114    1
   116   113   110    1
   117   118   111   am
   118     2     3    1
   119     8     7   ar
   120   120   121    2
   121     7     9   ar
   122   111   110    1
   123   111   112    2
   124     4     3    2
   125   110   109    1
   126   122   123    1
   127   123   124    1
   128   124   125    2
