@<TRIPOS>MOLECULE
tmp/5efiA04.pdb
 126 121 0 0 0
SMALL
GASTEIGER

@<TRIPOS>ATOM
      1  N         23.4870    3.8570   27.2450 N.3     7  CYS7       -0.1221
      2  CA        23.2510    4.1110   28.6550 C.3     7  CYS7        0.1808
      3  C         24.1660    5.2650   29.0360 C.2     7  CYS7        0.2601
      4  O         25.3910    5.1540   28.8970 O.2     7  CYS7       -0.2717
      5  CB        23.5900    2.8720   29.4870 C.3     7  CYS7        0.0970
      6  SG        22.7990    1.3490   28.8950 S.3     7  CYS7       -0.0800
      7  N         23.5620    6.3560   29.5050 N.am    8  LEU8       -0.1965
      8  CA        24.2640    7.5980   29.7930 C.3     8  LEU8        0.1728
      9  C         24.1610    7.8760   31.2770 C.2     8  LEU8        0.2616
     10  O         23.0600    8.0870   31.7900 O.2     8  LEU8       -0.2715
     11  CB        23.6380    8.7510   28.9940 C.3     8  LEU8        0.0311
     12  CG        23.4760    8.5440   27.4870 C.3     8  LEU8        0.0022
     13  CD1       22.9160    9.8030   26.8270 C.3     8  LEU8        0.0001
     14  CD2       24.8010    8.1600   26.8510 C.3     8  LEU8        0.0001
     15  N         25.3070    7.8740   31.9610 N.am    9  GLN9       -0.1977
     16  CA        25.3830    8.1970   33.3730 C.3     9  GLN9        0.1601
     17  C         25.9920    9.5780   33.5460 C.2     9  GLN9        0.2287
     18  O         26.9900    9.9060   32.9000 O.2     9  GLN9       -0.2864
     19  CB        26.2460    7.1600   34.0920 C.3     9  GLN9        0.0394
     20  CG        26.5300    7.4260   35.5640 C.3     9  GLN9        0.0908
     21  CD        27.6480    6.5400   36.0840 C.2     9  GLN9        0.2608
     22  OE1       27.8700    5.4520   35.5590 O.2     9  GLN9       -0.2717
     23  NE2       28.3700    7.0050   37.0840 N.am    9  GLN9       -0.0878
     24  N         24.0440   10.9660   41.0320 N.3    21  THR21      -0.1218
     25  CA        24.2350   10.2560   39.7830 C.3    21  THR21       0.1862
     26  C         22.8520    9.9850   39.1930 C.2    21  THR21       0.2287
     27  O         22.0090    9.3520   39.8440 O.2    21  THR21      -0.2866
     28  CB        24.9870    8.9390   40.0180 C.3    21  THR21       0.1770
     29  OG1       26.2920    9.2340   40.5300 O.3    21  THR21      -0.2211
     30  CG2       25.1220    8.1310   38.7260 C.3    21  THR21       0.0375
     31  N         20.8920    8.6820   35.4990 N.3    23  SER23      -0.1217
     32  CA        21.1120    7.9790   34.2490 C.3    23  SER23       0.1889
     33  C         19.8630    7.9710   33.3840 C.2    23  SER23       0.2288
     34  O         18.7390    8.0010   33.8970 O.2    23  SER23      -0.2866
     35  CB        21.5790    6.5540   34.5020 C.3    23  SER23       0.2089
     36  OG        22.8580    6.5560   35.0990 O.3    23  SER23      -0.2183
     37  N         18.5580    6.0390   29.4630 N.3    25  VAL25      -0.1245
     38  CA        18.8660    5.0330   28.4450 C.3    25  VAL25       0.1561
     39  C         18.0390    5.3350   27.2000 C.2    25  VAL25       0.2260
     40  O         16.8470    5.6030   27.3010 O.2    25  VAL25      -0.2867
     41  CB        18.5860    3.6070   28.9560 C.3    25  VAL25       0.0252
     42  CG1       18.9460    2.5610   27.9110 C.3    25  VAL25       0.0019
     43  CG2       19.3800    3.3570   30.2340 C.3    25  VAL25       0.0019
     44  N         16.9040    6.5670   35.4720 N.3    35  TRP35      -0.1241
     45  CA        17.2650    6.1330   36.8010 C.3    35  TRP35       0.1605
     46  C         17.7930    7.2920   37.6180 C.2    35  TRP35       0.2264
     47  O         18.9890    7.6200   37.5730 O.2    35  TRP35      -0.2867
     48  CB        18.2350    4.9650   36.7400 C.3    35  TRP35       0.0550
     49  CG        18.4880    4.3420   38.0720 C.ar   35  TRP35       0.0003
     50  CD1       17.6810    4.3800   39.1790 C.ar   35  TRP35       0.0946
     51  CD2       19.6240    3.5710   38.4340 C.ar   35  TRP35       0.0152
     52  NE1       18.2550    3.6890   40.2060 N.ar   35  TRP35      -0.2442
     53  CE2       19.4510    3.1800   39.7790 C.ar   35  TRP35       0.0810
     54  CE3       20.7770    3.1740   37.7540 C.ar   35  TRP35       0.0012
     55  CZ2       20.3800    2.4130   40.4530 C.ar   35  TRP35       0.0191
     56  CZ3       21.7060    2.4160   38.4250 C.ar   35  TRP35       0.0001
     57  CH2       21.4990    2.0400   39.7650 C.ar   35  TRP35       0.0015
     58  N         15.4310    1.3580   38.7850 N.3    42  ILE42      -0.1245
     59  CA        15.4440    1.8810   37.4150 C.3    42  ILE42       0.1561
     60  C         14.0060    1.9340   36.8920 C.2    42  ILE42       0.2260
     61  O         13.2700    0.9450   36.9820 O.2    42  ILE42      -0.2867
     62  CB        16.2990    0.9940   36.4750 C.3    42  ILE42       0.0252
     63  CG1       17.7560    0.9390   36.9500 C.3    42  ILE42       0.0019
     64  CG2       16.2430    1.5060   35.0360 C.3    42  ILE42       0.0019
     65  CD1       18.5450   -0.2220   36.3830 C.3    42  ILE42       0.0001
     66  N         16.0630   -9.3280   35.3000 N.3    58  TRP58      -0.1241
     67  CA        16.0060   -7.8690   35.4180 C.3    58  TRP58       0.1605
     68  C         16.2150   -7.3760   36.8600 C.2    58  TRP58       0.2264
     69  O         16.9550   -6.4040   37.0750 O.2    58  TRP58      -0.2867
     70  CB        14.6860   -7.3010   34.8790 C.3    58  TRP58       0.0550
     71  CG        14.6520   -5.8300   35.0470 C.ar   58  TRP58       0.0003
     72  CD1       13.9790   -5.1220   36.0010 C.ar   58  TRP58       0.0946
     73  CD2       15.4130   -4.8800   34.3000 C.ar   58  TRP58       0.0152
     74  NE1       14.2470   -3.7820   35.8700 N.ar   58  TRP58      -0.2442
     75  CE2       15.1280   -3.6050   34.8340 C.ar   58  TRP58       0.0810
     76  CE3       16.2940   -4.9810   33.2140 C.ar   58  TRP58       0.0012
     77  CZ2       15.6980   -2.4230   34.3120 C.ar   58  TRP58       0.0191
     78  CZ3       16.8640   -3.8040   32.6960 C.ar   58  TRP58       0.0001
     79  CH2       16.5580   -2.5490   33.2480 C.ar   58  TRP58       0.0015
     80  N         23.3750   -2.9420   39.3960 N.3    65  PHE65      -0.1241
     81  CA        23.6040   -1.5430   39.0620 C.3    65  PHE65       0.1605
     82  C         23.4840   -0.6440   40.3050 C.2    65  PHE65       0.2264
     83  O         24.2230    0.3400   40.4250 O.2    65  PHE65      -0.2867
     84  CB        22.6630   -1.0810   37.9340 C.3    65  PHE65       0.0534
     85  CG        23.1190   -1.4830   36.5500 C.ar   65  PHE65      -0.0203
     86  CD1       24.3430   -1.0440   36.0500 C.ar   65  PHE65      -0.0042
     87  CD2       22.3180   -2.2760   35.7330 C.ar   65  PHE65      -0.0042
     88  CE1       24.7660   -1.3970   34.7710 C.ar   65  PHE65      -0.0003
     89  CE2       22.7320   -2.6330   34.4540 C.ar   65  PHE65      -0.0003
     90  CZ        23.9570   -2.1880   33.9690 C.ar   65  PHE65      -0.0000
     91  N         26.8030   -0.9350   41.9740 N.3    68  TYR68      -0.1227
     92  CA        27.6830   -0.1310   41.1130 C.3    68  TYR68       0.1736
     93  C         27.5670    1.3580   41.4180 C.2    68  TYR68       0.2595
     94  O         28.5750    2.0290   41.6070 O.2    68  TYR68      -0.2718
     95  CB        27.3800   -0.3630   39.6280 C.3    68  TYR68       0.0548
     96  CG        27.9930    0.6960   38.7430 C.ar   68  TYR68      -0.0200
     97  CD1       29.3670    0.7460   38.5490 C.ar   68  TYR68      -0.0009
     98  CD2       27.2100    1.6830   38.1440 C.ar   68  TYR68      -0.0009
     99  CE1       29.9520    1.7290   37.7620 C.ar   68  TYR68       0.0417
    100  CE2       27.7840    2.6640   37.3490 C.ar   68  TYR68       0.0417
    101  CZ        29.1530    2.6890   37.1620 C.ar   68  TYR68       0.1957
    102  OH        29.7240    3.6680   36.3790 O.3    68  TYR68      -0.2866
    103  N         26.3390    1.8620   41.4560 N.am   69  ARG69      -0.1980
    104  CA        26.1000    3.2870   41.6830 C.3    69  ARG69       0.1597
    105  C         26.6850    3.7730   43.0110 C.2    69  ARG69       0.2287
    106  O         27.3570    4.8030   43.0430 O.2    69  ARG69      -0.2864
    107  CB        24.6090    3.6050   41.6290 C.3    69  ARG69       0.0334
    108  CG        24.2880    5.0680   41.9050 C.3    69  ARG69       0.0492
    109  CD        22.8350    5.3900   41.6210 C.3    69  ARG69       0.2205
    110  NE        21.9100    4.6790   42.5050 N.pl3  69  ARG69      -0.0865
    111  CZ        20.6160    4.9660   42.6640 C.cat  69  ARG69       0.5346
    112  NH1       20.0350    5.9730   42.0150 N.pl3  69  ARG69       0.1354
    113  NH2       19.8860    4.2280   43.4990 N.pl3  69  ARG69       0.1354
    114  N         29.5140    8.8130   31.6640 N.3    91  LEU91      -0.1245
    115  CA        29.8310    7.5360   31.0290 C.3    91  LEU91       0.1561
    116  C         28.7950    7.3200   29.9600 C.2    91  LEU91       0.2260
    117  O         27.6170    7.6190   30.1800 O.2    91  LEU91      -0.2867
    118  CB        29.8030    6.3630   32.0240 C.3    91  LEU91       0.0270
    119  CG        31.0200    6.1060   32.9120 C.3    91  LEU91       0.0019
    120  CD1       31.0720    7.0660   34.0840 C.3    91  LEU91       0.0001
    121  CD2       31.0110    4.6690   33.4260 C.3    91  LEU91       0.0001
    122  N         27.8530    4.1440   27.6230 N.3    93  ALA93      -0.1245
    123  CA        28.0690    2.7080   27.4240 C.3    93  ALA93       0.1562
    124  C         26.8840    2.0970   26.6820 C.2    93  ALA93       0.2260
    125  O         25.7360    2.4120   26.9770 O.2    93  ALA93      -0.2867
    126  CB        28.2390    2.0110   28.7610 C.3    93  ALA93       0.0290
@<TRIPOS>BOND
     1   124   125    2
     2   124   123    1
     3    13    12    1
     4    14    12    1
     5    39    40    2
     6    39    38    1
     7     1     2    1
     8   123   122    1
     9   123   126    1
    10    12    11    1
    11    42    41    1
    12    38    41    1
    13    38    37    1
    14     2     3    1
    15     2     5    1
    16     6     5    1
    17     4     3    2
    18    41    43    1
    19    11     8    1
    20     3     7   am
    21     7     8    1
    22     8     9    1
    23   116   117    2
    24   116   115    1
    25   115   114    1
    26   115   118    1
    27     9    10    2
    28     9    15   am
    29    15    16    1
    30   118   119    1
    31    78    76   ar
    32    78    79   ar
    33    18    17    2
    34   119   121    1
    35   119   120    1
    36    76    73   ar
    37    79    77   ar
    38    16    17    1
    39    16    19    1
    40    33    34    2
    41    33    32    1
    42    90    89   ar
    43    90    88   ar
    44    19    20    1
    45    32    35    1
    46    32    31    1
    47    73    75   ar
    48    73    71   ar
    49    77    75   ar
    50    89    87   ar
    51    35    36    1
    52    88    86   ar
    53    75    74   ar
    54    70    71    1
    55    70    67    1
    56    64    62    1
    57    71    72   ar
    58    66    67    1
    59    67    68    1
    60    44    45    1
    61    22    21    2
    62    20    21    1
    63    87    85   ar
    64    74    72   ar
    65    86    85   ar
    66    21    23   am
    67   102   101    1
    68    65    63    1
    69    62    63    1
    70    62    59    1
    71    85    84    1
    72    48    45    1
    73    48    49    1
    74    45    46    1
    75    68    69    2
    76    60    61    2
    77    60    59    1
    78   101   100   ar
    79   101    99   ar
    80   100    98   ar
    81    59    58    1
    82    47    46    2
    83    54    56   ar
    84    54    51   ar
    85    99    97   ar
    86    84    81    1
    87    49    51   ar
    88    49    50   ar
    89    98    96   ar
    90    56    57   ar
    91    51    53   ar
    92    97    96   ar
    93    30    28    1
    94    96    95    1
    95    81    80    1
    96    81    82    1
    97    50    52   ar
    98    26    25    1
    99    26    27    2
   100    95    92    1
   101    57    55   ar
   102    53    52   ar
   103    53    55   ar
   104    25    28    1
   105    25    24    1
   106    28    29    1
   107    82    83    2
   108    92    93    1
   109    92    91    1
   110    93   103   am
   111    93    94    2
   112   103   104    1
   113   109   108    1
   114   109   110    1
   115   107   104    1
   116   107   108    1
   117   104   105    1
   118   112   111    1
   119   110   111    2
   120   111   113    1
   121   105   106    2
