@<TRIPOS>MOLECULE
tmp/5efiA06.pdb
 161 153 0 0 0
SMALL
GASTEIGER

@<TRIPOS>ATOM
      1  N         26.8030   -0.9350   41.9740 N.3    68  TYR68      -0.1241
      2  CA        27.6830   -0.1310   41.1130 C.3    68  TYR68       0.1605
      3  C         27.5670    1.3580   41.4180 C.2    68  TYR68       0.2264
      4  O         28.5750    2.0290   41.6070 O.2    68  TYR68      -0.2867
      5  CB        27.3800   -0.3630   39.6280 C.3    68  TYR68       0.0534
      6  CG        27.9930    0.6960   38.7430 C.ar   68  TYR68      -0.0201
      7  CD1       29.3670    0.7460   38.5490 C.ar   68  TYR68      -0.0009
      8  CD2       27.2100    1.6830   38.1440 C.ar   68  TYR68      -0.0009
      9  CE1       29.9520    1.7290   37.7620 C.ar   68  TYR68       0.0417
     10  CE2       27.7840    2.6640   37.3490 C.ar   68  TYR68       0.0417
     11  CZ        29.1530    2.6890   37.1620 C.ar   68  TYR68       0.1957
     12  OH        29.7240    3.6680   36.3790 O.3    68  TYR68      -0.2866
     13  N         30.5860    3.3420   42.8140 N.3    72  PHE72      -0.1241
     14  CA        31.1710    4.3560   41.9490 C.3    72  PHE72       0.1605
     15  C         31.3470    5.6500   42.7220 C.2    72  PHE72       0.2264
     16  O         32.4410    6.2070   42.7580 O.2    72  PHE72      -0.2867
     17  CB        30.2790    4.5880   40.7270 C.3    72  PHE72       0.0534
     18  CG        30.7870    5.6520   39.7980 C.ar   72  PHE72      -0.0203
     19  CD1       31.7140    5.3450   38.8120 C.ar   72  PHE72      -0.0042
     20  CD2       30.3450    6.9630   39.9140 C.ar   72  PHE72      -0.0042
     21  CE1       32.1820    6.3280   37.9430 C.ar   72  PHE72      -0.0003
     22  CE2       30.8080    7.9480   39.0500 C.ar   72  PHE72      -0.0003
     23  CZ        31.7330    7.6290   38.0720 C.ar   72  PHE72      -0.0000
     24  N         34.0900    5.5050   45.4310 N.3    75  ASP75      -0.1225
     25  CA        35.4250    5.4460   44.8220 C.3    75  ASP75       0.1805
     26  C         35.9220    6.7680   44.2370 C.2    75  ASP75       0.2597
     27  O         37.1080    7.0750   44.3470 O.2    75  ASP75      -0.2718
     28  CB        35.4720    4.3730   43.7330 C.3    75  ASP75       0.1424
     29  CG        35.4010    2.9690   44.2940 C.2    75  ASP75       0.3668
     30  OD1       35.5240    2.7810   45.5250 O.co2  75  ASP75      -0.2456
     31  OD2       35.2330    2.0340   43.4900 O.co2  75  ASP75      -0.2456
     32  N         35.0310    7.5370   43.6140 N.am   76  ILE76      -0.1980
     33  CA        35.4140    8.8340   43.0510 C.3    76  ILE76       0.1595
     34  C         35.7480    9.8350   44.1700 C.2    76  ILE76       0.2287
     35  O         36.7440   10.5540   44.0810 O.2    76  ILE76      -0.2864
     36  CB        34.3190    9.3970   42.1090 C.3    76  ILE76       0.0276
     37  CG1       34.1270    8.4860   40.8760 C.3    76  ILE76       0.0022
     38  CG2       34.6310   10.8290   41.6860 C.3    76  ILE76       0.0022
     39  CD1       35.3430    8.2890   39.9900 C.3    76  ILE76       0.0001
     40  N         39.0210    8.7600   45.4110 N.3    79  LEU79      -0.1245
     41  CA        40.0270    9.1210   44.4020 C.3    79  LEU79       0.1561
     42  C         40.3900   10.6050   44.4660 C.2    79  LEU79       0.2260
     43  O         41.5710   10.9640   44.4420 O.2    79  LEU79      -0.2867
     44  CB        39.5320    8.7630   42.9970 C.3    79  LEU79       0.0270
     45  CG        40.4150    9.1350   41.7980 C.3    79  LEU79       0.0019
     46  CD1       41.8060    8.5310   41.9360 C.3    79  LEU79       0.0001
     47  CD2       39.7650    8.6950   40.4980 C.3    79  LEU79       0.0001
     48  N         31.5120   13.7660   35.9910 N.3    89  ILE89      -0.1245
     49  CA        31.8840   12.5600   35.2590 C.3    89  ILE89       0.1561
     50  C         30.6720   12.0750   34.4690 C.2    89  ILE89       0.2260
     51  O         29.5400   12.0930   34.9730 O.2    89  ILE89      -0.2867
     52  CB        32.4020   11.4360   36.1910 C.3    89  ILE89       0.0252
     53  CG1       33.7120   11.8650   36.8600 C.3    89  ILE89       0.0019
     54  CG2       32.6180   10.1380   35.4090 C.3    89  ILE89       0.0019
     55  CD1       34.1860   10.9360   37.9590 C.3    89  ILE89       0.0001
     56  N         29.5140    8.8130   31.6640 N.3    91  LEU91      -0.1245
     57  CA        29.8310    7.5360   31.0290 C.3    91  LEU91       0.1561
     58  C         28.7950    7.3200   29.9600 C.2    91  LEU91       0.2260
     59  O         27.6170    7.6190   30.1800 O.2    91  LEU91      -0.2867
     60  CB        29.8030    6.3630   32.0240 C.3    91  LEU91       0.0270
     61  CG        31.0200    6.1060   32.9120 C.3    91  LEU91       0.0019
     62  CD1       31.0720    7.0660   34.0840 C.3    91  LEU91       0.0001
     63  CD2       31.0110    4.6690   33.4260 C.3    91  LEU91       0.0001
     64  N         34.2630    7.3060   28.9420 N.3   106  VAL106     -0.1245
     65  CA        34.1680    8.0800   30.1680 C.3   106  VAL106      0.1561
     66  C         34.7300    9.4820   29.9030 C.2   106  VAL106      0.2260
     67  O         35.7910    9.6110   29.2970 O.2   106  VAL106     -0.2867
     68  CB        34.9680    7.4380   31.3110 C.3   106  VAL106      0.0252
     69  CG1       34.7780    8.2200   32.6120 C.3   106  VAL106      0.0019
     70  CG2       34.5930    5.9680   31.4750 C.3   106  VAL106      0.0019
     71  N         35.6680   13.2800   31.8790 N.3   108  PHE108     -0.1241
     72  CA        35.9540   13.9480   33.1440 C.3   108  PHE108      0.1605
     73  C         35.9530   15.4490   32.8350 C.2   108  PHE108      0.2264
     74  O         36.6620   15.8730   31.9350 O.2   108  PHE108     -0.2867
     75  CB        37.3310   13.4960   33.6460 C.3   108  PHE108      0.0534
     76  CG        37.8310   14.2470   34.8570 C.ar  108  PHE108     -0.0203
     77  CD1       37.2450   14.0590   36.1030 C.ar  108  PHE108     -0.0042
     78  CD2       38.9100   15.1310   34.7570 C.ar  108  PHE108     -0.0042
     79  CE1       37.7080   14.7510   37.2200 C.ar  108  PHE108     -0.0003
     80  CE2       39.3800   15.8170   35.8730 C.ar  108  PHE108     -0.0003
     81  CZ        38.7790   15.6280   37.1050 C.ar  108  PHE108     -0.0000
     82  N         38.2170   10.9730   28.4040 N.3   113  VAL113     -0.1231
     83  CA        39.5200   10.5960   29.0010 C.3   113  VAL113      0.1692
     84  C         39.8360    9.1000   29.0480 C.2   113  VAL113      0.2591
     85  O         41.0150    8.7370   29.0930 O.2   113  VAL113     -0.2718
     86  CB        39.7050   11.1520   30.4440 C.3   113  VAL113      0.0266
     87  CG1       39.7690   12.6640   30.4340 C.3   113  VAL113      0.0020
     88  CG2       38.6110   10.6710   31.4030 C.3   113  VAL113      0.0020
     89  N         38.8190    8.2340   29.0700 N.am  114  VAL114     -0.1980
     90  CA        39.0230    6.7940   29.2950 C.3   114  VAL114      0.1595
     91  C         38.0000    5.9810   28.4970 C.2   114  VAL114      0.2287
     92  O         36.8500    6.3900   28.3480 O.2   114  VAL114     -0.2864
     93  CB        38.9230    6.4520   30.8090 C.3   114  VAL114      0.0276
     94  CG1       38.7880    4.9450   31.0540 C.3   114  VAL114      0.0022
     95  CG2       40.1240    7.0050   31.5690 C.3   114  VAL114      0.0022
     96  N         40.8410   -1.2270   30.6550 N.3   121  TRP121     -0.1241
     97  CA        40.5950    0.1990   30.6610 C.3   121  TRP121      0.1605
     98  C         41.8340    0.8810   30.1030 C.2   121  TRP121      0.2264
     99  O         42.9590    0.4790   30.4010 O.2   121  TRP121     -0.2867
    100  CB        40.3360    0.6910   32.0770 C.3   121  TRP121      0.0550
    101  CG        39.1590    0.0790   32.7160 C.ar  121  TRP121      0.0003
    102  CD1       39.1380   -1.0460   33.4940 C.ar  121  TRP121      0.0946
    103  CD2       37.8160    0.5500   32.6530 C.ar  121  TRP121      0.0152
    104  NE1       37.8600   -1.3010   33.9160 N.ar  121  TRP121     -0.2442
    105  CE2       37.0270   -0.3380   33.4160 C.ar  121  TRP121      0.0810
    106  CE3       37.1980    1.6370   32.0280 C.ar  121  TRP121      0.0012
    107  CZ2       35.6440   -0.1730   33.5690 C.ar  121  TRP121      0.0191
    108  CZ3       35.8100    1.7990   32.1760 C.ar  121  TRP121      0.0001
    109  CH2       35.0560    0.8920   32.9440 C.ar  121  TRP121      0.0015
    110  N         47.7870   11.9460   35.6980 N.3   130  TRP130     -0.1227
    111  CA        47.3680   11.4070   37.0000 C.3   130  TRP130      0.1737
    112  C         46.3820   10.2390   36.9060 C.2   130  TRP130      0.2595
    113  O         46.2400    9.5040   37.8680 O.2   130  TRP130     -0.2718
    114  CB        46.8170   12.5010   37.9340 C.3   130  TRP130      0.0564
    115  CG        45.5840   13.1900   37.4670 C.ar  130  TRP130      0.0003
    116  CD1       45.5150   14.4130   36.8640 C.ar  130  TRP130      0.0946
    117  CD2       44.2330   12.7180   37.5690 C.ar  130  TRP130      0.0152
    118  NE1       44.2120   14.7280   36.5750 N.ar  130  TRP130     -0.2442
    119  CE2       43.4040   13.7040   36.9910 C.ar  130  TRP130      0.0810
    120  CE3       43.6410   11.5550   38.0830 C.ar  130  TRP130      0.0012
    121  CZ2       42.0190   13.5700   36.9190 C.ar  130  TRP130      0.0191
    122  CZ3       42.2520   11.4170   38.0040 C.ar  130  TRP130      0.0001
    123  CH2       41.4610   12.4230   37.4270 C.ar  130  TRP130      0.0015
    124  N         45.7000   10.0800   35.7680 N.am  131  LEU131     -0.1980
    125  CA        44.8350    8.9140   35.5230 C.3   131  LEU131      0.1596
    126  C         45.5670    7.5760   35.3820 C.2   131  LEU131      0.2287
    127  O         44.9490    6.5320   35.5970 O.2   131  LEU131     -0.2864
    128  CB        43.9720    9.1310   34.2720 C.3   131  LEU131      0.0297
    129  CG        42.7750   10.0640   34.4420 C.3   131  LEU131      0.0022
    130  CD1       42.2910   10.6240   33.1100 C.3   131  LEU131      0.0001
    131  CD2       41.6490    9.3180   35.1510 C.3   131  LEU131      0.0001
    132  N         43.9860    3.8800   36.8200 N.3   135  ILE135     -0.1245
    133  CA        43.5830    2.9830   35.7210 C.3   135  ILE135      0.1561
    134  C         44.3650    1.6580   35.7640 C.2   135  ILE135      0.2260
    135  O         43.7900    0.5870   35.5370 O.2   135  ILE135     -0.2867
    136  CB        43.6880    3.6940   34.3360 C.3   135  ILE135      0.0252
    137  CG1       42.6730    4.8450   34.2450 C.3   135  ILE135      0.0019
    138  CG2       43.4880    2.7270   33.1690 C.3   135  ILE135      0.0019
    139  CD1       41.2140    4.4460   34.3180 C.3   135  ILE135      0.0001
    140  N         42.7300   -0.2380   38.5900 N.3   138  LEU138     -0.1245
    141  CA        41.4540   -0.7610   38.0980 C.3   138  LEU138      0.1561
    142  C         41.6460   -1.9880   37.1960 C.2   138  LEU138      0.2260
    143  O         40.8850   -2.9460   37.2850 O.2   138  LEU138     -0.2867
    144  CB        40.6940    0.3360   37.3470 C.3   138  LEU138      0.0270
    145  CG        39.2680    0.0370   36.8920 C.3   138  LEU138      0.0019
    146  CD1       38.3820   -0.3710   38.0570 C.3   138  LEU138      0.0001
    147  CD2       38.7140    1.2660   36.1900 C.3   138  LEU138      0.0001
    148  N         35.9140   -7.2400   37.8430 N.3   144  THR144     -0.1218
    149  CA        35.3250   -6.1330   37.0700 C.3   144  THR144      0.1862
    150  C         35.6390   -6.2070   35.5750 C.2   144  THR144      0.2287
    151  O         34.7590   -5.9650   34.7670 O.2   144  THR144     -0.2866
    152  CB        35.7760   -4.7500   37.5890 C.3   144  THR144      0.1770
    153  OG1       35.4700   -4.6430   38.9840 O.3   144  THR144     -0.2211
    154  CG2       35.0910   -3.6180   36.8420 C.3   144  THR144      0.0375
    155  N         32.7370   -6.4800   32.9190 N.3   148  VAL148     -0.1245
    156  CA        32.5670   -5.4750   31.8450 C.3   148  VAL148      0.1561
    157  C         32.6220   -6.1380   30.4650 C.2   148  VAL148      0.2260
    158  O         31.7980   -5.8510   29.6100 O.2   148  VAL148     -0.2867
    159  CB        33.6000   -4.3230   31.9510 C.3   148  VAL148      0.0252
    160  CG1       33.5520   -3.4090   30.7300 C.3   148  VAL148      0.0019
    161  CG2       33.3450   -3.5080   33.2070 C.3   148  VAL148      0.0019
@<TRIPOS>BOND
     1    92    91    2
     2    82    83    1
     3    91    90    1
     4    64    65    1
     5    83    84    1
     6    83    86    1
     7    84    89   am
     8    84    85    2
     9    89    90    1
    10    90    93    1
    11    67    66    2
    12   158   157    2
    13    66    65    1
    14    58    59    2
    15    58    57    1
    16    98    99    2
    17    98    97    1
    18    65    68    1
    19    87    86    1
    20    86    88    1
    21   157   156    1
    22    96    97    1
    23    97   100    1
    24   160   159    1
    25    93    94    1
    26    93    95    1
    27    57    56    1
    28    57    60    1
    29    68    70    1
    30    68    69    1
    31   156   159    1
    32   156   155    1
    33    71    72    1
    34    74    73    2
    35   159   161    1
    36    60    61    1
    37   106   108   ar
    38   106   103   ar
    39   100   101    1
    40   108   109   ar
    41   103   101   ar
    42   103   105   ar
    43   101   102   ar
    44    73    72    1
    45    61    63    1
    46    61    62    1
    47   109   107   ar
    48   130   129    1
    49    72    75    1
    50   138   136    1
    51   105   107   ar
    52   105   104   ar
    53   102   104   ar
    54    75    76    1
    55   137   139    1
    56   137   136    1
    57   128   129    1
    58   128   125    1
    59   136   133    1
    60   129   131    1
    61    50    51    2
    62    50    49    1
    63    78    76   ar
    64    78    80   ar
    65   151   150    2
    66    76    77   ar
    67    49    48    1
    68    49    52    1
    69   126   125    1
    70   126   127    2
    71    54    52    1
    72   125   124    1
    73   135   134    2
    74   150   149    1
    75   110   111    1
    76   133   134    1
    77   133   132    1
    78   124   112   am
    79    80    81   ar
    80    77    79   ar
    81   147   145    1
    82    52    53    1
    83    12    11    1
    84   118   116   ar
    85   118   119   ar
    86   154   152    1
    87    53    55    1
    88   116   115   ar
    89   145   144    1
    90   145   146    1
    91   112   111    1
    92   112   113    2
    93   121   119   ar
    94   121   123   ar
    95   119   117   ar
    96   111   114    1
    97   149   152    1
    98   149   148    1
    99    81    79   ar
   100    11    10   ar
   101    11     9   ar
   102   142   143    2
   103   142   141    1
   104   144   141    1
   105    10     8   ar
   106   123   122   ar
   107   115   117   ar
   108   115   114    1
   109   117   120   ar
   110   152   153    1
   111     9     7   ar
   112    21    23   ar
   113    21    19   ar
   114   122   120   ar
   115    23    22   ar
   116   141   140    1
   117     8     6   ar
   118     7     6   ar
   119     6     5    1
   120    19    18   ar
   121    22    20   ar
   122     5     2    1
   123    18    20   ar
   124    18    17    1
   125    39    37    1
   126    47    45    1
   127    17    14    1
   128    37    36    1
   129     2     3    1
   130     2     1    1
   131     3     4    2
   132    38    36    1
   133    45    46    1
   134    45    44    1
   135    14    15    1
   136    14    13    1
   137    36    33    1
   138    15    16    2
   139    44    41    1
   140    33    32    1
   141    33    34    1
   142    31    29   ar
   143    32    26   am
   144    28    29    1
   145    28    25    1
   146    35    34    2
   147    26    27    2
   148    26    25    1
   149    29    30   ar
   150    41    42    1
   151    41    40    1
   152    43    42    2
   153    25    24    1
