@<TRIPOS>MOLECULE
tmp/5efoB00.pdb
 104 99 0 0 0
SMALL
GASTEIGER

@<TRIPOS>ATOM
      1  N         23.0660  -20.7220    5.9220 N.3    93  THR93      -0.1203
      2  CA        24.1210  -19.7530    6.2190 C.3    93  THR93       0.1994
      3  C         23.5130  -18.3660    6.3130 C.2    93  THR93       0.2619
      4  O         22.4300  -18.1200    5.7760 O.2    93  THR93      -0.2717
      5  CB        25.2140  -19.7260    5.1280 C.3    93  THR93       0.1784
      6  OG1       24.6590  -19.2350    3.8960 O.3    93  THR93      -0.2211
      7  CG2       25.8160  -21.1140    4.9270 C.3    93  THR93       0.0376
      8  N         24.2120  -17.4560    6.9850 N.am   94  THR94      -0.1938
      9  CA        23.6910  -16.1060    7.1590 C.3    94  THR94       0.2028
     10  C         24.7750  -15.0500    7.3260 C.2    94  THR94       0.2642
     11  O         25.8920  -15.3510    7.7410 O.2    94  THR94      -0.2714
     12  CB        22.7070  -16.0340    8.3440 C.3    94  THR94       0.1808
     13  OG1       22.0890  -14.7480    8.3520 O.3    94  THR94      -0.2208
     14  CG2       23.4210  -16.2760    9.6940 C.3    94  THR94       0.0379
     15  N         24.4270  -13.8090    6.9870 N.am   95  GLY95      -0.1954
     16  CA        25.2890  -12.6670    7.2530 C.3    95  GLY95       0.1869
     17  C         24.7770  -11.9230    8.4730 C.2    95  GLY95       0.2309
     18  O         23.6380  -11.4310    8.4770 O.2    95  GLY95      -0.2863
     19  N         19.9520  -11.0560   -2.8010 N.3   161  PHE161     -0.1241
     20  CA        21.2330  -11.0980   -2.0980 C.3   161  PHE161      0.1605
     21  C         21.8860   -9.7200   -2.0950 C.2   161  PHE161      0.2264
     22  O         22.6340   -9.3590   -1.1740 O.2   161  PHE161     -0.2867
     23  CB        22.1700  -12.1140   -2.7760 C.3   161  PHE161      0.0534
     24  CG        23.4510  -12.3780   -2.0110 C.ar  161  PHE161     -0.0203
     25  CD1       23.4760  -13.2920   -0.9560 C.ar  161  PHE161     -0.0042
     26  CD2       24.6340  -11.7200   -2.3580 C.ar  161  PHE161     -0.0042
     27  CE1       24.6590  -13.5440   -0.2700 C.ar  161  PHE161     -0.0003
     28  CE2       25.8200  -11.9620   -1.6720 C.ar  161  PHE161     -0.0003
     29  CZ        25.8290  -12.8710   -0.6180 C.ar  161  PHE161     -0.0000
     30  N         19.7880   -6.4760    0.5960 N.3   165  GLN165     -0.1245
     31  CA        20.7060   -6.5810    1.7530 C.3   165  GLN165      0.1566
     32  C         21.6550   -5.3740    1.7700 C.2   165  GLN165      0.2260
     33  O         22.6970   -5.3670    2.4410 O.2   165  GLN165     -0.2867
     34  CB        21.4590   -7.9280    1.7490 C.3   165  GLN165      0.0367
     35  CG        20.5080   -9.1180    1.7040 C.3   165  GLN165      0.0905
     36  CD        21.1850  -10.4530    1.9190 C.2   165  GLN165      0.2608
     37  OE1       22.2660  -10.5380    2.5150 O.2   165  GLN165     -0.2717
     38  NE2       20.5450  -11.5110    1.4390 N.am  165  GLN165     -0.0878
     39  N         23.7150   -4.0850   -0.4830 N.3   167  ARG167     -0.1245
     40  CA        25.0550   -4.2270   -1.0550 C.3   167  ARG167      0.1563
     41  C         25.1990   -3.2680   -2.2330 C.2   167  ARG167      0.2260
     42  O         24.3180   -3.2130   -3.0940 O.2   167  ARG167     -0.2867
     43  CB        25.2940   -5.6660   -1.5150 C.3   167  ARG167      0.0307
     44  CG        25.4290   -6.6620   -0.3700 C.3   167  ARG167      0.0489
     45  CD        25.8800   -8.0220   -0.8790 C.3   167  ARG167      0.2205
     46  NE        26.5510   -8.7750    0.1860 N.pl3 167  ARG167     -0.0865
     47  CZ        25.9350   -9.6140    1.0130 C.cat 167  ARG167      0.5346
     48  NH1       24.6360   -9.8420    0.8860 N.pl3 167  ARG167      0.1354
     49  NH2       26.6200  -10.2390    1.9610 N.pl3 167  ARG167      0.1354
     50  N         20.8440  -11.2320    7.9480 N.3   194  PHE194     -0.1227
     51  CA        20.1540  -11.3150    6.6570 C.3   194  PHE194      0.1736
     52  C         20.2310  -12.7580    6.1670 C.2   194  PHE194      0.2595
     53  O         21.2800  -13.3960    6.2850 O.2   194  PHE194     -0.2718
     54  CB        20.8690  -10.4790    5.5850 C.3   194  PHE194      0.0547
     55  CG        20.5200   -9.0110    5.5620 C.ar  194  PHE194     -0.0202
     56  CD1       19.2390   -8.5670    5.2030 C.ar  194  PHE194     -0.0042
     57  CD2       21.5100   -8.0620    5.8060 C.ar  194  PHE194     -0.0042
     58  CE1       18.9500   -7.2020    5.1510 C.ar  194  PHE194     -0.0003
     59  CE2       21.2280   -6.6960    5.7440 C.ar  194  PHE194     -0.0003
     60  CZ        19.9460   -6.2670    5.4280 C.ar  194  PHE194     -0.0000
     61  N         19.1310  -13.2470    5.5930 N.am  195  GLU195     -0.1965
     62  CA        19.1340  -14.4310    4.7270 C.3   195  GLU195      0.1733
     63  C         17.9440  -14.3080    3.7670 C.2   195  GLU195      0.2616
     64  O         17.3980  -13.2060    3.6230 O.2   195  GLU195     -0.2715
     65  CB        19.1500  -15.7550    5.5150 C.3   195  GLU195      0.0429
     66  CG        18.0670  -15.8940    6.5810 C.3   195  GLU195      0.1163
     67  CD        16.6970  -16.1540    5.9870 C.2   195  GLU195      0.3649
     68  OE1       15.8980  -15.1990    5.9080 O.co2 195  GLU195     -0.2457
     69  OE2       16.4210  -17.2970    5.5680 O.co2 195  GLU195     -0.2457
     70  N         17.5470  -15.4000    3.1110 N.am  196  MET196     -0.1977
     71  CA        16.6530  -15.2770    1.9430 C.3   196  MET196      0.1605
     72  C         15.4190  -16.1670    1.8740 C.2   196  MET196      0.2287
     73  O         14.7050  -16.1400    0.8680 O.2   196  MET196     -0.2864
     74  CB        17.4690  -15.4170    0.6470 C.3   196  MET196      0.0413
     75  CG        18.5390  -14.3420    0.4730 C.3   196  MET196      0.0598
     76  SD        19.4690  -14.4650   -1.0670 S.3   196  MET196     -0.1393
     77  CE        18.1740  -14.1470   -2.2690 C.3   196  MET196      0.0692
     78  N         28.3610  -16.8200    8.5900 N.3   219  ILE219     -0.1231
     79  CA        29.5150  -16.9380    7.6850 C.3   219  ILE219      0.1692
     80  C         30.1930  -15.5980    7.3750 C.2   219  ILE219      0.2591
     81  O         31.3540  -15.5540    6.9710 O.2   219  ILE219     -0.2718
     82  CB        29.1560  -17.6770    6.3680 C.3   219  ILE219      0.0266
     83  CG1       28.1840  -16.8470    5.5070 C.3   219  ILE219      0.0019
     84  CG2       28.6190  -19.0760    6.6590 C.3   219  ILE219      0.0020
     85  CD1       28.0590  -17.3050    4.0660 C.3   219  ILE219      0.0001
     86  N         29.4480  -14.5130    7.5570 N.am  220  ILE220     -0.1980
     87  CA        29.9070  -13.1700    7.2430 C.3   220  ILE220      0.1595
     88  C         29.3280  -12.2590    8.3210 C.2   220  ILE220      0.2287
     89  O         28.2220  -12.4940    8.8040 O.2   220  ILE220     -0.2864
     90  CB        29.4230  -12.7380    5.8280 C.3   220  ILE220      0.0276
     91  CG1       30.2980  -13.3740    4.7330 C.3   220  ILE220      0.0022
     92  CG2       29.4070  -11.2200    5.6730 C.3   220  ILE220      0.0022
     93  CD1       29.6280  -13.4670    3.3740 C.3   220  ILE220      0.0001
     94  N         28.6000   -8.2270    8.4790 N.3   222  ARG222     -0.1245
     95  CA        28.6390   -7.0430    7.6250 C.3   222  ARG222      0.1563
     96  C         29.4000   -5.8750    8.2440 C.2   222  ARG222      0.2260
     97  O         29.8280   -4.9620    7.5280 O.2   222  ARG222     -0.2867
     98  CB        27.2240   -6.6270    7.2130 C.3   222  ARG222      0.0307
     99  CG        26.5320   -7.6330    6.3000 C.3   222  ARG222      0.0489
    100  CD        27.1610   -7.6970    4.9160 C.3   222  ARG222      0.2205
    101  NE        26.9480   -6.4650    4.1490 N.pl3 222  ARG222     -0.0865
    102  CZ        25.8020   -6.1330    3.5490 C.cat 222  ARG222      0.5346
    103  NH1       25.7150   -4.9860    2.8850 N.pl3 222  ARG222      0.1354
    104  NH2       24.7420   -6.9310    3.6160 N.pl3 222  ARG222      0.1354
@<TRIPOS>BOND
     1    42    41    2
     2    19    20    1
     3    23    20    1
     4    23    24    1
     5    26    24   ar
     6    26    28   ar
     7    77    76    1
     8    41    40    1
     9    20    21    1
    10    21    22    2
    11    24    25   ar
    12    28    29   ar
    13    43    40    1
    14    43    44    1
    15    76    75    1
    16    40    39    1
    17    25    27   ar
    18    45    44    1
    19    45    46    1
    20    29    27   ar
    21    46    47    2
    22    75    74    1
    23    30    31    1
    24    74    71    1
    25    73    72    2
    26    48    47    1
    27    47    49    1
    28    38    36   am
    29    35    34    1
    30    35    36    1
    31    34    31    1
    32    31    32    1
    33    32    33    2
    34    72    71    1
    35    36    37    2
    36    71    70    1
    37   103   102    1
    38    70    63   am
    39    93    91    1
    40   102   104    1
    41   102   101    2
    42    64    63    2
    43    63    62    1
    44     6     5    1
    45    85    83    1
    46   101   100    1
    47    62    65    1
    48    62    61    1
    49    91    90    1
    50   100    99    1
    51     7     5    1
    52     5     2    1
    53    58    56   ar
    54    58    60   ar
    55    56    55   ar
    56    60    59   ar
    57    83    82    1
    58    65    66    1
    59    55    54    1
    60    55    57   ar
    61    69    67   ar
    62    54    51    1
    63    61    52   am
    64    92    90    1
    65    59    57   ar
    66     4     3    2
    67    90    87    1
    68    68    67   ar
    69     1     2    1
    70    67    66    1
    71    52    53    2
    72    52    51    1
    73     2     3    1
    74    99    98    1
    75     3     8   am
    76    82    84    1
    77    82    79    1
    78    51    50    1
    79    81    80    2
    80     8     9    1
    81    15    16    1
    82    15    10   am
    83     9    10    1
    84     9    12    1
    85    98    95    1
    86    87    86    1
    87    87    88    1
    88    16    17    1
    89    10    11    2
    90    80    86   am
    91    80    79    1
    92    97    96    2
    93    95    96    1
    94    95    94    1
    95    79    78    1
    96    88    89    2
    97    12    13    1
    98    12    14    1
    99    17    18    2
