@<TRIPOS>MOLECULE
tmp/5efoF00.pdb
 136 128 0 0 0
SMALL
GASTEIGER

@<TRIPOS>ATOM
      1  N         -3.7130   14.8330  -27.9250 N.3    23  GLY23      -0.1225
      2  CA        -4.1860   15.4740  -26.6980 C.3    23  GLY23       0.1811
      3  C         -4.9560   16.7570  -26.9640 C.2    23  GLY23       0.2280
      4  O         -6.0040   16.9950  -26.3660 O.2    23  GLY23      -0.2866
      5  N         -5.8130   16.7300  -21.6330 N.3    66  ILE66      -0.1245
      6  CA        -4.6470   16.3960  -20.8040 C.3    66  ILE66       0.1561
      7  C         -5.0670   15.4320  -19.6940 C.2    66  ILE66       0.2260
      8  O         -6.0520   15.6690  -18.9870 O.2    66  ILE66      -0.2867
      9  CB        -4.0060   17.6700  -20.1920 C.3    66  ILE66       0.0252
     10  CG1       -3.4090   18.5630  -21.2870 C.3    66  ILE66       0.0019
     11  CG2       -2.9330   17.3150  -19.1660 C.3    66  ILE66       0.0019
     12  CD1       -3.0930   19.9720  -20.8210 C.3    66  ILE66       0.0001
     13  N         -1.8070    6.8330  -30.0080 N.3    88  ARG88      -0.1245
     14  CA        -1.5630    8.0940  -29.3400 C.3    88  ARG88       0.1563
     15  C         -0.3620    8.8130  -29.9490 C.2    88  ARG88       0.2260
     16  O          0.6860    8.2010  -30.1780 O.2    88  ARG88      -0.2867
     17  CB        -1.3200    7.8310  -27.8630 C.3    88  ARG88       0.0307
     18  CG        -0.8240    9.0320  -27.0910 C.3    88  ARG88       0.0489
     19  CD        -1.9680    9.6290  -26.3280 C.3    88  ARG88       0.2205
     20  NE        -1.5920   10.8470  -25.6310 N.pl3  88  ARG88      -0.0865
     21  CZ        -2.3730   11.9150  -25.5850 C.cat  88  ARG88       0.5346
     22  NH1       -3.5430   11.8970  -26.2210 N.pl3  88  ARG88       0.1354
     23  NH2       -1.9820   12.9930  -24.9230 N.pl3  88  ARG88       0.1354
     24  N          3.2440   15.3650  -27.1580 N.3    91  THR91      -0.1203
     25  CA         4.4980   16.0420  -26.8450 C.3    91  THR91       0.1994
     26  C          5.0900   15.4070  -25.6110 C.2    91  THR91       0.2619
     27  O          4.3740   14.7680  -24.8310 O.2    91  THR91      -0.2717
     28  CB         4.2910   17.5430  -26.5700 C.3    91  THR91       0.1784
     29  OG1        3.3810   17.7100  -25.4730 O.3    91  THR91      -0.2211
     30  CG2        3.7530   18.2580  -27.8170 C.3    91  THR91       0.0376
     31  N          6.3930   15.5900  -25.4280 N.am   92  THR92      -0.1938
     32  CA         7.0840   14.9790  -24.3020 C.3    92  THR92       0.2028
     33  C          8.3650   15.7140  -23.9260 C.2    92  THR92       0.2642
     34  O          9.0000   16.3590  -24.7660 O.2    92  THR92      -0.2714
     35  CB         7.3650   13.4780  -24.5580 C.3    92  THR92       0.1808
     36  OG1        7.7260   12.8540  -23.3230 O.3    92  THR92      -0.2208
     37  CG2        8.4940   13.2750  -25.5790 C.3    92  THR92       0.0379
     38  N          8.7220   15.6220  -22.6460 N.am   93  GLY93      -0.1954
     39  CA         9.9730   16.1730  -22.1500 C.3    93  GLY93       0.1869
     40  C         10.9330   15.0370  -21.8900 C.2    93  GLY93       0.2309
     41  O         10.6330   14.1390  -21.0920 O.2    93  GLY93      -0.2863
     42  N          1.8790   17.8830  -14.2260 N.3   159  PHE159     -0.1241
     43  CA         2.9240   18.4650  -15.0470 C.3   159  PHE159      0.1605
     44  C          4.0520   18.9610  -14.1500 C.2   159  PHE159      0.2264
     45  O          5.2170   19.0030  -14.5550 O.2   159  PHE159     -0.2867
     46  CB         2.3430   19.6360  -15.8500 C.3   159  PHE159      0.0534
     47  CG         3.3010   20.2320  -16.8420 C.ar  159  PHE159     -0.0203
     48  CD1        3.5060   19.6270  -18.0840 C.ar  159  PHE159     -0.0042
     49  CD2        3.9950   21.4000  -16.5410 C.ar  159  PHE159     -0.0042
     50  CE1        4.3800   20.1860  -19.0070 C.ar  159  PHE159     -0.0003
     51  CE2        4.8690   21.9610  -17.4610 C.ar  159  PHE159     -0.0003
     52  CZ         5.0680   21.3540  -18.6910 C.ar  159  PHE159     -0.0000
     53  N          6.5550   15.6310  -12.0860 N.3   163  GLN163     -0.1245
     54  CA         7.7090   15.6870  -12.9810 C.3   163  GLN163      0.1566
     55  C          8.8820   16.4160  -12.3070 C.2   163  GLN163      0.2260
     56  O          9.8280   16.8500  -12.9640 O.2   163  GLN163     -0.2867
     57  CB         7.3050   16.3110  -14.3240 C.3   163  GLN163      0.0367
     58  CG         6.1400   15.5630  -14.9590 C.3   163  GLN163      0.0905
     59  CD         5.8230   16.0030  -16.3810 C.2   163  GLN163      0.2608
     60  OE1        6.6880   16.4880  -17.1080 O.2   163  GLN163     -0.2717
     61  NE2        4.5720   15.8150  -16.7850 N.am  163  GLN163     -0.0878
     62  N          9.2360   19.4140  -10.9440 N.3   165  ARG165     -0.1245
     63  CA         9.4700   20.8340  -11.2210 C.3   165  ARG165      0.1563
     64  C          9.3460   21.6300   -9.9220 C.2   165  ARG165      0.2260
     65  O          8.3690   21.4600   -9.1850 O.2   165  ARG165     -0.2867
     66  CB         8.4730   21.3560  -12.2660 C.3   165  ARG165      0.0307
     67  CG         8.6930   20.7780  -13.6630 C.3   165  ARG165      0.0489
     68  CD         7.7940   21.4540  -14.6870 C.3   165  ARG165      0.2205
     69  NE         8.3450   21.3430  -16.0440 N.pl3 165  ARG165     -0.0865
     70  CZ         8.0800   20.3450  -16.8820 C.cat 165  ARG165      0.5346
     71  NH1        7.2670   19.3680  -16.5120 N.pl3 165  ARG165      0.1354
     72  NH2        8.6310   20.3180  -18.0900 N.pl3 165  ARG165      0.1354
     73  N          9.0540   12.1610  -19.7140 N.3   192  PHE192     -0.1227
     74  CA         7.8110   12.4010  -18.9750 C.3   192  PHE192      0.1736
     75  C          6.6910   12.7730  -19.9450 C.2   192  PHE192      0.2595
     76  O          6.9030   13.5770  -20.8540 O.2   192  PHE192     -0.2718
     77  CB         7.9560   13.5970  -18.0210 C.3   192  PHE192      0.0547
     78  CG         8.6250   13.2880  -16.7110 C.ar  192  PHE192     -0.0202
     79  CD1        8.0160   12.4580  -15.7610 C.ar  192  PHE192     -0.0042
     80  CD2        9.8300   13.8920  -16.3890 C.ar  192  PHE192     -0.0042
     81  CE1        8.6330   12.2070  -14.5350 C.ar  192  PHE192     -0.0003
     82  CE2       10.4470   13.6470  -15.1640 C.ar  192  PHE192     -0.0003
     83  CZ         9.8500   12.7980  -14.2450 C.ar  192  PHE192     -0.0000
     84  N          5.5110   12.1960  -19.7410 N.am  193  GLU193     -0.1965
     85  CA         4.2650   12.7230  -20.3190 C.3   193  GLU193      0.1733
     86  C          3.1230   12.3870  -19.3480 C.2   193  GLU193      0.2616
     87  O          3.4070   12.0060  -18.2040 O.2   193  GLU193     -0.2715
     88  CB         4.0400   12.2490  -21.7750 C.3   193  GLU193      0.0429
     89  CG         4.0760   10.7410  -21.9820 C.3   193  GLU193      0.1163
     90  CD         2.8350   10.0590  -21.4520 C.2   193  GLU193      0.3649
     91  OE1        1.7720   10.1540  -22.1080 O.co2 193  GLU193     -0.2457
     92  OE2        2.9210    9.4410  -20.3690 O.co2 193  GLU193     -0.2457
     93  N          1.8570   12.5260  -19.7610 N.am  194  MET194     -0.1963
     94  CA         0.7540   12.4800  -18.7820 C.3   194  MET194      0.1736
     95  C         -0.4460   11.5730  -19.0850 C.2   194  MET194      0.2616
     96  O         -1.4530   11.6090  -18.3580 O.2   194  MET194     -0.2715
     97  CB         0.2570   13.9070  -18.4990 C.3   194  MET194      0.0427
     98  CG         1.3230   14.8380  -17.9020 C.3   194  MET194      0.0599
     99  SD         0.7730   16.5370  -17.6290 S.3   194  MET194     -0.1393
    100  CE        -0.5500   16.3050  -16.4360 C.3   194  MET194      0.0692
    101  N         -0.3520   10.7590  -20.1360 N.am  195  GLU195     -0.1977
    102  CA        -1.4940    9.9450  -20.5700 C.3   195  GLU195      0.1602
    103  C         -1.2410    8.4550  -20.8210 C.2   195  GLU195      0.2287
    104  O         -2.1850    7.6540  -20.7590 O.2   195  GLU195     -0.2864
    105  CB        -2.1250   10.5510  -21.8360 C.3   195  GLU195      0.0415
    106  CG        -2.7960   11.8970  -21.6270 C.3   195  GLU195      0.1163
    107  CD        -1.8370   13.0760  -21.7290 C.2   195  GLU195      0.3649
    108  OE1       -0.7810   12.9310  -22.3810 O.co2 195  GLU195     -0.2457
    109  OE2       -2.1490   14.1520  -21.1650 O.co2 195  GLU195     -0.2457
    110  N          9.8800   17.8420  -27.1980 N.3   217  ILE217     -0.1231
    111  CA         9.7850   19.3090  -27.2980 C.3   217  ILE217      0.1692
    112  C         10.7830   20.0400  -26.3930 C.2   217  ILE217      0.2591
    113  O         11.2080   21.1530  -26.7020 O.2   217  ILE217     -0.2718
    114  CB         8.3350   19.8510  -27.1300 C.3   217  ILE217      0.0266
    115  CG1        7.7460   19.5090  -25.7500 C.3   217  ILE217      0.0019
    116  CG2        7.4450   19.3450  -28.2630 C.3   217  ILE217      0.0020
    117  CD1        6.5120   20.3110  -25.3770 C.3   217  ILE217      0.0001
    118  N         11.1510   19.4060  -25.2850 N.am  218  ILE218     -0.1980
    119  CA        12.2070   19.9050  -24.3900 C.3   218  ILE218      0.1595
    120  C         13.0600   18.7710  -23.8170 C.2   218  ILE218      0.2287
    121  O         12.6130   17.6250  -23.7190 O.2   218  ILE218     -0.2864
    122  CB        11.6560   20.7510  -23.2050 C.3   218  ILE218      0.0276
    123  CG1       10.5850   19.9910  -22.4130 C.3   218  ILE218      0.0022
    124  CG2       11.1400   22.1060  -23.6560 C.3   218  ILE218      0.0022
    125  CD1       11.0710   19.5040  -21.0660 C.3   218  ILE218      0.0001
    126  N         14.9830   18.1300  -20.2330 N.3   220  ARG220     -0.1245
    127  CA        15.1170   18.6070  -18.8460 C.3   220  ARG220      0.1563
    128  C         16.5690   18.7110  -18.3440 C.2   220  ARG220      0.2260
    129  O         16.8140   19.2580  -17.2610 O.2   220  ARG220     -0.2867
    130  CB        14.3070   17.7150  -17.8930 C.3   220  ARG220      0.0307
    131  CG        12.7900   17.7320  -18.0980 C.3   220  ARG220      0.0489
    132  CD        12.1280   19.0160  -17.6000 C.3   220  ARG220      0.2205
    133  NE        12.3260   19.2400  -16.1650 N.pl3 220  ARG220     -0.0865
    134  CZ        11.6520   18.6170  -15.1960 C.cat 220  ARG220      0.5346
    135  NH1       11.9240   18.8960  -13.9210 N.pl3 220  ARG220      0.1354
    136  NH2       10.7170   17.7150  -15.4900 N.pl3 220  ARG220      0.1354
@<TRIPOS>BOND
     1    16    15    2
     2    13    14    1
     3    15    14    1
     4    14    17    1
     5   116   114    1
     6     1     2    1
     7    17    18    1
     8    30    28    1
     9   111   110    1
    10   111   114    1
    11   111   112    1
    12    24    25    1
    13   114   115    1
    14    18    19    1
    15     3     2    1
    16     3     4    2
    17    25    28    1
    18    25    26    1
    19   113   112    2
    20    28    29    1
    21   112   118   am
    22    19    20    1
    23    22    21    1
    24   115   117    1
    25    20    21    2
    26    26    31   am
    27    26    27    2
    28    21    23    1
    29    37    35    1
    30    31    32    1
    31   118   119    1
    32    34    33    2
    33    35    32    1
    34    35    36    1
    35   119   120    1
    36   119   122    1
    37    32    33    1
    38    33    38   am
    39   120   121    2
    40   124   122    1
    41   122   123    1
    42    38    39    1
    43   123   125    1
    44   108   107   ar
    45    39    40    1
    46    91    90   ar
    47    89    88    1
    48    89    90    1
    49    40    41    2
    50   105   106    1
    51   105   102    1
    52    88    85    1
    53   107   106    1
    54   107   109   ar
    55     5     6    1
    56    90    92   ar
    57    10    12    1
    58    10     9    1
    59    76    75    2
    60   103   104    2
    61   103   102    1
    62     6     9    1
    63     6     7    1
    64   102   101    1
    65    85    84    1
    66    85    86    1
    67   126   127    1
    68     9    11    1
    69   101    95   am
    70    75    84   am
    71    75    74    1
    72    93    86   am
    73    93    94    1
    74    73    74    1
    75     7     8    2
    76    86    87    2
    77    95    94    1
    78    95    96    2
    79    50    52   ar
    80    50    48   ar
    81    74    77    1
    82   127   128    1
    83   127   130    1
    84    94    97    1
    85    52    51   ar
    86    97    98    1
    87   128   129    2
    88   131   130    1
    89   131   132    1
    90    72    70    1
    91    48    47   ar
    92    77    78    1
    93    98    99    1
    94    99   100    1
    95   132   133    1
    96    51    49   ar
    97    60    59    2
    98    70    71    1
    99    70    69    2
   100    47    49   ar
   101    47    46    1
   102    61    59   am
   103    78    80   ar
   104    78    79   ar
   105    80    82   ar
   106    59    58    1
   107   133   134    2
   108    69    68    1
   109    46    43    1
   110    79    81   ar
   111   136   134    1
   112   134   135    1
   113    82    83   ar
   114    43    42    1
   115    43    44    1
   116    58    57    1
   117    68    67    1
   118    45    44    2
   119    81    83   ar
   120    57    54    1
   121    67    66    1
   122    54    55    1
   123    54    53    1
   124    56    55    2
   125    66    63    1
   126    63    62    1
   127    63    64    1
   128    64    65    2
