@<TRIPOS>MOLECULE
tmp/5efqA00.pdb
 201 192 0 0 0
SMALL
GASTEIGER

@<TRIPOS>ATOM
      1  N         23.0770   -1.0830  -28.6740 N.3    17  ILE17      -0.1231
      2  CA        21.8500   -0.5630  -28.0530 C.3    17  ILE17       0.1692
      3  C         21.7290   -0.9370  -26.5850 C.2    17  ILE17       0.2593
      4  O         20.8400   -0.4600  -25.8760 O.2    17  ILE17      -0.2718
      5  CB        20.5880   -1.0530  -28.7800 C.3    17  ILE17       0.0266
      6  CG1       20.7000   -2.5460  -29.0750 C.3    17  ILE17       0.0019
      7  CG2       20.3580   -0.2460  -30.0610 C.3    17  ILE17       0.0020
      8  CD1       19.4420   -3.1490  -29.6110 C.3    17  ILE17       0.0001
      9  N         22.6220   -1.7980  -26.1250 N.am   18  GLY18      -0.1942
     10  CA        22.6090   -2.1910  -24.7350 C.3    18  GLY18       0.2014
     11  C         23.9450   -2.7370  -24.3090 C.2    18  GLY18       0.2639
     12  O         24.6880   -3.3080  -25.1180 O.2    18  GLY18      -0.2714
     13  N         24.2940   -2.4920  -23.0540 N.am   19  GLU19      -0.1963
     14  CA        25.3800   -3.2320  -22.4430 C.3    19  GLU19       0.1733
     15  C         24.7580   -4.2830  -21.5430 C.2    19  GLU19       0.2617
     16  O         23.8880   -3.9890  -20.7250 O.2    19  GLU19      -0.2715
     17  CB        26.3360   -2.3040  -21.7070 C.3    19  GLU19       0.0429
     18  CG        27.0780   -1.4010  -22.6840 C.3    19  GLU19       0.1163
     19  CD        28.0760   -0.4860  -22.0150 C.2    19  GLU19       0.3649
     20  OE1       29.0110   -1.0000  -21.3650 O.co2  19  GLU19      -0.2457
     21  OE2       27.9280    0.7480  -22.1480 O.co2  19  GLU19      -0.2457
     22  N         25.2020   -5.5170  -21.7070 N.am   20  GLY20      -0.1940
     23  CA        24.5770   -6.6270  -21.0250 C.3    20  GLY20       0.2014
     24  C         25.5030   -7.3130  -20.0460 C.2    20  GLY20       0.2640
     25  O         26.6660   -6.9420  -19.9110 O.2    20  GLY20      -0.2714
     26  N         24.9550   -8.2630  -19.3010 N.am   21  THR21      -0.1936
     27  CA        25.7320   -8.9880  -18.3120 C.3    21  THR21       0.2028
     28  C         27.0080   -9.5720  -18.9280 C.2    21  THR21       0.2642
     29  O         28.1160   -9.2610  -18.4970 O.2    21  THR21      -0.2714
     30  CB        24.9020  -10.1220  -17.6810 C.3    21  THR21       0.1808
     31  OG1       23.5910   -9.6380  -17.3680 O.3    21  THR21      -0.2208
     32  CG2       25.5680  -10.6290  -16.4170 C.3    21  THR21       0.0379
     33  N         26.8440  -10.4060  -19.9510 N.am   22  TYR22      -0.1973
     34  CA        27.9610  -11.1630  -20.5160 C.3    22  TYR22       0.1639
     35  C         28.3960  -10.6890  -21.8990 C.2    22  TYR22       0.2290
     36  O         29.2340  -11.3190  -22.5410 O.2    22  TYR22      -0.2864
     37  CB        27.6020  -12.6480  -20.5800 C.3    22  TYR22       0.0560
     38  CG        26.2220  -12.9160  -21.1330 C.ar   22  TYR22      -0.0198
     39  CD1       25.9670  -12.7880  -22.4920 C.ar   22  TYR22      -0.0009
     40  CD2       25.1700  -13.2860  -20.2970 C.ar   22  TYR22      -0.0009
     41  CE1       24.7150  -13.0310  -23.0060 C.ar   22  TYR22       0.0417
     42  CE2       23.9040  -13.5300  -20.8040 C.ar   22  TYR22       0.0417
     43  CZ        23.6860  -13.3990  -22.1630 C.ar   22  TYR22       0.1957
     44  OH        22.4420  -13.6380  -22.6950 O.3    22  TYR22      -0.2866
     45  N         24.9040   -5.5260  -26.3380 N.3    25  VAL25      -0.1245
     46  CA        23.7170   -5.8380  -27.1250 C.3    25  VAL25       0.1561
     47  C         23.6710   -4.9320  -28.3760 C.2    25  VAL25       0.2260
     48  O         23.7690   -3.7050  -28.2660 O.2    25  VAL25      -0.2867
     49  CB        22.4370   -5.6540  -26.3420 C.3    25  VAL25       0.0252
     50  CG1       21.2490   -6.0150  -27.2240 C.3    25  VAL25       0.0019
     51  CG2       22.4600   -6.5190  -25.0450 C.3    25  VAL25       0.0019
     52  N         17.9420   -8.2350  -32.7160 N.3    38  ALA38      -0.1245
     53  CA        18.8770   -7.8190  -31.6930 C.3    38  ALA38       0.1562
     54  C         19.8840   -8.9430  -31.4720 C.2    38  ALA38       0.2260
     55  O         19.5380  -10.1310  -31.4750 O.2    38  ALA38      -0.2867
     56  CB        18.1590   -7.4580  -30.4110 C.3    38  ALA38       0.0290
     57  N         22.6190  -10.3380  -28.7920 N.3    40  LYS40      -0.1245
     58  CA        23.3500  -10.3370  -27.5390 C.3    40  LYS40       0.1561
     59  C         24.6380  -11.1430  -27.7260 C.2    40  LYS40       0.2260
     60  O         24.6100  -12.3510  -27.9290 O.2    40  LYS40      -0.2867
     61  CB        22.4790  -10.8960  -26.3970 C.3    40  LYS40       0.0271
     62  CG        21.3200   -9.9680  -26.0470 C.3    40  LYS40       0.0035
     63  CD        20.4310  -10.5510  -24.9350 C.3    40  LYS40       0.0206
     64  CE        21.2000  -10.7000  -23.6190 C.3    40  LYS40       0.1093
     65  NZ        20.3220  -11.0620  -22.4470 N.3    40  LYS40      -0.1314
     66  N         19.4220  -18.4020  -20.0590 N.3    58  GLU58      -0.1245
     67  CA        18.5190  -17.7560  -21.0080 C.3    58  GLU58       0.1567
     68  C         18.2020  -18.6600  -22.1810 C.2    58  GLU58       0.2260
     69  O         17.0550  -18.7610  -22.5990 O.2    58  GLU58      -0.2867
     70  CB        19.1070  -16.4640  -21.5500 C.3    58  GLU58       0.0388
     71  CG        19.1030  -15.3060  -20.6050 C.3    58  GLU58       0.1160
     72  CD        19.7030  -14.0900  -21.2530 C.2    58  GLU58       0.3649
     73  OE1       20.7840  -13.6530  -20.8060 O.co2  58  GLU58      -0.2457
     74  OE2       19.0960  -13.5850  -22.2250 O.co2  58  GLU58      -0.2457
     75  N          9.7110  -12.5160  -25.3020 N.3    71  ILE71      -0.1245
     76  CA        10.6990  -12.3430  -26.3780 C.3    71  ILE71       0.1561
     77  C         11.1790  -13.6980  -26.9170 C.2    71  ILE71       0.2260
     78  O         11.4240  -14.6580  -26.1590 O.2    71  ILE71      -0.2867
     79  CB        11.9170  -11.4930  -25.9230 C.3    71  ILE71       0.0252
     80  CG1       12.6490  -10.8980  -27.1380 C.3    71  ILE71       0.0019
     81  CG2       12.8600  -12.2950  -25.0000 C.3    71  ILE71       0.0019
     82  CD1       11.8030   -9.8960  -27.9290 C.3    71  ILE71       0.0001
     83  N         17.7140  -12.1450  -31.3420 N.3    88  PHE88      -0.1227
     84  CA        16.2960  -11.9470  -31.0070 C.3    88  PHE88       0.1736
     85  C         15.5800  -11.0620  -32.0050 C.2    88  PHE88       0.2595
     86  O         16.2100  -10.2640  -32.6930 O.2    88  PHE88      -0.2718
     87  CB        16.1120  -11.3160  -29.6080 C.3    88  PHE88       0.0547
     88  CG        16.7580  -12.0850  -28.4810 C.ar   88  PHE88      -0.0202
     89  CD1       18.0880  -11.8840  -28.1590 C.ar   88  PHE88      -0.0042
     90  CD2       16.0250  -12.9910  -27.7330 C.ar   88  PHE88      -0.0042
     91  CE1       18.6760  -12.5820  -27.1080 C.ar   88  PHE88      -0.0003
     92  CE2       16.6080  -13.6880  -26.6890 C.ar   88  PHE88      -0.0003
     93  CZ        17.9340  -13.4830  -26.3830 C.ar   88  PHE88      -0.0000
     94  N         14.2520  -11.1490  -32.0270 N.am   89  GLU89      -0.1965
     95  CA        13.4660  -10.1940  -32.7890 C.3    89  GLU89       0.1733
     96  C         13.8220   -8.8140  -32.2690 C.2    89  GLU89       0.2616
     97  O         14.0140   -8.6320  -31.0660 O.2    89  GLU89      -0.2715
     98  CB        11.9690  -10.4640  -32.6420 C.3    89  GLU89       0.0429
     99  CG        11.5440  -11.8780  -33.0990 C.3    89  GLU89       0.1163
    100  CD        10.0330  -12.0890  -33.3180 C.2    89  GLU89       0.3649
    101  OE1        9.2080  -11.2610  -32.9160 O.co2  89  GLU89      -0.2457
    102  OE2        9.6710  -13.0930  -33.9330 O.co2  89  GLU89      -0.2457
    103  N         13.9520   -7.8530  -33.1730 N.am   90  TYR90      -0.1960
    104  CA        14.3320   -6.5120  -32.7660 C.3    90  TYR90       0.1771
    105  C         13.1250   -5.7730  -32.1770 C.2    90  TYR90       0.2619
    106  O         12.0410   -5.7610  -32.7600 O.2    90  TYR90      -0.2715
    107  CB        14.9320   -5.7040  -33.9430 C.3    90  TYR90       0.0574
    108  CG        15.4610   -4.3960  -33.4360 C.ar   90  TYR90      -0.0198
    109  CD1       16.5820   -4.3680  -32.6160 C.ar   90  TYR90      -0.0009
    110  CD2       14.8140   -3.2060  -33.6990 C.ar   90  TYR90      -0.0009
    111  CE1       17.0580   -3.1890  -32.0940 C.ar   90  TYR90       0.0417
    112  CE2       15.2840   -2.0080  -33.1730 C.ar   90  TYR90       0.0417
    113  CZ        16.4110   -2.0090  -32.3710 C.ar   90  TYR90       0.1957
    114  OH        16.9000   -0.8360  -31.8360 O.3    90  TYR90      -0.2866
    115  N         13.3230   -5.1830  -31.0030 N.am   91  MET91      -0.1977
    116  CA        12.2900   -4.4280  -30.3160 C.3    91  MET91       0.1605
    117  C         12.7640   -2.9930  -30.2260 C.2    91  MET91       0.2287
    118  O         13.8280   -2.7230  -29.6800 O.2    91  MET91      -0.2864
    119  CB        12.0020   -5.0070  -28.9070 C.3    91  MET91       0.0413
    120  CG        11.4350   -6.4100  -28.9550 C.3    91  MET91       0.0598
    121  SD         9.8290   -6.4880  -29.7690 S.3    91  MET91      -0.1393
    122  CE        10.0320   -7.9670  -30.7620 C.3    91  MET91       0.0692
    123  N         12.5290   -0.0780  -24.9560 N.3    94  ASP94      -0.1239
    124  CA        12.1200   -0.7190  -23.7200 C.3    94  ASP94       0.1674
    125  C         11.4380    0.3490  -22.8670 C.2    94  ASP94       0.2266
    126  O         11.5550    1.5410  -23.1570 O.2    94  ASP94      -0.2867
    127  CB        13.2980   -1.3830  -22.9830 C.3    94  ASP94       0.1410
    128  CG        14.3030   -0.3900  -22.4160 C.2    94  ASP94       0.3668
    129  OD1       13.9140    0.5060  -21.6430 O.co2  94  ASP94      -0.2456
    130  OD2       15.5090   -0.5470  -22.6950 O.co2  94  ASP94      -0.2456
    131  N         11.3390   -5.5120  -14.2870 N.3   136  LYS136     -0.1245
    132  CA        11.5060   -4.0710  -14.1030 C.3   136  LYS136      0.1561
    133  C         11.4030   -3.4530  -15.5010 C.2   136  LYS136      0.2260
    134  O         11.3910   -4.1890  -16.4820 O.2   136  LYS136     -0.2867
    135  CB        12.8410   -3.7270  -13.4570 C.3   136  LYS136      0.0271
    136  CG        14.0590   -4.2310  -14.2390 C.3   136  LYS136      0.0035
    137  CD        15.3120   -3.5910  -13.6940 C.3   136  LYS136      0.0206
    138  CE        16.5230   -4.4560  -13.9000 C.3   136  LYS136      0.1093
    139  NZ        17.6650   -3.8840  -13.1440 N.3   136  LYS136     -0.1314
    140  N         13.3010   -1.7510  -17.6770 N.3   138  SER138     -0.1202
    141  CA        14.3010   -1.9750  -18.7460 C.3   138  SER138      0.2020
    142  C         14.1960   -3.3850  -19.3210 C.2   138  SER138      0.2618
    143  O         14.7500   -3.6690  -20.3820 O.2   138  SER138     -0.2717
    144  CB        15.7310   -1.7080  -18.2460 C.3   138  SER138      0.2103
    145  OG        16.1570   -2.6540  -17.2670 O.3   138  SER138     -0.2182
    146  N         13.4610   -4.2630  -18.6400 N.am  139  ASN139     -0.1974
    147  CA        13.3270   -5.6530  -19.0810 C.3   139  ASN139      0.1688
    148  C         11.9780   -5.9230  -19.7350 C.2   139  ASN139      0.2292
    149  O         11.6310   -7.0730  -20.0270 O.2   139  ASN139     -0.2864
    150  CB        13.5520   -6.6140  -17.9070 C.3   139  ASN139      0.1181
    151  CG        15.0130   -6.7290  -17.5310 C.2   139  ASN139      0.2629
    152  OD1       15.9000   -6.4270  -18.3360 O.2   139  ASN139     -0.2716
    153  ND2       15.2740   -7.1560  -16.3090 N.am  139  ASN139     -0.0877
    154  N         10.2000   -4.8760  -23.1900 N.3   141  LEU141     -0.1245
    155  CA        10.4610   -4.2900  -24.5090 C.3   141  LEU141      0.1561
    156  C          9.1460   -3.9500  -25.1920 C.2   141  LEU141      0.2260
    157  O          8.1500   -4.6280  -24.9540 O.2   141  LEU141     -0.2867
    158  CB        11.2790   -5.2690  -25.3640 C.3   141  LEU141      0.0270
    159  CG        12.5330   -5.8200  -24.6750 C.3   141  LEU141      0.0019
    160  CD1       13.2560   -6.8690  -25.5200 C.3   141  LEU141      0.0001
    161  CD2       13.4900   -4.6910  -24.2430 C.3   141  LEU141      0.0001
    162  N         11.1920   -9.7170  -21.2500 N.3   151  ALA151     -0.1231
    163  CA        12.5280  -10.1070  -21.7130 C.3   151  ALA151      0.1694
    164  C         13.5120  -10.2160  -20.5420 C.2   151  ALA151      0.2592
    165  O         13.1530   -9.9560  -19.3900 O.2   151  ALA151     -0.2718
    166  CB        13.0800   -9.0450  -22.7770 C.3   151  ALA151      0.0304
    167  N         14.7460  -10.6120  -20.8600 N.am  152  ASP152     -0.1974
    168  CA        15.8020  -10.8260  -19.8740 C.3   152  ASP152      0.1709
    169  C         15.8300  -11.9830  -18.8560 C.2   152  ASP152      0.2293
    170  O         15.9560  -11.7760  -17.6250 O.2   152  ASP152     -0.2864
    171  CB        16.1240   -9.5380  -19.1190 C.3   152  ASP152      0.1436
    172  CG        17.3980   -9.6500  -18.3090 C.2   152  ASP152      0.3671
    173  OD1       18.0550  -10.7140  -18.3740 O.co2 152  ASP152     -0.2456
    174  OD2       17.7420   -8.6790  -17.6070 O.co2 152  ASP152     -0.2456
    175  N         15.8550    2.9170  -25.7020 N.3   314  HIS314     -0.1226
    176  CA        16.3490    1.8450  -24.8350 C.3   314  HIS314      0.1752
    177  C         17.0550    2.4540  -23.6410 C.2   314  HIS314      0.2596
    178  O         17.4680    3.6100  -23.7070 O.2   314  HIS314     -0.2718
    179  CB        17.3080    0.9410  -25.6110 C.3   314  HIS314      0.0759
    180  CG        16.6450    0.1490  -26.6910 C.ar  314  HIS314      0.0818
    181  ND1       17.2960   -0.2260  -27.8450 N.ar  314  HIS314     -0.2268
    182  CD2       15.4070   -0.3940  -26.7630 C.ar  314  HIS314      0.1154
    183  CE1       16.4740   -0.9240  -28.6050 C.ar  314  HIS314      0.1986
    184  NE2       15.3200   -1.0460  -27.9690 N.ar  314  HIS314     -0.2212
    185  N         17.2160    1.6770  -22.5700 N.am  315  GLU315     -0.1965
    186  CA        17.8510    2.1620  -21.3440 C.3   315  GLU315      0.1733
    187  C         19.2030    2.8480  -21.5480 C.2   315  GLU315      0.2616
    188  O         19.4670    3.8920  -20.9470 O.2   315  GLU315     -0.2715
    189  CB        18.0510    1.0080  -20.3570 C.3   315  GLU315      0.0429
    190  CG        18.7690    1.4270  -19.0670 C.3   315  GLU315      0.1163
    191  CD        19.0410    0.2500  -18.1310 C.2   315  GLU315      0.3649
    192  OE1       19.0960   -0.9000  -18.6240 O.co2 315  GLU315     -0.2457
    193  OE2       19.1770    0.4760  -16.9000 O.co2 315  GLU315     -0.2457
    194  N         20.0540    2.2590  -22.3900 N.am  316  LEU316     -0.1977
    195  CA        21.3930    2.7890  -22.6120 C.3   316  LEU316      0.1596
    196  C         21.3860    4.1740  -23.2360 C.2   316  LEU316      0.2287
    197  O         22.0760    5.0770  -22.7640 O.2   316  LEU316     -0.2864
    198  CB        22.2070    1.8340  -23.5020 C.3   316  LEU316      0.0297
    199  CG        23.6350    2.2820  -23.8410 C.3   316  LEU316      0.0022
    200  CD1       24.4490    2.4480  -22.5680 C.3   316  LEU316      0.0001
    201  CD2       24.3260    1.3100  -24.8140 C.3   316  LEU316      0.0001
@<TRIPOS>BOND
     1   107   108    1
     2   107   104    1
     3   102   100   ar
     4   110   108   ar
     5   110   112   ar
     6   108   109   ar
     7   100    99    1
     8   100   101   ar
     9   103   104    1
    10   103    96   am
    11   112   113   ar
    12    99    98    1
    13    95    98    1
    14    95    96    1
    15    95    94    1
    16   104   105    1
    17   106   105    2
    18    52    53    1
    19    86    85    2
    20   109   111   ar
    21   113   111   ar
    22   113   114    1
    23    96    97    2
    24   105   115   am
    25    94    85   am
    26    85    84    1
    27    53    54    1
    28    53    56    1
    29    55    54    2
    30    83    84    1
    31    84    87    1
    32   115   116    1
    33   122   121    1
    34   116   117    1
    35   116   119    1
    36   117   118    2
    37     7     5    1
    38   121   120    1
    39     8     6    1
    40    87    88    1
    41     6     5    1
    42   120   119    1
    43    57    58    1
    44     5     2    1
    45     1     2    1
    46   183   184   ar
    47   183   181   ar
    48    88    89   ar
    49    88    90   ar
    50    47    48    2
    51    47    46    1
    52    89    91   ar
    53     2     3    1
    54   184   182   ar
    55    82    80    1
    56    60    59    2
    57   181   180   ar
    58    90    92   ar
    59    59    58    1
    60    58    61    1
    61    50    49    1
    62    80    79    1
    63    46    49    1
    64    46    45    1
    65    91    93   ar
    66    77    76    1
    67    77    78    2
    68   182   180   ar
    69   180   179    1
    70    92    93   ar
    71     3     9   am
    72     3     4    2
    73    61    62    1
    74    76    79    1
    75    76    75    1
    76    49    51    1
    77     9    10    1
    78    62    63    1
    79    79    81    1
    80   175   176    1
    81   179   176    1
    82   160   159    1
    83   158   159    1
    84   158   155    1
    85   156   157    2
    86   156   155    1
    87    12    11    2
    88   123   124    1
    89    63    64    1
    90   176   177    1
    91   201   199    1
    92    10    11    1
    93   159   161    1
    94   155   154    1
    95    11    13   am
    96   199   198    1
    97   199   200    1
    98   124   127    1
    99   124   125    1
   100   178   177    2
   101   177   185   am
   102    64    65    1
   103   198   195    1
   104   196   197    2
   105   196   195    1
   106   126   125    2
   107    13    14    1
   108    41    39   ar
   109    41    43   ar
   110   127   128    1
   111   166   163    1
   112   130   128   ar
   113    44    43    1
   114    18    19    1
   115    18    17    1
   116   195   194    1
   117    69    68    2
   118   185   186    1
   119    36    35    2
   120    39    38   ar
   121    14    17    1
   122    14    15    1
   123   128   129   ar
   124   194   187   am
   125    74    72   ar
   126    68    67    1
   127    43    42   ar
   128    21    19   ar
   129    19    20   ar
   130    35    34    1
   131   163   162    1
   132   163   164    1
   133    22    15   am
   134    22    23    1
   135    70    67    1
   136    70    71    1
   137   187   186    1
   138   187   188    2
   139    15    16    2
   140   186   189    1
   141    72    73   ar
   142    72    71    1
   143    38    37    1
   144    38    40   ar
   145    23    24    1
   146    67    66    1
   147   167   164   am
   148   167   168    1
   149    42    40   ar
   150    37    34    1
   151   164   165    2
   152    34    33    1
   153   143   142    2
   154   189   190    1
   155    24    25    2
   156    24    26   am
   157   149   148    2
   158    33    28   am
   159   168   171    1
   160   168   169    1
   161   148   147    1
   162   142   141    1
   163   142   146   am
   164    26    27    1
   165   171   172    1
   166   147   146    1
   167   147   150    1
   168   190   191    1
   169    28    29    2
   170    28    27    1
   171   169   170    2
   172   141   144    1
   173   141   140    1
   174   192   191   ar
   175   173   172   ar
   176   152   151    2
   177    27    30    1
   178   172   174   ar
   179   144   145    1
   180   191   193   ar
   181   150   151    1
   182    30    31    1
   183    30    32    1
   184   151   153   am
   185   134   133    2
   186   133   132    1
   187   131   132    1
   188   136   137    1
   189   136   135    1
   190   132   135    1
   191   138   137    1
   192   138   139    1
