@<TRIPOS>MOLECULE
tmp/5eg1B02.pdb
 106 99 0 0 0
SMALL
GASTEIGER

@<TRIPOS>ATOM
      1  N         23.5110  101.4320  305.0860 N.3   148  VAL148     -0.1245
      2  CA        23.3330  100.0760  305.5860 C.3   148  VAL148      0.1561
      3  C         24.0660   99.9690  306.9520 C.2   148  VAL148      0.2260
      4  O         23.4120   99.6440  307.9420 O.2   148  VAL148     -0.2867
      5  CB        23.7900   99.0320  304.5420 C.3   148  VAL148      0.0252
      6  CG1       23.9650   97.6560  305.1720 C.3   148  VAL148      0.0019
      7  CG2       22.7980   98.9630  303.3910 C.3   148  VAL148      0.0019
      8  N         22.2350  101.9580  309.5310 N.3   151  LEU151     -0.1231
      9  CA        20.9260  101.4040  309.8830 C.3   151  LEU151      0.1693
     10  C         21.0450  100.1000  310.6470 C.2   151  LEU151      0.2591
     11  O         20.2400   99.8600  311.5440 O.2   151  LEU151     -0.2718
     12  CB        20.0480  101.2000  308.6670 C.3   151  LEU151      0.0284
     13  CG        19.5350  102.4720  308.0110 C.3   151  LEU151      0.0019
     14  CD1       19.2190  102.2370  306.5320 C.3   151  LEU151      0.0001
     15  CD2       18.3660  103.0840  308.7850 C.3   151  LEU151      0.0001
     16  N         22.0430   99.2620  310.3040 N.am  152  ILE152     -0.1980
     17  CA        22.2720   97.9780  310.9740 C.3   152  ILE152      0.1595
     18  C         22.6700   98.2520  312.4390 C.2   152  ILE152      0.2287
     19  O         21.9290   97.8540  313.3420 O.2   152  ILE152     -0.2864
     20  CB        23.2950   97.0790  310.2170 C.3   152  ILE152      0.0276
     21  CG1       22.6910   96.5730  308.8850 C.3   152  ILE152      0.0022
     22  CG2       23.7800   95.9170  311.1010 C.3   152  ILE152      0.0022
     23  CD1       23.4950   95.6270  308.1260 C.3   152  ILE152      0.0001
     24  N         19.8170   99.5100  314.7400 N.3   155  ILE155     -0.1231
     25  CA        18.8900   98.4870  315.2380 C.3   155  ILE155      0.1692
     26  C         19.6400   97.5120  316.1730 C.2   155  ILE155      0.2591
     27  O         19.0990   97.2200  317.2340 O.2   155  ILE155     -0.2718
     28  CB        18.0770   97.7290  314.1540 C.3   155  ILE155      0.0266
     29  CG1       17.4930   98.6750  313.0740 C.3   155  ILE155      0.0019
     30  CG2       16.9800   96.8430  314.7910 C.3   155  ILE155      0.0020
     31  CD1       16.2740   99.5570  313.4760 C.3   155  ILE155      0.0001
     32  N         20.8770   97.0600  315.8190 N.am  156  VAL156     -0.1980
     33  CA        21.6960   96.1620  316.6540 C.3   156  VAL156      0.1595
     34  C         21.8400   96.7440  318.0750 C.2   156  VAL156      0.2287
     35  O         21.4650   96.0650  319.0330 O.2   156  VAL156     -0.2864
     36  CB        23.0800   95.8600  316.0090 C.3   156  VAL156      0.0276
     37  CG1       24.0690   95.2510  317.0020 C.3   156  VAL156      0.0022
     38  CG2       22.9260   94.9580  314.7980 C.3   156  VAL156      0.0022
     39  N         18.5440   97.2110  319.9450 N.3   159  LEU159     -0.1245
     40  CA        18.1250   95.8510  320.2830 C.3   159  LEU159      0.1561
     41  C         18.9350   95.3520  321.5010 C.2   159  LEU159      0.2260
     42  O         18.3420   94.7440  322.3950 O.2   159  LEU159     -0.2867
     43  CB        18.3120   94.9100  319.0710 C.3   159  LEU159      0.0270
     44  CG        17.1310   94.0650  318.5590 C.3   159  LEU159      0.0019
     45  CD1       15.7700   94.6920  318.8400 C.3   159  LEU159      0.0001
     46  CD2       17.2840   93.7720  317.0870 C.3   159  LEU159      0.0001
     47  N         12.8360   99.7400  313.0230 N.3   171  PHE171     -0.1241
     48  CA        12.8220   98.7460  311.9490 C.3   171  PHE171      0.1605
     49  C         11.5160   98.8210  311.1560 C.2   171  PHE171      0.2264
     50  O         11.5310   98.5600  309.9560 O.2   171  PHE171     -0.2867
     51  CB        13.0520   97.3220  312.4850 C.3   171  PHE171      0.0534
     52  CG        13.2800   96.2900  311.3950 C.ar  171  PHE171     -0.0203
     53  CD1       12.2170   95.5600  310.8710 C.ar  171  PHE171     -0.0042
     54  CD2       14.5590   96.0590  310.8840 C.ar  171  PHE171     -0.0042
     55  CE1       12.4260   94.6300  309.8480 C.ar  171  PHE171     -0.0003
     56  CE2       14.7670   95.1240  309.8620 C.ar  171  PHE171     -0.0003
     57  CZ        13.7000   94.4170  309.3520 C.ar  171  PHE171     -0.0000
     58  N         12.0780  101.7720  308.4890 N.3   174  ILE174     -0.1231
     59  CA        12.8900  101.3800  307.3280 C.3   174  ILE174      0.1692
     60  C         12.0890  100.4290  306.4260 C.2   174  ILE174      0.2591
     61  O         12.1530  100.5780  305.1990 O.2   174  ILE174     -0.2718
     62  CB        14.2880  100.7950  307.6360 C.3   174  ILE174      0.0266
     63  CG1       14.7920  101.1950  309.0220 C.3   174  ILE174      0.0019
     64  CG2       15.2780  101.1850  306.5490 C.3   174  ILE174      0.0020
     65  CD1       16.1000  100.4480  309.4710 C.3   174  ILE174      0.0001
     66  N         11.2820   99.5180  307.0250 N.am  175  LEU175     -0.1980
     67  CA        10.4390   98.5940  306.2680 C.3   175  LEU175      0.1596
     68  C          9.3590   99.3500  305.4740 C.2   175  LEU175      0.2287
     69  O          9.3250   99.2060  304.2480 O.2   175  LEU175     -0.2864
     70  CB         9.8010   97.5490  307.1860 C.3   175  LEU175      0.0297
     71  CG         9.3020   96.2870  306.4880 C.3   175  LEU175      0.0022
     72  CD1       10.3790   95.2240  306.4400 C.3   175  LEU175      0.0001
     73  CD2        8.0750   95.7370  307.1690 C.3   175  LEU175      0.0001
     74  N         11.2300  101.7160  302.6420 N.3   178  VAL178     -0.1231
     75  CA        11.7420  100.9940  301.4710 C.3   178  VAL178      0.1692
     76  C         10.5790  100.4720  300.6060 C.2   178  VAL178      0.2591
     77  O         10.6730  100.5680  299.3860 O.2   178  VAL178     -0.2718
     78  CB        12.7690   99.8860  301.8390 C.3   178  VAL178      0.0266
     79  CG1       13.1140   99.0000  300.6350 C.3   178  VAL178      0.0020
     80  CG2       14.0400  100.5120  302.4010 C.3   178  VAL178      0.0020
     81  N          9.4710  100.0170  301.2240 N.am  179  ILE179     -0.1980
     82  CA         8.3040   99.5380  300.4790 C.3   179  ILE179      0.1595
     83  C          7.6550  100.7430  299.7230 C.2   179  ILE179      0.2287
     84  O          7.7190  100.7760  298.4890 O.2   179  ILE179     -0.2864
     85  CB         7.3190   98.7450  301.4080 C.3   179  ILE179      0.0276
     86  CG1        7.8080   97.2940  301.5730 C.3   179  ILE179      0.0022
     87  CG2        5.8440   98.7810  300.9260 C.3   179  ILE179      0.0022
     88  CD1        7.4850   96.6560  302.8950 C.3   179  ILE179      0.0001
     89  N          9.8730  102.3700  296.8070 N.3   182  THR182     -0.1203
     90  CA        10.0580  101.5160  295.6180 C.3   182  THR182      0.1994
     91  C          8.7410  101.4170  294.8320 C.2   182  THR182      0.2617
     92  O          8.7650  101.3840  293.5970 O.2   182  THR182     -0.2717
     93  CB        10.6040  100.1270  295.9650 C.3   182  THR182      0.1784
     94  OG1        9.8090   99.5530  296.9950 O.3   182  THR182     -0.2211
     95  CG2       12.0590  100.1490  296.3750 C.3   182  THR182      0.0376
     96  N          7.5930  101.4700  295.5540 N.am  183  ARG183     -0.1979
     97  CA         6.2580  101.4270  294.9590 C.3   183  ARG183      0.1597
     98  C          5.8980  102.7800  294.2810 C.2   183  ARG183      0.2287
     99  O          4.8080  102.9070  293.7170 O.2   183  ARG183     -0.2864
    100  CB         5.1950  100.9830  295.9890 C.3   183  ARG183      0.0334
    101  CG         5.2380   99.4720  296.1790 C.3   183  ARG183      0.0492
    102  CD         3.9400   98.7680  296.5270 C.3   183  ARG183      0.2205
    103  NE         4.2570   97.4090  296.9970 N.pl3 183  ARG183     -0.0865
    104  CZ         3.4670   96.6430  297.7450 C.cat 183  ARG183      0.5346
    105  NH1        2.2740   97.0810  298.1290 N.pl3 183  ARG183      0.1354
    106  NH2        3.8700   95.4340  298.1230 N.pl3 183  ARG183      0.1354
@<TRIPOS>BOND
     1    92    91    2
     2    99    98    2
     3    98    97    1
     4    91    96   am
     5    91    90    1
     6    97    96    1
     7    97   100    1
     8    90    93    1
     9    90    89    1
    10    93    95    1
    11    93    94    1
    12   100   101    1
    13   101   102    1
    14   102   103    1
    15   103   104    2
    16   104   106    1
    17   104   105    1
    18    84    83    2
    19    77    76    2
    20    83    82    1
    21    82    81    1
    22    82    85    1
    23    76    81   am
    24    76    75    1
    25    79    78    1
    26    87    85    1
    27    85    86    1
    28    75    78    1
    29    75    74    1
    30    86    88    1
    31    78    80    1
    32     7     5    1
    33    69    68    2
    34     5     6    1
    35     5     2    1
    36     1     2    1
    37    61    60    2
    38    68    67    1
    39     2     3    1
    40    67    66    1
    41    67    70    1
    42    60    66   am
    43    60    59    1
    44    72    71    1
    45    71    73    1
    46    71    70    1
    47    14    13    1
    48    64    62    1
    49     3     4    2
    50    59    62    1
    51    59    58    1
    52    62    63    1
    53    13    12    1
    54    13    15    1
    55    23    21    1
    56    12     9    1
    57    21    20    1
    58    63    65    1
    59    57    55   ar
    60    57    56   ar
    61     8     9    1
    62    55    53   ar
    63    56    54   ar
    64     9    10    1
    65    50    49    2
    66    20    17    1
    67    20    22    1
    68    16    10   am
    69    16    17    1
    70    10    11    2
    71    53    52   ar
    72    54    52   ar
    73    17    18    1
    74    49    48    1
    75    52    51    1
    76    48    51    1
    77    48    47    1
    78    18    19    2
    79    29    31    1
    80    29    28    1
    81    28    30    1
    82    28    25    1
    83    24    25    1
    84    38    36    1
    85    25    26    1
    86    32    26   am
    87    32    33    1
    88    36    33    1
    89    36    37    1
    90    26    27    2
    91    33    34    1
    92    46    44    1
    93    34    35    2
    94    44    45    1
    95    44    43    1
    96    43    40    1
    97    39    40    1
    98    40    41    1
    99    41    42    2
