@<TRIPOS>MOLECULE
tmp/5eg4A00.pdb
 166 163 0 0 0
SMALL
GASTEIGER

@<TRIPOS>ATOM
      1  N        -22.0600  -13.5680  -20.6400 N.3    40  HIS40      -0.1241
      2  CA       -22.3380  -14.6980  -21.5210 C.3    40  HIS40       0.1621
      3  C        -21.1560  -15.6480  -21.6200 C.2    40  HIS40       0.2264
      4  O        -21.3000  -16.7170  -22.2100 O.2    40  HIS40      -0.2867
      5  CB       -22.8560  -14.2360  -22.8950 C.3    40  HIS40       0.0745
      6  CG       -21.8030  -13.8930  -23.8980 C.ar   40  HIS40       0.0817
      7  ND1      -21.4770  -12.5940  -24.2440 N.ar   40  HIS40      -0.2268
      8  CD2      -21.0670  -14.6880  -24.7030 C.ar   40  HIS40       0.1154
      9  CE1      -20.5730  -12.6110  -25.2030 C.ar   40  HIS40       0.1986
     10  NE2      -20.2940  -13.8700  -25.4910 N.ar   40  HIS40      -0.2212
     11  N        -28.3630   -9.4180  -15.7070 N.3    76  TYR76      -0.1241
     12  CA       -28.0640   -9.9440  -17.0320 C.3    76  TYR76       0.1605
     13  C        -29.2790  -10.6510  -17.6210 C.2    76  TYR76       0.2264
     14  O        -29.9540  -11.4430  -16.9570 O.2    76  TYR76      -0.2867
     15  CB       -26.8860  -10.9110  -16.9320 C.3    76  TYR76       0.0534
     16  CG       -26.6000  -11.6760  -18.2000 C.ar   76  TYR76      -0.0201
     17  CD1      -26.3070  -11.0160  -19.3850 C.ar   76  TYR76      -0.0009
     18  CD2      -26.5860  -13.0620  -18.2070 C.ar   76  TYR76      -0.0009
     19  CE1      -26.0490  -11.6960  -20.5340 C.ar   76  TYR76       0.0417
     20  CE2      -26.3030  -13.7550  -19.3630 C.ar   76  TYR76       0.0417
     21  CZ       -26.0310  -13.0660  -20.5270 C.ar   76  TYR76       0.1957
     22  OH       -25.7620  -13.7290  -21.6960 O.3    76  TYR76      -0.2866
     23  N        -30.0510  -13.0060  -20.8980 N.3    78  SER78      -0.1202
     24  CA       -29.3290  -13.7510  -21.9270 C.3    78  SER78       0.2020
     25  C        -30.0130  -13.7510  -23.2880 C.2    78  SER78       0.2618
     26  O        -29.4310  -14.2820  -24.2370 O.2    78  SER78      -0.2717
     27  CB       -29.0590  -15.1950  -21.4720 C.3    78  SER78       0.2103
     28  OG       -30.2770  -15.8360  -21.1290 O.3    78  SER78      -0.2182
     29  N        -31.2020  -13.1520  -23.4150 N.am   79  ASN79      -0.1974
     30  CA       -31.8440  -12.9390  -24.7140 C.3    79  ASN79       0.1688
     31  C        -31.3890  -11.6150  -25.3160 C.2    79  ASN79       0.2292
     32  O        -30.9180  -11.5670  -26.4570 O.2    79  ASN79      -0.2864
     33  CB       -33.3760  -12.8800  -24.5910 C.3    79  ASN79       0.1181
     34  CG       -33.9850  -14.1660  -24.1230 C.2    79  ASN79       0.2629
     35  OD1      -33.4220  -15.2430  -24.3100 O.2    79  ASN79      -0.2716
     36  ND2      -35.1730  -14.0650  -23.5240 N.am   79  ASN79      -0.0877
     37  N        -29.0580   -9.6240  -24.0600 N.3    81  LEU81      -0.1245
     38  CA       -27.6640   -9.3880  -23.7030 C.3    81  LEU81       0.1561
     39  C        -27.4600   -8.0910  -22.9300 C.2    81  LEU81       0.2260
     40  O        -26.3310   -7.6370  -22.7620 O.2    81  LEU81      -0.2867
     41  CB       -26.7160   -9.5090  -24.9120 C.3    81  LEU81       0.0270
     42  CG       -26.8430  -10.8520  -25.6450 C.3    81  LEU81       0.0019
     43  CD1      -25.9090  -10.8970  -26.8290 C.3    81  LEU81       0.0001
     44  CD2      -26.5650  -12.0280  -24.7040 C.3    81  LEU81       0.0001
     45  N        -11.9490  -15.4650  -33.5070 N.3   123  ASN123     -0.1240
     46  CA       -11.9300  -15.7370  -34.9380 C.3   123  ASN123      0.1653
     47  C        -11.4230  -14.5300  -35.7200 C.2   123  ASN123      0.2266
     48  O        -11.8110  -13.3880  -35.4600 O.2   123  ASN123     -0.2867
     49  CB       -13.3670  -16.0740  -35.3440 C.3   123  ASN123      0.1155
     50  CG       -13.5000  -16.5300  -36.7720 C.2   123  ASN123      0.2627
     51  OD1      -12.5380  -16.9260  -37.4140 O.2   123  ASN123     -0.2716
     52  ND2      -14.7280  -16.4940  -37.2770 N.am  123  ASN123     -0.0877
     53  N        -13.4890   -5.9230  -37.1230 N.3   171  ASP171     -0.1225
     54  CA       -14.4370   -6.1460  -36.0380 C.3   171  ASP171      0.1805
     55  C        -13.8340   -7.1540  -35.0600 C.2   171  ASP171      0.2598
     56  O        -12.8350   -7.8230  -35.3530 O.2   171  ASP171     -0.2718
     57  CB       -15.7590   -6.6550  -36.6370 C.3   171  ASP171      0.1424
     58  CG       -16.9680   -6.5170  -35.7100 C.2   171  ASP171      0.3668
     59  OD1      -16.8810   -5.9910  -34.5710 O.co2 171  ASP171     -0.2456
     60  OD2      -18.0420   -6.9730  -36.1590 O.co2 171  ASP171     -0.2456
     61  N        -14.4420   -7.2350  -33.8800 N.am  172  SER172     -0.1938
     62  CA       -14.2170   -8.3780  -33.0080 C.3   172  SER172      0.2055
     63  C        -15.1730   -9.5000  -33.4100 C.2   172  SER172      0.2643
     64  O        -16.0180   -9.3360  -34.2910 O.2   172  SER172     -0.2714
     65  CB       -14.3470   -7.9800  -31.5370 C.3   172  SER172      0.2130
     66  OG       -15.6450   -7.5190  -31.2490 O.3   172  SER172     -0.2179
     67  N        -15.0100  -10.6680  -32.7920 N.am  173  CYS173     -0.1953
     68  CA       -15.7580  -11.8420  -33.2300 C.3   173  CYS173      0.1843
     69  C        -15.7990  -12.8690  -32.1020 C.2   173  CYS173      0.2625
     70  O        -15.3030  -12.6380  -30.9950 O.2   173  CYS173     -0.2714
     71  CB       -15.1250  -12.4410  -34.4910 C.3   173  CYS173      0.0997
     72  SG       -16.2430  -13.5100  -35.4800 S.3   173  CYS173     -0.0797
     73  N        -16.3970  -14.0220  -32.3910 N.am  174  GLN174     -0.1977
     74  CA       -16.5000  -15.0550  -31.3720 C.3   174  GLN174      0.1601
     75  C        -15.1130  -15.4880  -30.9100 C.2   174  GLN174      0.2287
     76  O        -14.1630  -15.5700  -31.6940 O.2   174  GLN174     -0.2864
     77  CB       -17.3050  -16.2490  -31.8800 C.3   174  GLN174      0.0394
     78  CG       -16.6200  -17.0950  -32.9250 C.3   174  GLN174      0.0908
     79  CD       -17.4170  -18.3400  -33.2420 C.2   174  GLN174      0.2608
     80  OE1      -17.5940  -18.6940  -34.4050 O.2   174  GLN174     -0.2717
     81  NE2      -17.9110  -19.0120  -32.2020 N.am  174  GLN174     -0.0878
     82  N        -15.0810  -12.5090  -27.1090 N.3   177  SER177     -0.1217
     83  CA       -16.0740  -12.1890  -26.0900 C.3   177  SER177      0.1889
     84  C        -15.4510  -12.0570  -24.7190 C.2   177  SER177      0.2288
     85  O        -14.6590  -12.8950  -24.3030 O.2   177  SER177     -0.2866
     86  CB       -17.1080  -13.3130  -26.0260 C.3   177  SER177      0.2089
     87  OG       -17.8140  -13.4120  -27.2450 O.3   177  SER177     -0.2183
     88  N        -16.2630   -7.0020  -25.0820 N.3   191  VAL191     -0.1231
     89  CA       -16.7520   -7.6390  -26.3080 C.3   191  VAL191      0.1692
     90  C        -18.0000   -8.4450  -25.9710 C.2   191  VAL191      0.2593
     91  O        -17.9570   -9.3430  -25.1240 O.2   191  VAL191     -0.2718
     92  CB       -15.6570   -8.5310  -26.9290 C.3   191  VAL191      0.0266
     93  CG1      -16.1540   -9.2040  -28.1870 C.3   191  VAL191      0.0020
     94  CG2      -14.3710   -7.7420  -27.2080 C.3   191  VAL191      0.0020
     95  N        -19.1220   -8.1390  -26.6390 N.am  192  SER192     -0.1938
     96  CA       -20.4060   -8.7100  -26.2700 C.3   192  SER192      0.2055
     97  C        -21.1020   -9.3870  -27.4520 C.2   192  SER192      0.2643
     98  O        -21.2420  -10.6140  -27.4450 O.2   192  SER192     -0.2714
     99  CB       -21.2660   -7.6410  -25.5780 C.3   192  SER192      0.2130
    100  OG       -22.5560   -8.1420  -25.2540 O.3   192  SER192     -0.2179
    101  N        -21.5060   -8.6480  -28.4870 N.am  193  TRP193     -0.1959
    102  CA       -22.2970   -9.2630  -29.5540 C.3   193  TRP193      0.1771
    103  C        -22.2140   -8.4480  -30.8430 C.2   193  TRP193      0.2620
    104  O        -21.5290   -7.4260  -30.9290 O.2   193  TRP193     -0.2715
    105  CB       -23.7400   -9.4890  -29.0910 C.3   193  TRP193      0.0590
    106  CG       -24.5880   -8.2590  -28.8360 C.ar  193  TRP193      0.0006
    107  CD1      -24.6270   -7.5050  -27.7020 C.ar  193  TRP193      0.0946
    108  CD2      -25.5700   -7.7010  -29.7230 C.ar  193  TRP193      0.0152
    109  NE1      -25.5780   -6.5240  -27.8250 N.ar  193  TRP193     -0.2442
    110  CE2      -26.1560   -6.6100  -29.0650 C.ar  193  TRP193      0.0810
    111  CE3      -26.0020   -8.0190  -31.0120 C.ar  193  TRP193      0.0012
    112  CZ2      -27.1530   -5.8250  -29.6530 C.ar  193  TRP193      0.0191
    113  CZ3      -26.9900   -7.2420  -31.5980 C.ar  193  TRP193      0.0001
    114  CH2      -27.5410   -6.1490  -30.9200 C.ar  193  TRP193      0.0015
    115  N        -22.9220   -8.9380  -31.8570 N.am  194  GLY194     -0.1940
    116  CA       -23.0130   -8.3060  -33.1620 C.3   194  GLY194      0.2014
    117  C        -23.7260   -9.2560  -34.0980 C.2   194  GLY194      0.2640
    118  O        -23.8990  -10.4310  -33.7950 O.2   194  GLY194     -0.2714
    119  N        -24.1470   -8.7330  -35.2520 N.am  195  SER195     -0.1935
    120  CA       -24.7470   -9.5700  -36.2950 C.3   195  SER195      0.2055
    121  C        -23.6240  -10.0240  -37.2180 C.2   195  SER195      0.2644
    122  O        -23.0880   -9.2350  -38.0060 O.2   195  SER195     -0.2714
    123  CB       -25.8710   -8.8500  -37.0390 C.3   195  SER195      0.2130
    124  OG       -26.7590   -9.7880  -37.6680 O.3   195  SER195     -0.2179
    125  N        -23.2480  -11.2840  -37.0910 N.am  196  GLY196     -0.1939
    126  CA       -22.0390  -11.7590  -37.7350 C.3   196  GLY196      0.2014
    127  C        -20.8130  -11.0780  -37.1450 C.2   196  GLY196      0.2639
    128  O        -20.8170  -10.5890  -36.0050 O.2   196  GLY196     -0.2714
    129  N        -19.7530  -11.0580  -37.9440 N.am  197  CYS197     -0.1967
    130  CA       -18.5240  -10.3530  -37.6120 C.3   197  CYS197      0.1712
    131  C        -18.0270   -9.6090  -38.8400 C.2   197  CYS197      0.2296
    132  O        -17.8520  -10.2060  -39.9030 O.2   197  CYS197     -0.2864
    133  CB       -17.4310  -11.3250  -37.1420 C.3   197  CYS197      0.0983
    134  SG       -17.9080  -12.3430  -35.7310 S.3   197  CYS197     -0.0798
    135  N        -23.1170   -3.5790  -39.7440 N.3   202  LYS202     -0.1231
    136  CA       -23.3830   -4.3190  -38.5060 C.3   202  LYS202      0.1678
    137  C        -22.1340   -4.2390  -37.6380 C.2   202  LYS202      0.2434
    138  O        -21.3490   -5.1940  -37.5430 O.2   202  LYS202     -0.2733
    139  CB       -23.8200   -5.7530  -38.8070 C.3   202  LYS202      0.0284
    140  CG       -25.0610   -5.8140  -39.6830 C.3   202  LYS202      0.0035
    141  CD       -26.3100   -5.3010  -38.9720 C.3   202  LYS202      0.0206
    142  CE       -27.3920   -5.0170  -39.9980 C.3   202  LYS202      0.1093
    143  NZ       -28.6760   -4.6110  -39.3710 N.3   202  LYS202     -0.1314
    144  N        -21.9220   -3.1110  -36.9800 N.am  203  PRO203     -0.2718
    145  CA       -20.7240   -2.9560  -36.1540 C.3   203  PRO203      0.1535
    146  C        -20.7990   -3.8000  -34.8890 C.2   203  PRO203      0.2599
    147  O        -21.8380   -4.3400  -34.5110 O.2   203  PRO203     -0.2715
    148  CB       -20.7230   -1.4580  -35.8310 C.3   203  PRO203      0.0310
    149  CG       -22.1700   -1.0780  -35.8650 C.3   203  PRO203      0.0237
    150  CD       -22.7840   -1.9170  -36.9460 C.3   203  PRO203      0.0939
    151  N        -19.6580   -3.9120  -34.2150 N.am  204  GLY204     -0.1955
    152  CA       -19.6350   -4.5820  -32.9210 C.3   204  GLY204      0.1869
    153  C        -20.4350   -3.8430  -31.8590 C.2   204  GLY204      0.2309
    154  O        -20.4660   -2.6170  -31.8190 O.2   204  GLY204     -0.2863
    155  N        -20.9200   -3.5630  -27.6720 N.3   206  TYR206     -0.1241
    156  CA       -20.0590   -3.7000  -26.5090 C.3   206  TYR206      0.1605
    157  C        -20.8000   -3.2740  -25.2490 C.2   206  TYR206      0.2264
    158  O        -21.5830   -2.3210  -25.2710 O.2   206  TYR206     -0.2867
    159  CB       -18.8010   -2.8410  -26.7170 C.3   206  TYR206      0.0534
    160  CG       -18.0230   -3.3030  -27.9310 C.ar  206  TYR206     -0.0201
    161  CD1      -17.1610   -4.3750  -27.8150 C.ar  206  TYR206     -0.0009
    162  CD2      -18.1980   -2.7300  -29.1870 C.ar  206  TYR206     -0.0009
    163  CE1      -16.4720   -4.8650  -28.9020 C.ar  206  TYR206      0.0417
    164  CE2      -17.5050   -3.2100  -30.2920 C.ar  206  TYR206      0.0417
    165  CZ       -16.6390   -4.2760  -30.1420 C.ar  206  TYR206      0.1957
    166  OH       -15.9440   -4.7850  -31.2030 O.3   206  TYR206     -0.2866
@<TRIPOS>BOND
     1   142   143    1
     2   142   141    1
     3   132   131    2
     4   135   136    1
     5   140   141    1
     6   140   139    1
     7   131   130    1
     8   139   136    1
     9   136   137    1
    10   122   121    2
    11   129   130    1
    12   129   127   am
    13   126   127    1
    14   126   125    1
    15   124   123    1
    16   137   138    2
    17   137   144   am
    18   130   133    1
    19    51    50    2
    20    52    50   am
    21   121   125   am
    22   121   120    1
    23   127   128    2
    24   133   134    1
    25    53    54    1
    26   123   120    1
    27   144   150    1
    28   144   145    1
    29   150   149    1
    30    50    49    1
    31    57    54    1
    32    57    58    1
    33   120   119    1
    34    60    58   ar
    35   145   148    1
    36   145   146    1
    37    54    55    1
    38   149   148    1
    39   134    72    1
    40    47    48    2
    41    47    46    1
    42    58    59   ar
    43    72    71    1
    44    56    55    2
    45    49    46    1
    46   119   117   am
    47    55    61   am
    48    46    45    1
    49   146   147    2
    50   146   151   am
    51    71    68    1
    52    80    79    2
    53    64    63    2
    54   151   152    1
    55   117   118    2
    56   117   116    1
    57    61    62    1
    58    63    62    1
    59    63    67   am
    60    79    78    1
    61    79    81   am
    62    68    67    1
    63    68    69    1
    64   116   115    1
    65    62    65    1
    66    78    77    1
    67   152   153    1
    68    73    69   am
    69    73    74    1
    70    69    70    2
    71    77    74    1
    72   153   154    2
    73   115   103   am
    74    76    75    2
    75   113   111   ar
    76   113   114   ar
    77    65    66    1
    78    74    75    1
    79   166   165    1
    80   111   108   ar
    81   104   103    2
    82   114   112   ar
    83   103   102    1
    84   164   165   ar
    85   164   162   ar
    86   165   163   ar
    87   108   110   ar
    88   108   106   ar
    89   112   110   ar
    90   102   105    1
    91   102   101    1
    92   162   160   ar
    93   105   106    1
    94   110   109   ar
    95   163   161   ar
    96   106   107   ar
    97   101    97   am
    98    93    92    1
    99   160   161   ar
   100   160   159    1
   101   109   107   ar
   102   155   156    1
   103    97    98    2
   104    97    96    1
   105    87    86    1
   106    94    92    1
   107    82    83    1
   108    92    89    1
   109    43    42    1
   110   159   156    1
   111    95    96    1
   112    95    90   am
   113   156   157    1
   114    32    31    2
   115    89    90    1
   116    89    88    1
   117    96    99    1
   118    83    86    1
   119    83    84    1
   120    90    91    2
   121    42    41    1
   122    42    44    1
   123    99   100    1
   124    10     9   ar
   125    10     8   ar
   126    31    30    1
   127   158   157    2
   128     9     7   ar
   129    41    38    1
   130    84    85    2
   131    30    33    1
   132    30    29    1
   133     8     6   ar
   134    33    34    1
   135    35    34    2
   136     7     6   ar
   137    26    25    2
   138    34    36   am
   139    37    38    1
   140     6     5    1
   141    38    39    1
   142    29    25   am
   143    25    24    1
   144    39    40    2
   145     5     2    1
   146     4     3    2
   147    24    27    1
   148    24    23    1
   149    22    21    1
   150     3     2    1
   151     2     1    1
   152    27    28    1
   153    19    21   ar
   154    19    17   ar
   155    21    20   ar
   156    17    16   ar
   157    20    18   ar
   158    18    16   ar
   159    16    15    1
   160    13    12    1
   161    13    14    2
   162    12    15    1
   163    12    11    1
