@<TRIPOS>MOLECULE
tmp/5egaA00.pdb
 131 122 0 0 0
SMALL
GASTEIGER

@<TRIPOS>ATOM
      1  N        -38.5930   10.8870   -7.4820 N.3    24  TYR24      -0.1241
      2  CA       -39.1280   12.2240   -7.7540 C.3    24  TYR24       0.1605
      3  C        -40.2190   12.2350   -8.7910 C.2    24  TYR24       0.2264
      4  O        -40.7200   13.2910   -9.1230 O.2    24  TYR24      -0.2867
      5  CB       -38.0090   13.1380   -8.2430 C.3    24  TYR24       0.0534
      6  CG       -37.0620   13.5300   -7.1580 C.ar   24  TYR24      -0.0201
      7  CD1      -37.5270   14.2340   -6.0320 C.ar   24  TYR24      -0.0009
      8  CD2      -35.7020   13.2170   -7.2420 C.ar   24  TYR24      -0.0009
      9  CE1      -36.6610   14.6220   -5.0220 C.ar   24  TYR24       0.0417
     10  CE2      -34.8240   13.5870   -6.2320 C.ar   24  TYR24       0.0417
     11  CZ       -35.3040   14.2940   -5.1280 C.ar   24  TYR24       0.1957
     12  OH       -34.4320   14.6780   -4.1290 O.3    24  TYR24      -0.2866
     13  N        -39.9180   11.2570  -11.9530 N.3    26  GLU26      -0.1245
     14  CA       -39.3620   11.4750  -13.2850 C.3    26  GLU26       0.1567
     15  C        -38.9740   10.1550  -13.9520 C.2    26  GLU26       0.2260
     16  O        -38.4990    9.2220  -13.3080 O.2    26  GLU26      -0.2867
     17  CB       -38.1390   12.3650  -13.1790 C.3    26  GLU26       0.0388
     18  CG       -38.4230   13.6560  -12.4250 C.3    26  GLU26       0.1160
     19  CD       -37.1810   14.4350  -12.0740 C.2    26  GLU26       0.3649
     20  OE1      -37.1590   15.6400  -12.3950 O.co2  26  GLU26      -0.2457
     21  OE2      -36.2350   13.8640  -11.4650 O.co2  26  GLU26      -0.2457
     22  N        -31.0030   14.6860  -17.0640 N.3    34  LYS34      -0.1245
     23  CA       -30.9520   14.4990  -15.6060 C.3    34  LYS34       0.1561
     24  C        -30.3720   13.1240  -15.2710 C.2    34  LYS34       0.2260
     25  O        -29.5470   13.0060  -14.3880 O.2    34  LYS34      -0.2867
     26  CB       -32.3450   14.6800  -15.0100 C.3    34  LYS34       0.0271
     27  CG       -32.3450   14.9850  -13.5150 C.3    34  LYS34       0.0035
     28  CD       -33.7020   15.4610  -12.9880 C.3    34  LYS34       0.0206
     29  CE       -34.3730   16.4990  -13.9070 C.3    34  LYS34       0.1093
     30  NZ       -35.4180   17.3740  -13.2960 N.3    34  LYS34      -0.1314
     31  N        -27.0770   12.4880  -12.9890 N.3    38  ILE38      -0.1245
     32  CA       -27.0700   11.6920  -11.7710 C.3    38  ILE38       0.1561
     33  C        -26.0110   10.6090  -11.8380 C.2    38  ILE38       0.2260
     34  O        -25.2730   10.3740  -10.8690 O.2    38  ILE38      -0.2867
     35  CB       -28.4960   11.0950  -11.4480 C.3    38  ILE38       0.0252
     36  CG1      -29.4650   12.2430  -11.1270 C.3    38  ILE38       0.0019
     37  CG2      -28.4120   10.1610  -10.2570 C.3    38  ILE38       0.0019
     38  CD1      -30.9210   11.8550  -11.1800 C.3    38  ILE38       0.0001
     39  N        -22.4150   12.2100  -11.4560 N.3    41  HIS41      -0.1241
     40  CA       -22.1940   12.5560  -10.0780 C.3    41  HIS41       0.1621
     41  C        -21.8900   11.3360   -9.2230 C.2    41  HIS41       0.2264
     42  O        -20.9340   11.3470   -8.4310 O.2    41  HIS41      -0.2867
     43  CB       -23.3950   13.3200   -9.5300 C.3    41  HIS41       0.0745
     44  CG       -23.3170   13.5870   -8.0620 C.ar   41  HIS41       0.0817
     45  ND1      -23.9450   12.7980   -7.1240 N.ar   41  HIS41      -0.2268
     46  CD2      -22.6360   14.5270   -7.3700 C.ar   41  HIS41       0.1154
     47  CE1      -23.6970   13.2800   -5.9210 C.ar   41  HIS41       0.1986
     48  NE2      -22.9060   14.3310   -6.0430 N.ar   41  HIS41      -0.2212
     49  N        -23.4190    9.0520   -0.2590 N.3    61  GLU61      -0.1245
     50  CA       -24.1740    9.0410   -1.5190 C.3    61  GLU61       0.1567
     51  C        -24.3290    7.6230   -2.0610 C.2    61  GLU61       0.2260
     52  O        -23.4450    6.7840   -1.9000 O.2    61  GLU61      -0.2867
     53  CB       -23.4100    9.8830   -2.5660 C.3    61  GLU61       0.0388
     54  CG       -24.1230   10.1230   -3.8970 C.3    61  GLU61       0.1160
     55  CD       -25.4810   10.7730   -3.7280 C.2    61  GLU61       0.3649
     56  OE1      -25.5650   12.0190   -3.6790 O.co2  61  GLU61      -0.2457
     57  OE2      -26.4850   10.0130   -3.6120 O.co2  61  GLU61      -0.2457
     58  N        -27.9290   15.4430    3.7810 N.3    87  LEU87      -0.1245
     59  CA       -26.9830   14.3900    3.5880 C.3    87  LEU87       0.1561
     60  C        -25.8260   14.8890    2.7060 C.2    87  LEU87       0.2260
     61  O        -26.0870   15.4120    1.6430 O.2    87  LEU87      -0.2867
     62  CB       -27.6460   13.1950    2.9090 C.3    87  LEU87       0.0270
     63  CG       -28.5840   12.3710    3.7680 C.3    87  LEU87       0.0019
     64  CD1      -29.3070   11.3870    2.8870 C.3    87  LEU87       0.0001
     65  CD2      -27.8400   11.6350    4.8820 C.3    87  LEU87       0.0001
     66  N        -21.9450   13.7580    0.7860 N.3    89  ASP89      -0.1239
     67  CA       -21.5630   12.6880   -0.1120 C.3    89  ASP89       0.1674
     68  C        -20.6020   11.6960    0.4580 C.2    89  ASP89       0.2266
     69  O        -20.6990   10.4800    0.1560 O.2    89  ASP89      -0.2867
     70  CB       -20.9690   13.2510   -1.3910 C.3    89  ASP89       0.1410
     71  CG       -22.0170   13.9150   -2.2450 C.2    89  ASP89       0.3668
     72  OD1      -23.1560   13.4190   -2.2560 O.co2  89  ASP89      -0.2456
     73  OD2      -21.7410   14.9490   -2.8570 O.co2  89  ASP89      -0.2456
     74  N        -19.0970   17.4930    0.5160 N.3   100  GLU100     -0.1231
     75  CA       -20.1030   17.6270   -0.5390 C.3   100  GLU100      0.1699
     76  C        -19.4260   17.7260   -1.8970 C.2   100  GLU100      0.2592
     77  O        -18.5800   18.5830   -2.1110 O.2   100  GLU100     -0.2718
     78  CB       -21.0380   18.8110   -0.2710 C.3   100  GLU100      0.0402
     79  CG       -22.0840   19.1210   -1.3420 C.3   100  GLU100      0.1161
     80  CD       -22.9200   17.9540   -1.7530 C.2   100  GLU100      0.3649
     81  OE1      -23.1790   17.7800   -2.9740 O.co2 100  GLU100     -0.2457
     82  OE2      -23.2930   17.1770   -0.8520 O.co2 100  GLU100     -0.2457
     83  N        -19.7790   16.8260   -2.8150 N.am  101  ILE101     -0.1966
     84  CA       -19.1560   16.7850   -4.1400 C.3   101  ILE101      0.1727
     85  C        -20.1410   17.3290   -5.1450 C.2   101  ILE101      0.2617
     86  O        -21.3010   16.9560   -5.1450 O.2   101  ILE101     -0.2715
     87  CB       -18.7640   15.3590   -4.5570 C.3   101  ILE101      0.0290
     88  CG1      -17.5450   14.9100   -3.7600 C.3   101  ILE101      0.0022
     89  CG2      -18.4490   15.3110   -6.0590 C.3   101  ILE101      0.0023
     90  CD1      -17.2390   13.4320   -3.8570 C.3   101  ILE101      0.0001
     91  N        -19.6740   18.2260   -5.9930 N.am  102  GLY102     -0.1940
     92  CA       -20.4820   18.7830   -7.0690 C.3   102  GLY102      0.2014
     93  C        -19.8430   18.5600   -8.4140 C.2   102  GLY102      0.2638
     94  O        -18.6130   18.5890   -8.5580 O.2   102  GLY102     -0.2714
     95  N        -20.6780   18.2930   -9.3960 N.am  103  VAL103     -0.1977
     96  CA       -20.2560   18.1330  -10.7640 C.3   103  VAL103      0.1596
     97  C        -21.1410   19.0630  -11.5960 C.2   103  VAL103      0.2287
     98  O        -22.3610   18.9330  -11.5650 O.2   103  VAL103     -0.2864
     99  CB       -20.3920   16.6730  -11.2300 C.3   103  VAL103      0.0276
    100  CG1      -19.9640   16.5420  -12.6900 C.3   103  VAL103      0.0022
    101  CG2      -19.5260   15.7630  -10.3720 C.3   103  VAL103      0.0022
    102  N        -21.3220   27.2380   -9.2400 N.3   111  TYR111     -0.1241
    103  CA       -21.8030   26.0300   -8.5840 C.3   111  TYR111      0.1605
    104  C        -21.3160   25.9270   -7.1320 C.2   111  TYR111      0.2264
    105  O        -22.1020   25.5880   -6.2560 O.2   111  TYR111     -0.2867
    106  CB       -21.4730   24.7650   -9.4080 C.3   111  TYR111      0.0534
    107  CG       -22.3890   23.5850   -9.1200 C.ar  111  TYR111     -0.0201
    108  CD1      -23.7700   23.6910   -9.2450 C.ar  111  TYR111     -0.0009
    109  CD2      -21.8700   22.3640   -8.7340 C.ar  111  TYR111     -0.0009
    110  CE1      -24.6140   22.6010   -8.9600 C.ar  111  TYR111      0.0417
    111  CE2      -22.6920   21.2730   -8.4600 C.ar  111  TYR111      0.0417
    112  CZ       -24.0620   21.3920   -8.5680 C.ar  111  TYR111      0.1957
    113  OH       -24.8360   20.3040   -8.2680 O.3   111  TYR111     -0.2866
    114  N        -23.9550   25.7800   -3.9990 N.3   115  LYS115     -0.1245
    115  CA       -23.7280   24.7250   -3.0130 C.3   115  LYS115      0.1561
    116  C        -23.4860   25.2620   -1.5900 C.2   115  LYS115      0.2260
    117  O        -23.9920   24.7010   -0.6090 O.2   115  LYS115     -0.2867
    118  CB       -22.5330   23.8720   -3.4430 C.3   115  LYS115      0.0271
    119  CG       -22.7460   22.3900   -3.3260 C.3   115  LYS115      0.0035
    120  CD       -23.8250   21.9010   -4.2800 C.3   115  LYS115      0.0206
    121  CE       -23.5730   20.4530   -4.7010 C.3   115  LYS115      0.1093
    122  NZ       -24.8380   19.6920   -4.8850 N.3   115  LYS115     -0.1314
    123  N        -26.8700   26.5950   -0.2060 N.3   118  LYS118     -0.1245
    124  CA       -27.7990   25.5130    0.1810 C.3   118  LYS118      0.1561
    125  C        -27.3180   24.7710    1.4180 C.2   118  LYS118      0.2260
    126  O        -28.0780   24.6000    2.3710 O.2   118  LYS118     -0.2867
    127  CB       -27.9940   24.5060   -0.9540 C.3   118  LYS118      0.0271
    128  CG       -28.7570   25.0830   -2.1310 C.3   118  LYS118      0.0035
    129  CD       -29.2380   23.9980   -3.0850 C.3   118  LYS118      0.0206
    130  CE       -28.0750   23.2150   -3.6720 C.3   118  LYS118      0.1093
    131  NZ       -27.1840   24.0440   -4.5500 N.3   118  LYS118     -0.1314
@<TRIPOS>BOND
     1    22    23    1
     2    23    24    1
     3    23    26    1
     4    24    25    2
     5    26    27    1
     6    15    16    2
     7    15    14    1
     8    29    30    1
     9    29    28    1
    10    27    28    1
    11    14    17    1
    12    14    13    1
    13    17    18    1
    14    31    32    1
    15   100    99    1
    16    18    19    1
    17    20    19   ar
    18    19    21   ar
    19    33    32    1
    20    33    34    2
    21    32    35    1
    22    97    98    2
    23    97    96    1
    24    39    40    1
    25    35    36    1
    26    35    37    1
    27    99    96    1
    28    99   101    1
    29    38    36    1
    30    96    95    1
    31    40    43    1
    32    40    41    1
    33    43    44    1
    34   106   107    1
    35   106   103    1
    36    95    93   am
    37   108   107   ar
    38   108   110   ar
    39   102   103    1
    40    41    42    2
    41     4     3    2
    42   107   109   ar
    43   110   112   ar
    44     3     2    1
    45   109   111   ar
    46   103   104    1
    47   112   111   ar
    48   112   113    1
    49    94    93    2
    50    93    92    1
    51     5     2    1
    52     5     6    1
    53    44    46   ar
    54    44    45   ar
    55     2     1    1
    56    46    48   ar
    57     8     6   ar
    58     8    10   ar
    59     6     7   ar
    60   104   105    2
    61    45    47   ar
    62    92    91    1
    63    10    11   ar
    64    89    87    1
    65    48    47   ar
    66     7     9   ar
    67    91    85   am
    68    86    85    2
    69    85    84    1
    70    11     9   ar
    71    11    12    1
    72   122   121    1
    73   121   120    1
    74    87    84    1
    75    87    88    1
    76   131   130    1
    77   120   119    1
    78    84    83    1
    79   114   115    1
    80    54    55    1
    81    54    53    1
    82    90    88    1
    83    55    56   ar
    84    55    57   ar
    85   130   129    1
    86   118   119    1
    87   118   115    1
    88   129   128    1
    89   115   116    1
    90    81    80   ar
    91    73    71   ar
    92    83    76   am
    93    53    50    1
    94    72    71   ar
    95    71    70    1
    96   128   127    1
    97    77    76    2
    98    51    52    2
    99    51    50    1
   100    76    75    1
   101    80    79    1
   102    80    82   ar
   103   116   117    2
   104    50    49    1
   105    70    67    1
   106    79    78    1
   107   127   124    1
   108    75    78    1
   109    75    74    1
   110   123   124    1
   111    67    68    1
   112    67    66    1
   113    69    68    2
   114   124   125    1
   115   125   126    2
   116    61    60    2
   117    60    59    1
   118    64    63    1
   119    62    59    1
   120    62    63    1
   121    59    58    1
   122    63    65    1
