@<TRIPOS>MOLECULE
tmp/5egfC00.pdb
 84 80 0 0 0
SMALL
GASTEIGER

@<TRIPOS>ATOM
      1  N        -30.4230  -36.2180   39.0630 N.3   224  PHE224     -0.1227
      2  CA       -31.3440  -36.3230   40.1770 C.3   224  PHE224      0.1736
      3  C        -32.5740  -37.0930   39.6600 C.2   224  PHE224      0.2595
      4  O        -32.6510  -37.3890   38.4650 O.2   224  PHE224     -0.2718
      5  CB       -31.6870  -34.9350   40.7270 C.3   224  PHE224      0.0547
      6  CG       -32.3260  -34.9730   42.0750 C.ar  224  PHE224     -0.0202
      7  CD1      -31.7680  -35.7290   43.0940 C.ar  224  PHE224     -0.0042
      8  CD2      -33.4920  -34.2730   42.3250 C.ar  224  PHE224     -0.0042
      9  CE1      -32.3650  -35.7870   44.3310 C.ar  224  PHE224     -0.0003
     10  CE2      -34.0900  -34.3250   43.5720 C.ar  224  PHE224     -0.0003
     11  CZ       -33.5300  -35.0780   44.5730 C.ar  224  PHE224     -0.0000
     12  N        -33.4930  -37.4950   40.5310 N.am  225  ALA225     -0.1980
     13  CA       -34.6000  -38.3540   40.0760 C.3   225  ALA225      0.1597
     14  C        -35.4240  -37.6320   38.9980 C.2   225  ALA225      0.2287
     15  O        -35.4830  -36.3960   38.9780 O.2   225  ALA225     -0.2864
     16  CB       -35.4830  -38.7910   41.2510 C.3   225  ALA225      0.0319
     17  N        -20.0150  -28.3260   27.6640 N.3   257  PHE257     -0.1227
     18  CA       -21.3560  -28.0420   28.1500 C.3   257  PHE257      0.1736
     19  C        -21.4980  -28.5730   29.5690 C.2   257  PHE257      0.2595
     20  O        -21.9670  -27.8730   30.4640 O.2   257  PHE257     -0.2718
     21  CB       -22.3670  -28.7380   27.2490 C.3   257  PHE257      0.0547
     22  CG       -23.7680  -28.6720   27.7580 C.ar  257  PHE257     -0.0202
     23  CD1      -24.5790  -27.5590   27.5030 C.ar  257  PHE257     -0.0042
     24  CD2      -24.3020  -29.7270   28.4770 C.ar  257  PHE257     -0.0042
     25  CE1      -25.9060  -27.5080   27.9700 C.ar  257  PHE257     -0.0003
     26  CE2      -25.6300  -29.6750   28.9450 C.ar  257  PHE257     -0.0003
     27  CZ       -26.4210  -28.5560   28.6870 C.ar  257  PHE257     -0.0000
     28  N        -21.0760  -29.8230   29.7440 N.am  258  LEU258     -0.1980
     29  CA       -21.1180  -30.5180   31.0260 C.3   258  LEU258      0.1596
     30  C        -20.2210  -29.9110   32.0990 C.2   258  LEU258      0.2287
     31  O        -20.6410  -29.7430   33.2460 O.2   258  LEU258     -0.2864
     32  CB       -20.7800  -31.9980   30.8390 C.3   258  LEU258      0.0297
     33  CG       -21.9070  -32.8290   30.2030 C.3   258  LEU258      0.0022
     34  CD1      -21.5150  -34.3080   30.1080 C.3   258  LEU258      0.0001
     35  CD2      -23.2310  -32.6670   30.9750 C.3   258  LEU258      0.0001
     36  N        -21.9290  -26.8740   33.4280 N.3   261  HIS261     -0.1226
     37  CA       -23.1030  -27.1540   34.2670 C.3   261  HIS261      0.1752
     38  C        -22.8000  -27.8890   35.5620 C.2   261  HIS261      0.2595
     39  O        -23.4580  -27.6490   36.5820 O.2   261  HIS261     -0.2718
     40  CB       -24.2050  -27.8690   33.4830 C.3   261  HIS261      0.0759
     41  CG       -25.0470  -26.9270   32.6930 C.ar  261  HIS261      0.0818
     42  ND1      -25.0300  -26.8940   31.3160 N.ar  261  HIS261     -0.2268
     43  CD2      -25.8610  -25.9210   33.0900 C.ar  261  HIS261      0.1154
     44  CE1      -25.8440  -25.9350   30.9000 C.ar  261  HIS261      0.1986
     45  NE2      -26.3480  -25.3220   31.9560 N.ar  261  HIS261     -0.2212
     46  N        -21.7990  -28.7640   35.5190 N.am  262  LEU262     -0.1980
     47  CA       -21.4210  -29.5390   36.6970 C.3   262  LEU262      0.1596
     48  C        -20.4050  -28.7870   37.5770 C.2   262  LEU262      0.2287
     49  O        -20.1430  -29.1860   38.7260 O.2   262  LEU262     -0.2864
     50  CB       -20.8650  -30.9140   36.2890 C.3   262  LEU262      0.0297
     51  CG       -21.8410  -31.8240   35.5510 C.3   262  LEU262      0.0022
     52  CD1      -21.1550  -33.1080   35.1220 C.3   262  LEU262      0.0001
     53  CD2      -23.0610  -32.1310   36.4030 C.3   262  LEU262      0.0001
     54  N        -26.0410  -40.0480   29.9810 N.3   347  LEU347     -0.1245
     55  CA       -25.9340  -39.2720   28.7520 C.3   347  LEU347      0.1561
     56  C        -25.0890  -40.0390   27.7290 C.2   347  LEU347      0.2260
     57  O        -23.9290  -40.3980   28.0100 O.2   347  LEU347     -0.2867
     58  CB       -25.3060  -37.9100   29.0220 C.3   347  LEU347      0.0270
     59  CG       -25.1190  -36.9440   27.8430 C.3   347  LEU347      0.0019
     60  CD1      -26.4750  -36.5550   27.2570 C.3   347  LEU347      0.0001
     61  CD2      -24.3260  -35.6910   28.2540 C.3   347  LEU347      0.0001
     62  N        -30.3970  -39.9620   28.2840 N.3   384  VAL384     -0.1245
     63  CA       -30.5660  -38.9640   27.2430 C.3   384  VAL384      0.1561
     64  C        -29.5960  -39.3070   26.1180 C.2   384  VAL384      0.2260
     65  O        -28.3880  -39.5130   26.3800 O.2   384  VAL384     -0.2867
     66  CB       -30.1880  -37.5570   27.7730 C.3   384  VAL384      0.0252
     67  CG1      -30.1790  -36.5360   26.6420 C.3   384  VAL384      0.0019
     68  CG2      -31.0990  -37.1440   28.9180 C.3   384  VAL384      0.0019
     69  N        -36.2830  -35.3040   30.3220 N.3   406  LEU406     -0.1245
     70  CA       -35.8790  -34.0250   29.7740 C.3   406  LEU406      0.1561
     71  C        -37.1110  -33.4820   29.0690 C.2   406  LEU406      0.2260
     72  O        -37.5570  -34.0520   28.0610 O.2   406  LEU406     -0.2867
     73  CB       -34.7720  -34.2640   28.7620 C.3   406  LEU406      0.0270
     74  CG       -33.7930  -33.1390   28.4270 C.3   406  LEU406      0.0019
     75  CD1      -33.1180  -32.5970   29.6790 C.3   406  LEU406      0.0001
     76  CD2      -32.7480  -33.6600   27.4540 C.3   406  LEU406      0.0001
     77  N        -31.0680  -27.9340   25.1790 N.3   414  LEU414     -0.1245
     78  CA       -29.9160  -28.8320   25.0260 C.3   414  LEU414      0.1561
     79  C        -29.3890  -28.8610   23.5930 C.2   414  LEU414      0.2260
     80  O        -28.1910  -28.6550   23.3570 O.2   414  LEU414     -0.2867
     81  CB       -30.2760  -30.2660   25.4310 C.3   414  LEU414      0.0270
     82  CG       -29.1490  -31.3030   25.4000 C.3   414  LEU414      0.0019
     83  CD1      -27.9010  -30.7470   26.1100 C.3   414  LEU414      0.0001
     84  CD2      -29.5920  -32.6400   26.0280 C.3   414  LEU414      0.0001
@<TRIPOS>BOND
     1    80    79    2
     2    79    78    1
     3    78    77    1
     4    78    81    1
     5    82    81    1
     6    82    84    1
     7    82    83    1
     8    64    65    2
     9    64    63    1
    10    67    66    1
    11    63    66    1
    12    63    62    1
    13    21    22    1
    14    21    18    1
    15    60    59    1
    16    76    74    1
    17    23    22   ar
    18    23    25   ar
    19    17    18    1
    20    56    57    2
    21    56    55    1
    22    22    24   ar
    23    66    68    1
    24    59    61    1
    25    59    58    1
    26    25    27   ar
    27    72    71    2
    28    18    19    1
    29    74    73    1
    30    74    75    1
    31    24    26   ar
    32    27    26   ar
    33    55    58    1
    34    55    54    1
    35    73    70    1
    36    71    70    1
    37    19    28   am
    38    19    20    2
    39    28    29    1
    40    70    69    1
    41    34    33    1
    42    33    32    1
    43    33    35    1
    44    32    29    1
    45    44    42   ar
    46    44    45   ar
    47    29    30    1
    48    42    41   ar
    49    45    43   ar
    50    30    31    2
    51    41    43   ar
    52    41    40    1
    53    36    37    1
    54    40    37    1
    55    37    38    1
    56    52    51    1
    57    46    38   am
    58    46    47    1
    59    51    50    1
    60    51    53    1
    61    38    39    2
    62    50    47    1
    63    47    48    1
    64    48    49    2
    65     4     3    2
    66    15    14    2
    67    14    13    1
    68     1     2    1
    69     3     2    1
    70     3    12   am
    71    13    12    1
    72    13    16    1
    73     2     5    1
    74     5     6    1
    75     6     8   ar
    76     6     7   ar
    77     8    10   ar
    78     7     9   ar
    79    10    11   ar
    80     9    11   ar
