@<TRIPOS>MOLECULE
tmp/5egfC01.pdb
 99 93 0 0 0
SMALL
GASTEIGER

@<TRIPOS>ATOM
      1  N        -20.8850  -37.9710   36.8930 N.3   221  ALA221     -0.1231
      2  CA       -22.0690  -37.3020   37.4540 C.3   221  ALA221      0.1694
      3  C        -23.3480  -38.1410   37.3380 C.2   221  ALA221      0.2592
      4  O        -23.4460  -39.0110   36.4830 O.2   221  ALA221     -0.2718
      5  CB       -22.2650  -35.9180   36.8290 C.3   221  ALA221      0.0304
      6  N        -24.3160  -37.8690   38.2090 N.am  222  VAL222     -0.1966
      7  CA       -25.5120  -38.6870   38.3150 C.3   222  VAL222      0.1712
      8  C        -26.7580  -37.8070   38.4110 C.2   222  VAL222      0.2458
      9  O        -26.8910  -37.0160   39.3420 O.2   222  VAL222     -0.2730
     10  CB       -25.4540  -39.6090   39.5480 C.3   222  VAL222      0.0289
     11  CG1      -26.6880  -40.5170   39.5930 C.3   222  VAL222      0.0023
     12  CG2      -24.1710  -40.4440   39.5490 C.3   222  VAL222      0.0023
     13  N        -27.6780  -37.9510   37.4470 N.am  223  PRO223     -0.2716
     14  CA       -28.9080  -37.1420   37.3930 C.3   223  PRO223      0.1536
     15  C        -29.7060  -37.2690   38.6890 C.2   223  PRO223      0.2598
     16  O        -29.6550  -38.3130   39.3470 O.2   223  PRO223     -0.2715
     17  CB       -29.7230  -37.7870   36.2640 C.3   223  PRO223      0.0310
     18  CG       -28.8190  -38.7190   35.5600 C.3   223  PRO223      0.0237
     19  CD       -27.6580  -39.0420   36.4580 C.3   223  PRO223      0.0939
     20  N        -30.4230  -36.2180   39.0630 N.am  224  PHE224     -0.1974
     21  CA       -31.3440  -36.3230   40.1770 C.3   224  PHE224      0.1639
     22  C        -32.5740  -37.0930   39.6600 C.2   224  PHE224      0.2290
     23  O        -32.6510  -37.3890   38.4650 O.2   224  PHE224     -0.2864
     24  CB       -31.6870  -34.9350   40.7270 C.3   224  PHE224      0.0560
     25  CG       -32.3260  -34.9730   42.0750 C.ar  224  PHE224     -0.0200
     26  CD1      -31.7680  -35.7290   43.0940 C.ar  224  PHE224     -0.0042
     27  CD2      -33.4920  -34.2730   42.3250 C.ar  224  PHE224     -0.0042
     28  CE1      -32.3650  -35.7870   44.3310 C.ar  224  PHE224     -0.0003
     29  CE2      -34.0900  -34.3250   43.5720 C.ar  224  PHE224     -0.0003
     30  CZ       -33.5300  -35.0780   44.5730 C.ar  224  PHE224     -0.0000
     31  N        -21.0760  -29.8230   29.7440 N.3   258  LEU258     -0.1245
     32  CA       -21.1180  -30.5180   31.0260 C.3   258  LEU258      0.1561
     33  C        -20.2210  -29.9110   32.0990 C.2   258  LEU258      0.2260
     34  O        -20.6410  -29.7430   33.2460 O.2   258  LEU258     -0.2867
     35  CB       -20.7800  -31.9980   30.8390 C.3   258  LEU258      0.0270
     36  CG       -21.9070  -32.8290   30.2030 C.3   258  LEU258      0.0019
     37  CD1      -21.5150  -34.3080   30.1080 C.3   258  LEU258      0.0001
     38  CD2      -23.2310  -32.6670   30.9750 C.3   258  LEU258      0.0001
     39  N        -21.7990  -28.7640   35.5190 N.3   262  LEU262     -0.1245
     40  CA       -21.4210  -29.5390   36.6970 C.3   262  LEU262      0.1561
     41  C        -20.4050  -28.7870   37.5770 C.2   262  LEU262      0.2260
     42  O        -20.1430  -29.1860   38.7260 O.2   262  LEU262     -0.2867
     43  CB       -20.8650  -30.9140   36.2890 C.3   262  LEU262      0.0270
     44  CG       -21.8410  -31.8240   35.5510 C.3   262  LEU262      0.0019
     45  CD1      -21.1550  -33.1080   35.1220 C.3   262  LEU262      0.0001
     46  CD2      -23.0610  -32.1310   36.4030 C.3   262  LEU262      0.0001
     47  N        -26.0040  -42.1770   31.6850 N.3   346  SER346     -0.1202
     48  CA       -27.1660  -41.3130   31.7400 C.3   346  SER346      0.2020
     49  C        -27.2060  -40.3170   30.5730 C.2   346  SER346      0.2618
     50  O        -28.2760  -39.8100   30.2310 O.2   346  SER346     -0.2717
     51  CB       -27.2450  -40.6040   33.0930 C.3   346  SER346      0.2103
     52  OG       -26.2070  -39.6500   33.2380 O.3   346  SER346     -0.2182
     53  N        -26.0410  -40.0480   29.9810 N.am  347  LEU347     -0.1979
     54  CA       -25.9340  -39.2720   28.7520 C.3   347  LEU347      0.1596
     55  C        -25.0890  -40.0390   27.7290 C.2   347  LEU347      0.2287
     56  O        -23.9290  -40.3980   28.0100 O.2   347  LEU347     -0.2864
     57  CB       -25.3060  -37.9100   29.0220 C.3   347  LEU347      0.0297
     58  CG       -25.1190  -36.9440   27.8430 C.3   347  LEU347      0.0022
     59  CD1      -26.4750  -36.5550   27.2570 C.3   347  LEU347      0.0001
     60  CD2      -24.3260  -35.6910   28.2540 C.3   347  LEU347      0.0001
     61  N        -34.0100  -44.0730   31.2120 N.3   382  ASP382     -0.1239
     62  CA       -33.7370  -42.8650   31.9980 C.3   382  ASP382      0.1674
     63  C        -32.6500  -42.0280   31.3620 C.2   382  ASP382      0.2266
     64  O        -32.3670  -40.9310   31.8100 O.2   382  ASP382     -0.2867
     65  CB       -33.3850  -43.1870   33.4580 C.3   382  ASP382      0.1410
     66  CG       -34.6040  -43.5910   34.2770 C.2   382  ASP382      0.3668
     67  OD1      -35.6790  -42.9730   34.0930 O.co2 382  ASP382     -0.2456
     68  OD2      -34.4940  -44.5380   35.0910 O.co2 382  ASP382     -0.2456
     69  N        -30.3970  -39.9620   28.2840 N.3   384  VAL384     -0.1245
     70  CA       -30.5660  -38.9640   27.2430 C.3   384  VAL384      0.1561
     71  C        -29.5960  -39.3070   26.1180 C.2   384  VAL384      0.2260
     72  O        -28.3880  -39.5130   26.3800 O.2   384  VAL384     -0.2867
     73  CB       -30.1880  -37.5570   27.7730 C.3   384  VAL384      0.0252
     74  CG1      -30.1790  -36.5360   26.6420 C.3   384  VAL384      0.0019
     75  CG2      -31.0990  -37.1440   28.9180 C.3   384  VAL384      0.0019
     76  N        -37.8370  -37.2380   31.6620 N.3   405  VAL405     -0.1231
     77  CA       -36.4170  -37.0810   31.9280 C.3   405  VAL405      0.1692
     78  C        -35.9030  -35.7080   31.5210 C.2   405  VAL405      0.2591
     79  O        -35.1640  -35.0330   32.2590 O.2   405  VAL405     -0.2718
     80  CB       -35.6310  -38.1560   31.1640 C.3   405  VAL405      0.0266
     81  CG1      -34.1780  -37.7740   31.0720 C.3   405  VAL405      0.0020
     82  CG2      -35.8060  -39.4760   31.8570 C.3   405  VAL405      0.0020
     83  N        -36.2830  -35.3040   30.3220 N.am  406  LEU406     -0.1980
     84  CA       -35.8790  -34.0250   29.7740 C.3   406  LEU406      0.1596
     85  C        -37.1110  -33.4820   29.0690 C.2   406  LEU406      0.2287
     86  O        -37.5570  -34.0520   28.0610 O.2   406  LEU406     -0.2864
     87  CB       -34.7720  -34.2640   28.7620 C.3   406  LEU406      0.0297
     88  CG       -33.7930  -33.1390   28.4270 C.3   406  LEU406      0.0022
     89  CD1      -33.1180  -32.5970   29.6790 C.3   406  LEU406      0.0001
     90  CD2      -32.7480  -33.6600   27.4540 C.3   406  LEU406      0.0001
     91  N        -36.4770  -28.0860   27.6810 N.3   410  GLN410     -0.1245
     92  CA       -35.0950  -28.3970   28.0530 C.3   410  GLN410      0.1566
     93  C        -34.3800  -29.0460   26.8820 C.2   410  GLN410      0.2260
     94  O        -33.2490  -28.6740   26.5410 O.2   410  GLN410     -0.2867
     95  CB       -35.0530  -29.3220   29.2600 C.3   410  GLN410      0.0367
     96  CG       -35.6850  -28.7510   30.5230 C.3   410  GLN410      0.0905
     97  CD       -35.8290  -29.7880   31.6210 C.2   410  GLN410      0.2608
     98  OE1      -36.4740  -30.8280   31.4280 O.2   410  GLN410     -0.2717
     99  NE2      -35.2300  -29.5180   32.7780 N.am  410  GLN410     -0.0878
@<TRIPOS>BOND
     1    71    72    2
     2    71    70    1
     3    94    93    2
     4    74    73    1
     5    93    92    1
     6    70    73    1
     7    70    69    1
     8    59    58    1
     9    90    88    1
    10    91    92    1
    11    55    56    2
    12    55    54    1
    13    73    75    1
    14    58    60    1
    15    58    57    1
    16    92    95    1
    17    86    85    2
    18    88    87    1
    19    88    89    1
    20    54    57    1
    21    54    53    1
    22    87    84    1
    23    85    84    1
    24    95    96    1
    25    31    32    1
    26    84    83    1
    27    53    49   am
    28    37    36    1
    29    36    35    1
    30    36    38    1
    31    50    49    2
    32    83    78   am
    33    96    97    1
    34    49    48    1
    35    35    32    1
    36    32    33    1
    37    81    80    1
    38    80    82    1
    39    80    77    1
    40    61    62    1
    41    63    64    2
    42    63    62    1
    43    98    97    2
    44    78    77    1
    45    78    79    2
    46    97    99   am
    47    76    77    1
    48    47    48    1
    49    48    51    1
    50    62    65    1
    51    33    34    2
    52    51    52    1
    53    65    66    1
    54    67    66   ar
    55    66    68   ar
    56    45    44    1
    57    39    40    1
    58    44    43    1
    59    44    46    1
    60    18    17    1
    61    18    19    1
    62    17    14    1
    63    43    40    1
    64    19    13    1
    65     4     3    2
    66    40    41    1
    67     5     2    1
    68     1     2    1
    69     3     2    1
    70     3     6   am
    71    14    13    1
    72    14    15    1
    73    13     8   am
    74    41    42    2
    75     6     7    1
    76     7     8    1
    77     7    10    1
    78     8     9    2
    79    23    22    2
    80    15    20   am
    81    15    16    2
    82    20    21    1
    83    10    12    1
    84    10    11    1
    85    22    21    1
    86    21    24    1
    87    24    25    1
    88    25    27   ar
    89    25    26   ar
    90    27    29   ar
    91    26    28   ar
    92    29    30   ar
    93    28    30   ar
