@<TRIPOS>MOLECULE
tmp/5eghB04.pdb
 153 149 0 0 0
SMALL
GASTEIGER

@<TRIPOS>ATOM
      1  N          9.0200  -17.2040   32.2330 N.3    10  ASP10      -0.1239
      2  CA         9.8510  -17.7460   31.1670 C.3    10  ASP10       0.1674
      3  C          9.0030  -18.2960   30.0170 C.2    10  ASP10       0.2266
      4  O          8.0080  -18.9940   30.2280 O.2    10  ASP10      -0.2867
      5  CB        10.7500  -18.8540   31.7380 C.3    10  ASP10       0.1410
      6  CG        11.9800  -19.0890   30.8900 C.2    10  ASP10       0.3668
      7  OD1       11.8260  -19.2500   29.6570 O.co2  10  ASP10      -0.2456
      8  OD2       13.1010  -19.0700   31.4430 O.co2  10  ASP10      -0.2456
      9  N         17.2400  -17.8670   27.3130 N.3    49  SER49      -0.1202
     10  CA        17.0720  -17.4050   28.6930 C.3    49  SER49       0.2020
     11  C         18.1780  -16.5210   29.2450 C.2    49  SER49       0.2618
     12  O         17.9680  -15.3230   29.4260 O.2    49  SER49      -0.2717
     13  CB        16.9200  -18.5940   29.6320 C.3    49  SER49       0.2103
     14  OG        15.5900  -19.0510   29.5870 O.3    49  SER49      -0.2182
     15  N         19.3240  -17.0980   29.6160 N.am   50  TYR50      -0.1975
     16  CA        20.3480  -16.2850   30.2630 C.3    50  TYR50       0.1639
     17  C         20.7050  -15.0250   29.4950 C.2    50  TYR50       0.2290
     18  O         20.8400  -13.9680   30.1360 O.2    50  TYR50      -0.2864
     19  CB        21.6030  -17.1330   30.5390 C.3    50  TYR50       0.0560
     20  CG        21.4700  -17.9690   31.7740 C.ar   50  TYR50      -0.0198
     21  CD1       21.6240  -17.4030   33.0420 C.ar   50  TYR50      -0.0009
     22  CD2       21.2010  -19.3270   31.6940 C.ar   50  TYR50      -0.0009
     23  CE1       21.5020  -18.1770   34.1970 C.ar   50  TYR50       0.0417
     24  CE2       21.0780  -20.1000   32.8270 C.ar   50  TYR50       0.0417
     25  CZ        21.2350  -19.5230   34.0830 C.ar   50  TYR50       0.1957
     26  OH        21.1240  -20.3120   35.2180 O.3    50  TYR50      -0.2866
     27  N         17.6100  -12.7170   30.2060 N.3    53  TYR53      -0.1241
     28  CA        17.5700  -12.3250   31.6160 C.3    53  TYR53       0.1605
     29  C         18.4570  -11.1130   31.8500 C.2    53  TYR53       0.2264
     30  O         18.0920  -10.1820   32.5800 O.2    53  TYR53      -0.2867
     31  CB        18.0540  -13.4500   32.5350 C.3    53  TYR53       0.0534
     32  CG        17.3370  -14.7780   32.5230 C.ar   53  TYR53      -0.0201
     33  CD1       16.0300  -14.9080   32.0910 C.ar   53  TYR53      -0.0009
     34  CD2       17.9900  -15.9170   32.9930 C.ar   53  TYR53      -0.0009
     35  CE1       15.3960  -16.1420   32.1090 C.ar   53  TYR53       0.0417
     36  CE2       17.3650  -17.1420   33.0210 C.ar   53  TYR53       0.0417
     37  CZ        16.0810  -17.2560   32.5860 C.ar   53  TYR53       0.1957
     38  OH        15.4850  -18.4890   32.6040 O.3    53  TYR53      -0.2866
     39  N         23.1290  -19.5220   26.3830 N.3    70  ASN70      -0.1240
     40  CA        22.8740  -20.3860   27.5240 C.3    70  ASN70       0.1653
     41  C         24.1020  -21.2170   27.8410 C.2    70  ASN70       0.2266
     42  O         24.3380  -21.5500   29.0030 O.2    70  ASN70      -0.2867
     43  CB        21.6880  -21.3050   27.2670 C.3    70  ASN70       0.1155
     44  CG        20.3580  -20.6150   27.4930 C.2    70  ASN70       0.2627
     45  OD1       20.2830  -19.5740   28.1530 O.2    70  ASN70      -0.2716
     46  ND2       19.3040  -21.2110   26.9800 N.am   70  ASN70      -0.0877
     47  N         24.5470  -23.5290   30.9650 N.3    83  ILE83      -0.1245
     48  CA        23.1980  -23.1230   31.3580 C.3    83  ILE83       0.1561
     49  C         23.0400  -23.0720   32.8790 C.2    83  ILE83       0.2260
     50  O         21.9940  -23.4320   33.4300 O.2    83  ILE83      -0.2867
     51  CB        22.1280  -24.0020   30.6630 C.3    83  ILE83       0.0252
     52  CG1       20.7770  -23.2620   30.6140 C.3    83  ILE83       0.0019
     53  CG2       22.0040  -25.4160   31.2530 C.3    83  ILE83       0.0019
     54  CD1       19.7380  -23.9220   29.7170 C.3    83  ILE83       0.0001
     55  N         24.4130  -24.7130   35.3160 N.3    85  VAL85      -0.1245
     56  CA        24.3120  -25.9460   36.0990 C.3    85  VAL85       0.1561
     57  C         25.6590  -26.3530   36.6890 C.2    85  VAL85       0.2260
     58  O         25.7350  -26.7630   37.8500 O.2    85  VAL85      -0.2867
     59  CB        23.7040  -27.0680   35.2310 C.3    85  VAL85       0.0252
     60  CG1       23.8010  -28.4140   35.9400 C.3    85  VAL85       0.0019
     61  CG2       22.2410  -26.7690   34.9300 C.3    85  VAL85       0.0019
     62  N         17.3630  -16.7480   38.1680 N.3   118  PRO118     -0.2116
     63  CA        18.6900  -17.2060   37.7390 C.3   118  PRO118      0.1372
     64  C         19.6780  -16.0540   37.7380 C.2   118  PRO118      0.2244
     65  O         19.4570  -15.0220   37.0980 O.2   118  PRO118     -0.2868
     66  CB        18.4340  -17.7600   36.3310 C.3   118  PRO118      0.0268
     67  CG        16.9810  -18.1890   36.3740 C.3   118  PRO118      0.0207
     68  CD        16.3290  -17.0620   37.1650 C.3   118  PRO118      0.0892
     69  N         17.5400  -20.9220   42.5030 N.3   135  TYR135     -0.1241
     70  CA        16.9390  -21.8610   41.5620 C.3   135  TYR135      0.1605
     71  C         17.6420  -23.2070   41.6890 C.2   135  TYR135      0.2264
     72  O         18.8690  -23.2770   41.6100 O.2   135  TYR135     -0.2867
     73  CB        17.0450  -21.3550   40.1200 C.3   135  TYR135      0.0534
     74  CG        16.4550  -22.3020   39.0820 C.ar  135  TYR135     -0.0201
     75  CD1       17.1870  -23.3870   38.6140 C.ar  135  TYR135     -0.0009
     76  CD2       15.1770  -22.1040   38.5600 C.ar  135  TYR135     -0.0009
     77  CE1       16.6680  -24.2620   37.6870 C.ar  135  TYR135      0.0417
     78  CE2       14.6420  -22.9910   37.6110 C.ar  135  TYR135      0.0417
     79  CZ        15.4090  -24.0660   37.1780 C.ar  135  TYR135      0.1957
     80  OH        14.9150  -24.9560   36.2400 O.3   135  TYR135     -0.2866
     81  N         10.8800  -15.4620   39.6410 N.3   166  TYR166     -0.1241
     82  CA        11.0320  -16.1770   38.3800 C.3   166  TYR166      0.1605
     83  C         10.1380  -17.4130   38.3520 C.2   166  TYR166      0.2264
     84  O         10.0630  -18.1500   39.3390 O.2   166  TYR166     -0.2867
     85  CB        12.5010  -16.5890   38.1870 C.3   166  TYR166      0.0534
     86  CG        12.7080  -17.5500   37.0460 C.ar  166  TYR166     -0.0201
     87  CD1       12.7560  -17.1010   35.7400 C.ar  166  TYR166     -0.0009
     88  CD2       12.8880  -18.9150   37.2820 C.ar  166  TYR166     -0.0009
     89  CE1       12.9450  -17.9740   34.6810 C.ar  166  TYR166      0.0417
     90  CE2       13.0800  -19.8010   36.2250 C.ar  166  TYR166      0.0417
     91  CZ        13.1060  -19.3240   34.9290 C.ar  166  TYR166      0.1957
     92  OH        13.2910  -20.1900   33.8680 O.3   166  TYR166     -0.2866
     93  N          9.0190  -20.7810   35.6270 N.3   168  GLU168     -0.1245
     94  CA         9.5060  -21.4760   34.4370 C.3   168  GLU168      0.1567
     95  C          8.4720  -22.3480   33.7210 C.2   168  GLU168      0.2260
     96  O          8.6680  -22.6540   32.5380 O.2   168  GLU168     -0.2867
     97  CB        10.7160  -22.3620   34.8060 C.3   168  GLU168      0.0388
     98  CG        11.5230  -22.8990   33.6120 C.3   168  GLU168      0.1160
     99  CD        12.6490  -23.8290   34.0230 C.2   168  GLU168      0.3649
    100  OE1       12.8270  -24.0380   35.2390 O.co2 168  GLU168     -0.2457
    101  OE2       13.3540  -24.3460   33.1290 O.co2 168  GLU168     -0.2457
    102  N          7.3680  -22.1950   30.0510 N.3   171  ASP171     -0.1239
    103  CA         8.4280  -22.5620   29.1250 C.3   171  ASP171      0.1674
    104  C          8.5560  -24.0780   29.0130 C.2   171  ASP171      0.2266
    105  O          8.6950  -24.6200   27.9040 O.2   171  ASP171     -0.2867
    106  CB         9.7510  -21.9380   29.5910 C.3   171  ASP171      0.1410
    107  CG        10.8850  -22.1350   28.6020 C.2   171  ASP171      0.3668
    108  OD1       10.8080  -21.5740   27.4930 O.co2 171  ASP171     -0.2456
    109  OD2       11.8610  -22.8440   28.9340 O.co2 171  ASP171     -0.2456
    110  N          7.8930  -26.3790   25.7240 N.3   175  HIS175     -0.1241
    111  CA         8.9190  -27.2570   25.1700 C.3   175  HIS175      0.1621
    112  C          8.3860  -28.6730   24.9860 C.2   175  HIS175      0.2264
    113  O          8.4620  -29.2520   23.8940 O.2   175  HIS175     -0.2867
    114  CB        10.1450  -27.2870   26.0920 C.3   175  HIS175      0.0745
    115  CG        11.1010  -26.1560   25.8830 C.ar  175  HIS175      0.0817
    116  ND1       11.6950  -25.8980   24.6680 N.ar  175  HIS175     -0.2268
    117  CD2       11.5820  -25.2260   26.7420 C.ar  175  HIS175      0.1154
    118  CE1       12.4930  -24.8520   24.7840 C.ar  175  HIS175      0.1986
    119  NE2       12.4470  -24.4290   26.0340 N.ar  175  HIS175     -0.2212
    120  N         11.3820  -14.4630   26.2120 N.3   219  HIS219     -0.1241
    121  CA        11.1990  -14.8190   24.8020 C.3   219  HIS219      0.1621
    122  C          9.8930  -15.5840   24.6030 C.2   219  HIS219      0.2264
    123  O          9.2160  -15.9260   25.5810 O.2   219  HIS219     -0.2867
    124  CB        12.3540  -15.6980   24.3210 C.3   219  HIS219      0.0745
    125  CG        12.5560  -16.8860   25.1950 C.ar  219  HIS219      0.0817
    126  ND1       11.7150  -17.9770   25.1760 N.ar  219  HIS219     -0.2268
    127  CD2       13.4460  -17.1130   26.1860 C.ar  219  HIS219      0.1154
    128  CE1       12.0930  -18.8340   26.1030 C.ar  219  HIS219      0.1986
    129  NE2       13.1480  -18.3380   26.7200 N.ar  219  HIS219     -0.2212
    130  N         10.3900  -24.9560   20.8820 N.3   331  TRP331     -0.1227
    131  CA        11.7150  -24.4320   21.1900 C.3   331  TRP331      0.1737
    132  C         11.7580  -22.9510   20.8490 C.2   331  TRP331      0.2595
    133  O         10.7790  -22.3710   20.3700 O.2   331  TRP331     -0.2718
    134  CB        12.8020  -25.2010   20.4390 C.3   331  TRP331      0.0564
    135  CG        14.0980  -25.3430   21.1760 C.ar  331  TRP331      0.0003
    136  CD1       15.2240  -24.5800   21.0200 C.ar  331  TRP331      0.0946
    137  CD2       14.4180  -26.3290   22.1670 C.ar  331  TRP331      0.0152
    138  NE1       16.2210  -25.0350   21.8530 N.ar  331  TRP331     -0.2442
    139  CE2       15.7480  -26.1030   22.5700 C.ar  331  TRP331      0.0810
    140  CE3       13.7040  -27.3770   22.7540 C.ar  331  TRP331      0.0012
    141  CZ2       16.3790  -26.8870   23.5340 C.ar  331  TRP331      0.0191
    142  CZ3       14.3310  -28.1510   23.7180 C.ar  331  TRP331      0.0001
    143  CH2       15.6550  -27.9020   24.0960 C.ar  331  TRP331      0.0015
    144  N         12.9110  -22.3460   21.1190 N.am  332  HIS332     -0.1975
    145  CA        13.1210  -20.9100   20.9690 C.3   332  HIS332      0.1656
    146  C         14.6260  -20.6750   20.9110 C.2   332  HIS332      0.2291
    147  O         15.4220  -21.5760   21.1800 O.2   332  HIS332     -0.2864
    148  CB        12.4640  -20.1420   22.1260 C.3   332  HIS332      0.0771
    149  CG        13.0240  -20.5180   23.4630 C.ar  332  HIS332      0.0820
    150  ND1       14.1980  -19.9830   23.9450 N.ar  332  HIS332     -0.2267
    151  CD2       12.6100  -21.4140   24.3910 C.ar  332  HIS332      0.1154
    152  CE1       14.4840  -20.5310   25.1110 C.ar  332  HIS332      0.1986
    153  NE2       13.5310  -21.3910   25.4120 N.ar  332  HIS332     -0.2212
@<TRIPOS>BOND
     1   133   132    2
     2   134   135    1
     3   134   131    1
     4   132   144   am
     5   132   131    1
     6   130   131    1
     7   146   145    1
     8   146   147    2
     9   145   144    1
    10   145   148    1
    11   136   135   ar
    12   136   138   ar
    13   135   137   ar
    14   138   139   ar
    15   148   149    1
    16   137   139   ar
    17   137   140   ar
    18   139   141   ar
    19   140   142   ar
    20   149   150   ar
    21   149   151   ar
    22   141   143   ar
    23   142   143   ar
    24   113   112    2
    25   150   152   ar
    26   124   121    1
    27   124   125    1
    28   151   153   ar
    29   122   121    1
    30   122   123    2
    31   116   118   ar
    32   116   115   ar
    33   118   119   ar
    34   121   120    1
    35   112   111    1
    36   152   153   ar
    37   111   110    1
    38   111   114    1
    39   126   125   ar
    40   126   128   ar
    41   125   127   ar
    42   115   114    1
    43   115   117   ar
    44   119   117   ar
    45   128   129   ar
    46   127   129   ar
    47    39    40    1
    48    46    44   am
    49    43    44    1
    50    43    40    1
    51     9    10    1
    52   108   107   ar
    53    44    45    2
    54    40    41    1
    55    41    42    2
    56   105   104    2
    57   107   109   ar
    58   107   106    1
    59    10    11    1
    60    10    13    1
    61   104   103    1
    62   103   106    1
    63   103   102    1
    64    11    12    2
    65    11    15   am
    66    17    18    2
    67    17    16    1
    68    14    13    1
    69    15    16    1
    70     7     6   ar
    71    54    52    1
    72     3     4    2
    73     3     2    1
    74    27    28    1
    75    16    19    1
    76    19    20    1
    77    52    51    1
    78    51    53    1
    79    51    48    1
    80     6     8   ar
    81     6     5    1
    82    47    48    1
    83     2     5    1
    84     2     1    1
    85    48    49    1
    86    28    29    1
    87    28    31    1
    88    22    20   ar
    89    22    24   ar
    90    20    21   ar
    91    29    30    2
    92    33    35   ar
    93    33    32   ar
    94    35    37   ar
    95    32    31    1
    96    32    34   ar
    97    96    95    2
    98    37    38    1
    99    37    36   ar
   100    24    25   ar
   101    49    50    2
   102    34    36   ar
   103    21    23   ar
   104   101    99   ar
   105    98    99    1
   106    98    97    1
   107    95    94    1
   108    92    91    1
   109    99   100   ar
   110    25    23   ar
   111    25    26    1
   112    94    97    1
   113    94    93    1
   114    89    91   ar
   115    89    87   ar
   116    91    90   ar
   117    61    59    1
   118    59    60    1
   119    59    56    1
   120    55    56    1
   121    87    86   ar
   122    56    57    1
   123    90    88   ar
   124    80    79    1
   125    66    67    1
   126    66    63    1
   127    67    68    1
   128    57    58    2
   129    86    88   ar
   130    86    85    1
   131    65    64    2
   132    68    62    1
   133    79    78   ar
   134    79    77   ar
   135    78    76   ar
   136    77    75   ar
   137    64    63    1
   138    63    62    1
   139    85    82    1
   140    83    82    1
   141    83    84    2
   142    82    81    1
   143    76    74   ar
   144    75    74   ar
   145    74    73    1
   146    73    70    1
   147    70    71    1
   148    70    69    1
   149    72    71    2
