@<TRIPOS>MOLECULE
tmp/5egiB01.pdb
 195 181 0 0 0
SMALL
GASTEIGER

@<TRIPOS>ATOM
      1  N         11.6780   24.3300   20.1100 N.3    29  MET29      -0.1245
      2  CA        11.3040   23.0220   19.5600 C.3    29  MET29       0.1570
      3  C          9.8240   22.9170   19.2000 C.2    29  MET29       0.2261
      4  O          9.4930   22.6520   18.0430 O.2    29  MET29      -0.2867
      5  CB        11.6540   21.8950   20.5390 C.3    29  MET29       0.0387
      6  CG        13.1410   21.6780   20.7390 C.3    29  MET29       0.0595
      7  SD        14.0390   21.5840   19.1640 S.3    29  MET29      -0.1393
      8  CE        14.3170   19.8390   18.9740 C.3    29  MET29       0.0692
      9  N          8.4350   24.8870   16.4260 N.3    32  GLU32      -0.1245
     10  CA         8.7730   24.2350   15.1740 C.3    32  GLU32       0.1567
     11  C          7.7800   23.1110   14.8860 C.2    32  GLU32       0.2260
     12  O          7.3120   22.9730   13.7560 O.2    32  GLU32      -0.2867
     13  CB        10.1860   23.6660   15.2400 C.3    32  GLU32       0.0388
     14  CG        10.6130   23.0100   13.9520 C.3    32  GLU32       0.1160
     15  CD        12.0550   22.5270   13.9610 C.2    32  GLU32       0.3649
     16  OE1       12.4570   21.9340   12.9350 O.co2  32  GLU32      -0.2457
     17  OE2       12.7810   22.7370   14.9670 O.co2  32  GLU32      -0.2457
     18  N         10.0210   15.8270   20.5640 N.3    59  MET59      -0.1245
     19  CA        11.0130   16.7730   20.1190 C.3    59  MET59       0.1570
     20  C         11.7050   17.5190   21.2530 C.2    59  MET59       0.2261
     21  O         12.8250   17.9860   21.0870 O.2    59  MET59      -0.2867
     22  CB        10.3820   17.7490   19.1410 C.3    59  MET59       0.0387
     23  CG         9.8490   17.0790   17.8910 C.3    59  MET59       0.0595
     24  SD        11.0050   15.9220   17.1190 S.3    59  MET59      -0.1393
     25  CE        12.4190   16.9620   16.8560 C.3    59  MET59       0.0692
     26  N         16.9540    9.3220   21.9800 N.3    66  LEU66      -0.1245
     27  CA        17.9990    8.7940   21.1020 C.3    66  LEU66       0.1561
     28  C         19.1390    8.0960   21.8330 C.2    66  LEU66       0.2260
     29  O         19.5090    6.9740   21.4660 O.2    66  LEU66      -0.2867
     30  CB        18.5830    9.8800   20.1950 C.3    66  LEU66       0.0270
     31  CG        19.5550    9.2380   19.2020 C.3    66  LEU66       0.0019
     32  CD1       18.8180    8.1460   18.4900 C.3    66  LEU66       0.0001
     33  CD2       20.0770   10.2110   18.1980 C.3    66  LEU66       0.0001
     34  N         18.0890    4.7780   23.4660 N.3    69  PHE69      -0.1227
     35  CA        18.1000    3.7520   22.4210 C.3    69  PHE69       0.1736
     36  C         19.5330    3.2520   22.1280 C.2    69  PHE69       0.2595
     37  O         19.8050    2.0410   22.0840 O.2    69  PHE69      -0.2718
     38  CB        17.4920    4.2950   21.1160 C.3    69  PHE69       0.0547
     39  CG        17.5060    3.2960   19.9810 C.ar   69  PHE69      -0.0202
     40  CD1       16.5980    2.2340   19.9580 C.ar   69  PHE69      -0.0042
     41  CD2       18.4520    3.3920   18.9620 C.ar   69  PHE69      -0.0042
     42  CE1       16.6250    1.2790   18.9300 C.ar   69  PHE69      -0.0003
     43  CE2       18.4950    2.4420   17.9220 C.ar   69  PHE69      -0.0003
     44  CZ        17.5800    1.3790   17.9050 C.ar   69  PHE69      -0.0000
     45  N         20.4390    4.1960   21.9160 N.am   70  LEU70      -0.1980
     46  CA        21.8150    3.8610   21.6200 C.3    70  LEU70       0.1596
     47  C         22.4570    3.0790   22.7590 C.2    70  LEU70       0.2287
     48  O         23.2700    2.1700   22.5310 O.2    70  LEU70      -0.2864
     49  CB        22.6020    5.1430   21.3470 C.3    70  LEU70       0.0297
     50  CG        22.1610    5.8610   20.0670 C.3    70  LEU70       0.0022
     51  CD1       22.7160    7.2860   19.9970 C.3    70  LEU70       0.0001
     52  CD2       22.6230    5.0400   18.8850 C.3    70  LEU70       0.0001
     53  N         19.7250   28.2820   23.8230 N.3   120  LYS120     -0.1245
     54  CA        19.6550   26.8820   23.3830 C.3   120  LYS120      0.1561
     55  C         21.0300   26.2700   23.1300 C.2   120  LYS120      0.2260
     56  O         21.2640   25.1040   23.4470 O.2   120  LYS120     -0.2867
     57  CB        18.8020   26.7500   22.1030 C.3   120  LYS120      0.0271
     58  CG        18.3410   25.3090   21.8340 C.3   120  LYS120      0.0035
     59  CD        17.8100   25.0850   20.4050 C.3   120  LYS120      0.0206
     60  CE        17.4580   23.6010   20.1580 C.3   120  LYS120      0.1093
     61  NZ        18.6050   22.6510   20.3830 N.3   120  LYS120     -0.1314
     62  N         22.6420   22.9060   24.6210 N.3   124  ARG124     -0.1245
     63  CA        23.1910   21.8840   23.7320 C.3   124  ARG124      0.1563
     64  C         24.5710   21.4730   24.1760 C.2   124  ARG124      0.2260
     65  O         24.8900   20.2910   24.2280 O.2   124  ARG124     -0.2867
     66  CB        23.3120   22.4200   22.3180 C.3   124  ARG124      0.0307
     67  CG        24.1360   21.5240   21.4040 C.3   124  ARG124      0.0489
     68  CD        24.2140   22.1180   20.0070 C.3   124  ARG124      0.2205
     69  NE        22.9430   22.7440   19.6570 N.pl3 124  ARG124     -0.0865
     70  CZ        22.3190   22.5700   18.5030 C.cat 124  ARG124      0.5346
     71  NH1       22.8500   21.7890   17.5740 N.pl3 124  ARG124      0.1354
     72  NH2       21.1550   23.1600   18.2940 N.pl3 124  ARG124      0.1354
     73  N         30.1470    9.3030   20.1760 N.3   148  LEU148     -0.1245
     74  CA        28.8580    9.1300   19.5000 C.3   148  LEU148      0.1561
     75  C         27.6930    9.5540   20.3560 C.2   148  LEU148      0.2260
     76  O         26.8720   10.3500   19.9230 O.2   148  LEU148     -0.2867
     77  CB        28.6420    7.6830   19.0900 C.3   148  LEU148      0.0270
     78  CG        29.5370    7.2350   17.9410 C.3   148  LEU148      0.0019
     79  CD1       29.0750    5.8740   17.4500 C.3   148  LEU148      0.0001
     80  CD2       29.4770    8.2610   16.8200 C.3   148  LEU148      0.0001
     81  N         27.7060   13.3200   20.6110 N.3   151  THR151     -0.1203
     82  CA        27.2030   13.8960   19.3720 C.3   151  THR151      0.1994
     83  C         25.7310   13.5520   19.2670 C.2   151  THR151      0.2617
     84  O         24.9520   14.2440   18.6180 O.2   151  THR151     -0.2717
     85  CB        27.8700   13.2600   18.1740 C.3   151  THR151      0.1784
     86  OG1       29.2900   13.3500   18.3250 O.3   151  THR151     -0.2211
     87  CG2       27.4440   13.9560   16.8960 C.3   151  THR151      0.0376
     88  N         25.3530   12.4570   19.9040 N.am  152  ALA152     -0.1979
     89  CA        23.9780   12.0210   19.8600 C.3   152  ALA152      0.1597
     90  C         23.0830   13.0090   20.5530 C.2   152  ALA152      0.2287
     91  O         22.0470   13.3890   20.0130 O.2   152  ALA152     -0.2864
     92  CB        23.8510   10.6660   20.5090 C.3   152  ALA152      0.0319
     93  N         23.9200   16.0890   21.4050 N.3   154  GLY154     -0.1210
     94  CA        24.1310   17.4190   20.8800 C.3   154  GLY154      0.1956
     95  C         23.3920   17.7050   19.5850 C.2   154  GLY154      0.2612
     96  O         22.9420   18.8350   19.3740 O.2   154  GLY154     -0.2717
     97  N         23.2370   16.6890   18.7300 N.am  155  ALA155     -0.1965
     98  CA        22.5840   16.8810   17.4320 C.3   155  ALA155      0.1728
     99  C         21.6020   15.8300   16.9120 C.2   155  ALA155      0.2617
    100  O         21.1160   15.9600   15.7940 O.2   155  ALA155     -0.2715
    101  CB        23.6540   17.1040   16.3720 C.3   155  ALA155      0.0334
    102  N         21.2890   14.7990   17.6810 N.am  156  GLY156     -0.1940
    103  CA        20.3740   13.7880   17.1630 C.3   156  GLY156      0.2014
    104  C         18.8780   14.0800   17.1550 C.2   156  GLY156      0.2640
    105  O         18.0820   13.1560   17.0090 O.2   156  GLY156     -0.2714
    106  N         18.4860   15.3430   17.3120 N.am  157  SER157     -0.1935
    107  CA        17.0650   15.6980   17.3150 C.3   157  SER157      0.2055
    108  C         16.4690   15.4830   15.9390 C.2   157  SER157      0.2644
    109  O         15.2810   15.1820   15.8050 O.2   157  SER157     -0.2714
    110  CB        16.8690   17.1570   17.7520 C.3   157  SER157      0.2130
    111  OG        17.9380   17.9780   17.3100 O.3   157  SER157     -0.2179
    112  N         17.3090   15.6260   14.9190 N.am  158  GLY158     -0.1939
    113  CA        16.8560   15.4320   13.5550 C.3   158  GLY158      0.2014
    114  C         16.3200   14.0350   13.3070 C.2   158  GLY158      0.2638
    115  O         15.2720   13.8640   12.6860 O.2   158  GLY158     -0.2714
    116  N         17.0470   13.0340   13.8000 N.am  159  ILE159     -0.1977
    117  CA        16.6730   11.6280   13.6340 C.3   159  ILE159      0.1596
    118  C         15.3170   11.3140   14.2460 C.2   159  ILE159      0.2287
    119  O         14.4780   10.6520   13.6350 O.2   159  ILE159     -0.2864
    120  CB        17.7060   10.6910   14.2820 C.3   159  ILE159      0.0276
    121  CG1       19.1080   11.0510   13.8060 C.3   159  ILE159      0.0022
    122  CG2       17.4090    9.2650   13.9100 C.3   159  ILE159      0.0022
    123  CD1       20.1810   10.1200   14.3210 C.3   159  ILE159      0.0001
    124  N         13.0440   13.4190   14.8070 N.3   161  ARG161     -0.1245
    125  CA        12.0800   14.1620   13.9840 C.3   161  ARG161      0.1563
    126  C         11.6680   13.3430   12.7510 C.2   161  ARG161      0.2260
    127  O         10.4770   13.2040   12.4680 O.2   161  ARG161     -0.2867
    128  CB        12.6790   15.4960   13.5320 C.3   161  ARG161      0.0307
    129  CG        11.8250   16.2970   12.5550 C.3   161  ARG161      0.0489
    130  CD        12.3030   17.7340   12.5120 C.3   161  ARG161      0.2205
    131  NE        11.5390   18.5760   11.5900 N.pl3 161  ARG161     -0.0865
    132  CZ        11.5410   18.4550   10.2600 C.cat 161  ARG161      0.5346
    133  NH1       10.8130   19.2820    9.5120 N.pl3 161  ARG161      0.1354
    134  NH2       12.2650   17.5070    9.6660 N.pl3 161  ARG161      0.1354
    135  N         11.9770   10.0850   12.2810 N.3   163  LEU163     -0.1245
    136  CA        11.2260    8.9070   12.6660 C.3   163  LEU163      0.1561
    137  C          9.7670    9.2410   12.9470 C.2   163  LEU163      0.2260
    138  O          8.8840    8.5370   12.4770 O.2   163  LEU163     -0.2867
    139  CB        11.8510    8.2320   13.8960 C.3   163  LEU163      0.0270
    140  CG        12.8950    7.1260   13.6680 C.3   163  LEU163      0.0019
    141  CD1       12.3790    6.1120   12.6420 C.3   163  LEU163      0.0001
    142  CD2       14.1870    7.7360   13.1870 C.3   163  LEU163      0.0001
    143  N         13.6490   20.1250    6.5620 N.3   175  HIS175     -0.1241
    144  CA        14.6290   19.7030    7.5600 C.3   175  HIS175      0.1621
    145  C         15.7530   20.7260    7.6050 C.2   175  HIS175      0.2264
    146  O         16.7370   20.5750    8.3320 O.2   175  HIS175     -0.2867
    147  CB        15.1490   18.3140    7.1530 C.3   175  HIS175      0.0745
    148  CG        16.1680   17.7310    8.0810 C.ar  175  HIS175      0.0817
    149  ND1       17.5150   18.0000    7.9710 N.ar  175  HIS175     -0.2268
    150  CD2       16.0420   16.8540    9.1060 C.ar  175  HIS175      0.1154
    151  CE1       18.1750   17.3100    8.8830 C.ar  175  HIS175      0.1986
    152  NE2       17.3050   16.6060    9.5850 N.ar  175  HIS175     -0.2212
    153  N         16.0220   24.0300    8.8410 N.3   177  GLU177     -0.1245
    154  CA        15.5620   25.1470    9.6920 C.3   177  GLU177      0.1567
    155  C         16.2950   26.3300    9.1000 C.2   177  GLU177      0.2260
    156  O         15.7130   27.2500    8.5200 O.2   177  GLU177     -0.2867
    157  CB        16.0500   25.0020   11.1390 C.3   177  GLU177      0.0388
    158  CG        15.4860   23.8650   11.9520 C.3   177  GLU177      0.1160
    159  CD        16.0640   23.8470   13.3610 C.2   177  GLU177      0.3649
    160  OE1       17.3030   23.7190   13.4960 O.co2 177  GLU177     -0.2457
    161  OE2       15.2850   23.9690   14.3310 O.co2 177  GLU177     -0.2457
    162  N         22.4260   24.7630   10.6800 N.3   181  PRO181     -0.2102
    163  CA        22.5880   23.8170   11.7920 C.3   181  PRO181      0.1504
    164  C         23.3660   22.5520   11.4360 C.2   181  PRO181      0.2576
    165  O         23.5170   21.6620   12.2700 O.2   181  PRO181     -0.2718
    166  CB        21.1490   23.5250   12.2080 C.3   181  PRO181      0.0282
    167  CG        20.5100   24.8520   12.0400 C.3   181  PRO181      0.0208
    168  CD        21.0570   25.3130   10.6820 C.3   181  PRO181      0.0893
    169  N         23.8430   22.4630   10.1960 N.am  182  SER182     -0.1953
    170  CA        24.6400   21.3130    9.7770 C.3   182  SER182      0.1924
    171  C         25.9370   21.4750   10.5590 C.2   182  SER182      0.2314
    172  O         26.6910   20.5190   10.7590 O.2   182  SER182     -0.2863
    173  CB        24.9270   21.3500    8.2690 C.3   182  SER182      0.2116
    174  OG        25.7800   22.4310    7.9280 O.3   182  SER182     -0.2180
    175  N         25.9300   22.1710   13.5370 N.3   184  ALA184     -0.1231
    176  CA        25.6200   21.5490   14.8130 C.3   184  ALA184      0.1694
    177  C         26.2490   20.1770   14.9520 C.2   184  ALA184      0.2592
    178  O         26.8990   19.8970   15.9560 O.2   184  ALA184     -0.2718
    179  CB        24.1130   21.4440   14.9980 C.3   184  ALA184      0.0304
    180  N         26.0680   19.3190   13.9500 N.am  185  THR185     -0.1953
    181  CA        26.6190   17.9670   14.0320 C.3   185  THR185      0.1897
    182  C         28.1390   17.8930   14.0780 C.2   185  THR185      0.2313
    183  O         28.6910   17.1490   14.8840 O.2   185  THR185     -0.2863
    184  CB        26.1050   17.0600   12.8940 C.3   185  THR185      0.1794
    185  OG1       26.2970   17.7080   11.6300 O.3   185  THR185     -0.2208
    186  CG2       24.6340   16.7520   13.0950 C.3   185  THR185      0.0378
    187  N         25.5530   29.7540   16.0790 N.3   223  LYS223     -0.1245
    188  CA        24.1040   29.9180   16.0520 C.3   223  LYS223      0.1561
    189  C         23.7340   31.3850   15.8900 C.2   223  LYS223      0.2260
    190  O         22.5860   31.7090   15.5830 O.2   223  LYS223     -0.2867
    191  CB        23.4600   29.3620   17.3130 C.3   223  LYS223      0.0271
    192  CG        21.9600   29.1420   17.1810 C.3   223  LYS223      0.0035
    193  CD        21.6580   27.9950   16.2290 C.3   223  LYS223      0.0206
    194  CE        20.1770   27.6170   16.2530 C.3   223  LYS223      0.1093
    195  NZ        19.7000   27.1940   17.6110 N.3   223  LYS223     -0.1314
@<TRIPOS>BOND
     1   143   144    1
     2   147   144    1
     3   147   148    1
     4   144   145    1
     5   145   146    2
     6   174   173    1
     7   149   148   ar
     8   149   151   ar
     9   148   150   ar
    10   173   170    1
    11   156   155    2
    12   153   154    1
    13   151   152   ar
    14   155   154    1
    15   150   152   ar
    16   133   132    1
    17   134   132    1
    18   154   157    1
    19   170   169    1
    20   170   171    1
    21   169   164   am
    22   132   131    2
    23   171   172    2
    24   162   168    1
    25   162   163    1
    26   168   167    1
    27   157   158    1
    28   164   163    1
    29   164   165    2
    30   131   130    1
    31   185   184    1
    32   163   166    1
    33   158   159    1
    34   167   166    1
    35   135   136    1
    36   127   126    2
    37   138   137    2
    38   130   129    1
    39   129   128    1
    40   141   140    1
    41   136   137    1
    42   136   139    1
    43   115   114    2
    44   126   125    1
    45   184   186    1
    46   184   181    1
    47    16    15   ar
    48   142   140    1
    49   114   113    1
    50   114   116   am
    51   159   160   ar
    52   159   161   ar
    53   128   125    1
    54   175   176    1
    55   113   112    1
    56   117   116    1
    57   117   118    1
    58   117   120    1
    59   119   118    2
    60   140   139    1
    61    12    11    2
    62   121   120    1
    63   121   123    1
    64   122   120    1
    65   180   181    1
    66   180   177   am
    67    14    15    1
    68    14    13    1
    69    15    17   ar
    70   125   124    1
    71   181   182    1
    72   182   183    2
    73   176   177    1
    74   176   179    1
    75    11    10    1
    76   112   108   am
    77   177   178    2
    78    10    13    1
    79    10     9    1
    80   190   189    2
    81   100    99    2
    82   109   108    2
    83   189   188    1
    84   108   107    1
    85   188   187    1
    86   188   191    1
    87   193   194    1
    88   193   192    1
    89   194   195    1
    90   101    98    1
    91    80    78    1
    92    25    24    1
    93    87    85    1
    94    99    98    1
    95    99   102   am
    96   105   104    2
    97    24    23    1
    98   104   103    1
    99   104   106   am
   100   103   102    1
   101   192   191    1
   102   111   110    1
   103   106   107    1
   104   107   110    1
   105    98    97    1
   106    79    78    1
   107    71    70    1
   108    23    22    1
   109    44    43   ar
   110    44    42   ar
   111    43    41   ar
   112    78    77    1
   113     4     3    2
   114    85    86    1
   115    85    82    1
   116    33    31    1
   117    72    70    1
   118    32    31    1
   119    70    69    2
   120    84    83    2
   121    97    95   am
   122    52    50    1
   123    42    40   ar
   124    41    39   ar
   125     8     7    1
   126    77    74    1
   127    22    19    1
   128     7     6    1
   129     3     2    1
   130    31    30    1
   131    83    82    1
   132    83    88   am
   133    82    81    1
   134    96    95    2
   135    74    73    1
   136    74    75    1
   137     2     1    1
   138     2     5    1
   139    95    94    1
   140    69    68    1
   141    89    88    1
   142    89    92    1
   143    89    90    1
   144    76    75    2
   145    40    39   ar
   146    39    38    1
   147    51    50    1
   148    68    67    1
   149    91    90    2
   150    50    49    1
   151    19    18    1
   152    19    20    1
   153    60    61    1
   154    60    59    1
   155    30    27    1
   156    59    58    1
   157     5     6    1
   158    94    93    1
   159    21    20    2
   160    27    28    1
   161    27    26    1
   162    38    35    1
   163    49    46    1
   164    67    66    1
   165    29    28    2
   166    46    45    1
   167    46    47    1
   168    58    57    1
   169    45    36   am
   170    37    36    2
   171    57    54    1
   172    36    35    1
   173    66    63    1
   174    35    34    1
   175    48    47    2
   176    55    54    1
   177    55    56    2
   178    54    53    1
   179    63    64    1
   180    63    62    1
   181    64    65    2
