@<TRIPOS>MOLECULE
tmp/5egiB00.pdb
 145 138 0 0 0
SMALL
GASTEIGER

@<TRIPOS>ATOM
      1  N         -5.5750   20.4450   13.3340 N.3    44  PHE44      -0.1241
      2  CA        -4.9910   19.2910   14.0090 C.3    44  PHE44       0.1605
      3  C         -4.8600   19.5310   15.5050 C.2    44  PHE44       0.2264
      4  O         -5.3060   18.7220   16.3130 O.2    44  PHE44      -0.2867
      5  CB        -3.6160   18.9970   13.4040 C.3    44  PHE44       0.0534
      6  CG        -2.9170   17.8110   14.0040 C.ar   44  PHE44      -0.0203
      7  CD1       -2.2300   17.9250   15.2170 C.ar   44  PHE44      -0.0042
      8  CD2       -2.9330   16.5750   13.3450 C.ar   44  PHE44      -0.0042
      9  CE1       -1.5630   16.8240   15.7670 C.ar   44  PHE44      -0.0003
     10  CE2       -2.2720   15.4670   13.8830 C.ar   44  PHE44      -0.0003
     11  CZ        -1.5840   15.5890   15.0970 C.ar   44  PHE44      -0.0000
     12  N         -2.2220   13.4210   20.3380 N.3    51  SER51      -0.1217
     13  CA        -1.3200   13.1130   19.2400 C.3    51  SER51       0.1889
     14  C         -0.3720   14.3050   19.0380 C.2    51  SER51       0.2288
     15  O          0.7910   14.1360   18.6940 O.2    51  SER51      -0.2866
     16  CB        -2.1500   12.8440   17.9680 C.3    51  SER51       0.2089
     17  OG        -1.3560   12.4680   16.8520 O.3    51  SER51      -0.2183
     18  N          2.1620   14.5880   22.2420 N.3    54  LEU54      -0.1231
     19  CA         3.1400   13.5170   22.1090 C.3    54  LEU54       0.1693
     20  C          4.2550   13.8840   21.1310 C.2    54  LEU54       0.2592
     21  O          5.4280   13.6170   21.3840 O.2    54  LEU54      -0.2718
     22  CB         2.4330   12.2430   21.6510 C.3    54  LEU54       0.0284
     23  CG         3.2300   10.9330   21.6610 C.3    54  LEU54       0.0019
     24  CD1        3.9530   10.7580   22.9870 C.3    54  LEU54       0.0001
     25  CD2        2.2730    9.7620   21.4180 C.3    54  LEU54       0.0001
     26  N          3.8880   14.4960   20.0110 N.am   55  SER55      -0.1952
     27  CA         4.8710   14.9090   19.0130 C.3    55  SER55       0.1924
     28  C          5.7550   16.0060   19.5940 C.2    55  SER55       0.2314
     29  O          6.9450   16.0810   19.2830 O.2    55  SER55      -0.2863
     30  CB         4.1720   15.4190   17.7470 C.3    55  SER55       0.2116
     31  OG         3.4020   14.3900   17.1410 O.3    55  SER55      -0.2180
     32  N          8.2030   14.4270   22.1060 N.3    58  LEU58      -0.1245
     33  CA         9.2780   13.7000   21.4230 C.3    58  LEU58       0.1561
     34  C         10.3930   14.6260   20.9850 C.2    58  LEU58       0.2260
     35  O         11.5720   14.2610   21.0330 O.2    58  LEU58      -0.2867
     36  CB         8.7500   12.9340   20.2030 C.3    58  LEU58       0.0270
     37  CG         8.0270   11.6200   20.5190 C.3    58  LEU58       0.0019
     38  CD1        7.4660   11.1030   19.2270 C.3    58  LEU58       0.0001
     39  CD2        8.9550   10.5690   21.1480 C.3    58  LEU58       0.0001
     40  N         15.7100   10.2650   24.3060 N.3    65  PHE65      -0.1227
     41  CA        15.1400    9.1250   23.6130 C.3    65  PHE65       0.1736
     42  C         16.2350    8.4970   22.7450 C.2    65  PHE65       0.2595
     43  O         16.4330    7.2760   22.7800 O.2    65  PHE65      -0.2718
     44  CB        13.9740    9.5640   22.7120 C.3    65  PHE65       0.0547
     45  CG        12.7400    9.9850   23.4620 C.ar   65  PHE65      -0.0202
     46  CD1       12.1280    9.1250   24.3770 C.ar   65  PHE65      -0.0042
     47  CD2       12.1810   11.2480   23.2590 C.ar   65  PHE65      -0.0042
     48  CE1       10.9680    9.5200   25.0870 C.ar   65  PHE65      -0.0003
     49  CE2       11.0170   11.6570   23.9660 C.ar   65  PHE65      -0.0003
     50  CZ        10.4150   10.7930   24.8800 C.ar   65  PHE65      -0.0000
     51  N         16.9540    9.3220   21.9800 N.am   66  LEU66      -0.1980
     52  CA        17.9990    8.7940   21.1020 C.3    66  LEU66       0.1596
     53  C         19.1390    8.0960   21.8330 C.2    66  LEU66       0.2287
     54  O         19.5090    6.9740   21.4660 O.2    66  LEU66      -0.2864
     55  CB        18.5830    9.8800   20.1950 C.3    66  LEU66       0.0297
     56  CG        19.5550    9.2380   19.2020 C.3    66  LEU66       0.0022
     57  CD1       18.8180    8.1460   18.4900 C.3    66  LEU66       0.0001
     58  CD2       20.0770   10.2110   18.1980 C.3    66  LEU66       0.0001
     59  N         18.0890    4.7780   23.4660 N.3    69  PHE69      -0.1241
     60  CA        18.1000    3.7520   22.4210 C.3    69  PHE69       0.1605
     61  C         19.5330    3.2520   22.1280 C.2    69  PHE69       0.2264
     62  O         19.8050    2.0410   22.0840 O.2    69  PHE69      -0.2867
     63  CB        17.4920    4.2950   21.1160 C.3    69  PHE69       0.0534
     64  CG        17.5060    3.2960   19.9810 C.ar   69  PHE69      -0.0203
     65  CD1       16.5980    2.2340   19.9580 C.ar   69  PHE69      -0.0042
     66  CD2       18.4520    3.3920   18.9620 C.ar   69  PHE69      -0.0042
     67  CE1       16.6250    1.2790   18.9300 C.ar   69  PHE69      -0.0003
     68  CE2       18.4950    2.4420   17.9220 C.ar   69  PHE69      -0.0003
     69  CZ        17.5800    1.3790   17.9050 C.ar   69  PHE69      -0.0000
     70  N         13.6770    3.6680   26.4950 N.3    75  VAL75      -0.1231
     71  CA        13.2780    4.8990   25.8380 C.3    75  VAL75       0.1692
     72  C         12.1450    5.6280   26.5610 C.2    75  VAL75       0.2591
     73  O         12.0580    6.8600   26.5050 O.2    75  VAL75      -0.2718
     74  CB        12.8540    4.6350   24.3750 C.3    75  VAL75       0.0266
     75  CG1       14.0560    4.2510   23.5320 C.3    75  VAL75       0.0020
     76  CG2       11.8230    3.5460   24.3360 C.3    75  VAL75       0.0020
     77  N         11.2770    4.8820   27.2400 N.am   76  ILE76      -0.1980
     78  CA        10.1600    5.4940   27.9660 C.3    76  ILE76       0.1595
     79  C         10.6880    6.4380   29.0740 C.2    76  ILE76       0.2287
     80  O         10.0620    7.4420   29.4270 O.2    76  ILE76      -0.2864
     81  CB         9.2630    4.3920   28.5810 C.3    76  ILE76       0.0276
     82  CG1        7.8370    4.9080   28.7280 C.3    76  ILE76       0.0022
     83  CG2        9.8060    3.9660   29.9410 C.3    76  ILE76       0.0022
     84  CD1        7.2580    5.4080   27.4330 C.3    76  ILE76       0.0001
     85  N         10.0250   10.0470   30.7430 N.3    79  PHE79      -0.1241
     86  CA         8.7200   10.3650   31.3260 C.3    79  PHE79       0.1605
     87  C          8.6380   10.1490   32.8400 C.2    79  PHE79       0.2264
     88  O          7.5520   10.2220   33.4510 O.2    79  PHE79      -0.2867
     89  CB         7.6420    9.5420   30.6330 C.3    79  PHE79       0.0534
     90  CG         7.3510   10.0030   29.2520 C.ar   79  PHE79      -0.0203
     91  CD1        6.5590   11.1210   29.0390 C.ar   79  PHE79      -0.0042
     92  CD2        7.9250    9.3650   28.1600 C.ar   79  PHE79      -0.0042
     93  CE1        6.3480   11.6080   27.7520 C.ar   79  PHE79      -0.0003
     94  CE2        7.7220    9.8420   26.8700 C.ar   79  PHE79      -0.0003
     95  CZ         6.9320   10.9660   26.6670 C.ar   79  PHE79      -0.0000
     96  N         17.0470   13.0340   13.8000 N.3   159  ILE159     -0.1231
     97  CA        16.6730   11.6280   13.6340 C.3   159  ILE159      0.1692
     98  C         15.3170   11.3140   14.2460 C.2   159  ILE159      0.2591
     99  O         14.4780   10.6520   13.6350 O.2   159  ILE159     -0.2718
    100  CB        17.7060   10.6910   14.2820 C.3   159  ILE159      0.0266
    101  CG1       19.1080   11.0510   13.8060 C.3   159  ILE159      0.0019
    102  CG2       17.4090    9.2650   13.9100 C.3   159  ILE159      0.0020
    103  CD1       20.1810   10.1200   14.3210 C.3   159  ILE159      0.0001
    104  N         15.1060   11.7780   15.4650 N.am  160  VAL160     -0.1980
    105  CA        13.8470   11.5350   16.1170 C.3   160  VAL160      0.1595
    106  C         12.7530   12.2190   15.3110 C.2   160  VAL160      0.2287
    107  O         11.6690   11.6610   15.1330 O.2   160  VAL160     -0.2864
    108  CB        13.9030   12.0440   17.5630 C.3   160  VAL160      0.0276
    109  CG1       12.5140   12.0360   18.1940 C.3   160  VAL160      0.0022
    110  CG2       14.8590   11.1510   18.3620 C.3   160  VAL160      0.0022
    111  N         11.9770   10.0850   12.2810 N.3   163  LEU163     -0.1231
    112  CA        11.2260    8.9070   12.6660 C.3   163  LEU163      0.1693
    113  C          9.7670    9.2410   12.9470 C.2   163  LEU163      0.2591
    114  O          8.8840    8.5370   12.4770 O.2   163  LEU163     -0.2718
    115  CB        11.8510    8.2320   13.8960 C.3   163  LEU163      0.0284
    116  CG        12.8950    7.1260   13.6680 C.3   163  LEU163      0.0019
    117  CD1       12.3790    6.1120   12.6420 C.3   163  LEU163      0.0001
    118  CD2       14.1870    7.7360   13.1870 C.3   163  LEU163      0.0001
    119  N          9.5080   10.3120   13.7040 N.am  164  GLU164     -0.1979
    120  CA         8.1210   10.6930   14.0300 C.3   164  GLU164      0.1602
    121  C          7.2940   10.9440   12.7780 C.2   164  GLU164      0.2287
    122  O          6.1220   10.5780   12.7170 O.2   164  GLU164     -0.2864
    123  CB         8.0650   11.9450   14.9210 C.3   164  GLU164      0.0415
    124  CG         6.6300   12.4360   15.1990 C.3   164  GLU164      0.1163
    125  CD         6.3450   13.8220   14.6130 C.2   164  GLU164      0.3649
    126  OE1        6.6410   14.0520   13.4200 O.co2 164  GLU164     -0.2457
    127  OE2        5.8190   14.6880   15.3410 O.co2 164  GLU164     -0.2457
    128  N          6.3360    7.7940   10.8190 N.3   167  VAL167     -0.1231
    129  CA         5.2590    7.0870   11.4940 C.3   167  VAL167      0.1692
    130  C          3.9380    7.8190   11.2640 C.2   167  VAL167      0.2591
    131  O          2.8890    7.1840   11.1740 O.2   167  VAL167     -0.2718
    132  CB         5.5320    6.9560   13.0140 C.3   167  VAL167      0.0266
    133  CG1        4.2230    6.8410   13.7860 C.3   167  VAL167      0.0020
    134  CG2        6.3680    5.7260   13.2760 C.3   167  VAL167      0.0020
    135  N          3.9830    9.1490   11.1830 N.am  168  ARG168     -0.1980
    136  CA         2.7690    9.9290   10.9290 C.3   168  ARG168      0.1597
    137  C          2.5040    9.8780    9.4330 C.2   168  ARG168      0.2287
    138  O          1.5480   10.4660    8.9460 O.2   168  ARG168     -0.2864
    139  CB         2.9220   11.4060   11.3500 C.3   168  ARG168      0.0334
    140  CG         2.6380   11.7130   12.8260 C.3   168  ARG168      0.0492
    141  CD         2.5290   13.2270   13.1060 C.3   168  ARG168      0.2205
    142  NE         3.6950   13.9820   12.6460 N.pl3 168  ARG168     -0.0865
    143  CZ         3.6250   15.0110   11.8060 C.cat 168  ARG168      0.5346
    144  NH1        2.4470   15.4030   11.3410 N.pl3 168  ARG168      0.1354
    145  NH2        4.7250   15.6410   11.4180 N.pl3 168  ARG168      0.1354
@<TRIPOS>BOND
     1   138   137    2
     2   137   136    1
     3   128   129    1
     4   136   135    1
     5   136   139    1
     6   131   130    2
     7   135   130   am
     8   130   129    1
     9   144   143    1
    10   139   140    1
    11   145   143    1
    12   129   132    1
    13   143   142    2
    14   111   112    1
    15   114   113    2
    16   117   116    1
    17   142   141    1
    18   112   113    1
    19   112   115    1
    20   122   121    2
    21   121   120    1
    22   140   141    1
    23   113   119   am
    24   132   134    1
    25   132   133    1
    26   118   116    1
    27     1     2    1
    28     8    10   ar
    29     8     6   ar
    30     5     6    1
    31     5     2    1
    32   126   125   ar
    33    97    96    1
    34    97    98    1
    35    97   100    1
    36    99    98    2
    37   116   115    1
    38   119   120    1
    39   101   100    1
    40   101   103    1
    41    10    11   ar
    42   102   100    1
    43     6     7   ar
    44     2     3    1
    45   120   123    1
    46    98   104   am
    47   125   124    1
    48   125   127   ar
    49   123   124    1
    50    11     9   ar
    51   107   106    2
    52     7     9   ar
    53   106   105    1
    54   104   105    1
    55     3     4    2
    56   105   108    1
    57    17    16    1
    58    31    30    1
    59   108   109    1
    60   108   110    1
    61    30    27    1
    62    69    68   ar
    63    69    67   ar
    64    68    66   ar
    65    16    13    1
    66    58    56    1
    67    57    56    1
    68    15    14    2
    69    67    65   ar
    70    66    64   ar
    71    27    28    1
    72    27    26    1
    73    14    13    1
    74    56    55    1
    75    38    37    1
    76    13    12    1
    77    29    28    2
    78    65    64   ar
    79    64    63    1
    80    26    20   am
    81    55    52    1
    82    36    37    1
    83    36    33    1
    84    37    39    1
    85    34    35    2
    86    34    33    1
    87    52    53    1
    88    52    51    1
    89    63    60    1
    90    20    21    2
    91    20    19    1
    92    25    23    1
    93    33    32    1
    94    54    53    2
    95    22    23    1
    96    22    19    1
    97    23    24    1
    98    51    42   am
    99    62    61    2
   100    19    18    1
   101    61    60    1
   102    60    59    1
   103    44    45    1
   104    44    41    1
   105    42    43    2
   106    42    41    1
   107    47    45   ar
   108    47    49   ar
   109    45    46   ar
   110    75    74    1
   111    41    40    1
   112    49    50   ar
   113    76    74    1
   114    74    71    1
   115    46    48   ar
   116    50    48   ar
   117    71    70    1
   118    71    72    1
   119    73    72    2
   120    72    77   am
   121    95    94   ar
   122    95    93   ar
   123    94    92   ar
   124    77    78    1
   125    84    82    1
   126    93    91   ar
   127    78    81    1
   128    78    79    1
   129    92    90   ar
   130    81    82    1
   131    81    83    1
   132    91    90   ar
   133    79    80    2
   134    90    89    1
   135    89    86    1
   136    85    86    1
   137    86    87    1
   138    87    88    2
