@<TRIPOS>MOLECULE
tmp/5egiB02.pdb
 85 78 0 0 0
SMALL
GASTEIGER

@<TRIPOS>ATOM
      1  N         35.1470    6.0690   21.3020 N.3   144  ILE144     -0.1245
      2  CA        34.2400    6.2450   20.1790 C.3   144  ILE144      0.1561
      3  C         32.7990    6.3000   20.7140 C.2   144  ILE144      0.2260
      4  O         32.0610    7.2350   20.4180 O.2   144  ILE144     -0.2867
      5  CB        34.4000    5.1040   19.1670 C.3   144  ILE144      0.0252
      6  CG1       35.8640    5.0100   18.7240 C.3   144  ILE144      0.0019
      7  CG2       33.5120    5.3610   17.9600 C.3   144  ILE144      0.0019
      8  CD1       36.1560    3.8530   17.7590 C.3   144  ILE144      0.0001
      9  N         32.1500    9.5820   22.1820 N.3   147  VAL147     -0.1231
     10  CA        31.9800   10.6220   21.1880 C.3   147  VAL147      0.1692
     11  C         30.6140   10.5180   20.4690 C.2   147  VAL147      0.2591
     12  O         29.9810   11.5380   20.1950 O.2   147  VAL147     -0.2718
     13  CB        33.1410   10.6010   20.1610 C.3   147  VAL147      0.0266
     14  CG1       32.9810   11.7390   19.1630 C.3   147  VAL147      0.0020
     15  CG2       34.4550   10.7450   20.8720 C.3   147  VAL147      0.0020
     16  N         30.1470    9.3030   20.1760 N.am  148  LEU148     -0.1980
     17  CA        28.8580    9.1300   19.5000 C.3   148  LEU148      0.1596
     18  C         27.6930    9.5540   20.3560 C.2   148  LEU148      0.2287
     19  O         26.8720   10.3500   19.9230 O.2   148  LEU148     -0.2864
     20  CB        28.6420    7.6830   19.0900 C.3   148  LEU148      0.0297
     21  CG        29.5370    7.2350   17.9410 C.3   148  LEU148      0.0022
     22  CD1       29.0750    5.8740   17.4500 C.3   148  LEU148      0.0001
     23  CD2       29.4770    8.2610   16.8200 C.3   148  LEU148      0.0001
     24  N         27.7060   13.3200   20.6110 N.3   151  THR151     -0.1218
     25  CA        27.2030   13.8960   19.3720 C.3   151  THR151      0.1862
     26  C         25.7310   13.5520   19.2670 C.2   151  THR151      0.2287
     27  O         24.9520   14.2440   18.6180 O.2   151  THR151     -0.2866
     28  CB        27.8700   13.2600   18.1740 C.3   151  THR151      0.1770
     29  OG1       29.2900   13.3500   18.3250 O.3   151  THR151     -0.2211
     30  CG2       27.4440   13.9560   16.8960 C.3   151  THR151      0.0375
     31  N         13.6490   20.1250    6.5620 N.3   175  HIS175     -0.1226
     32  CA        14.6290   19.7030    7.5600 C.3   175  HIS175      0.1752
     33  C         15.7530   20.7260    7.6050 C.2   175  HIS175      0.2596
     34  O         16.7370   20.5750    8.3320 O.2   175  HIS175     -0.2718
     35  CB        15.1490   18.3140    7.1530 C.3   175  HIS175      0.0759
     36  CG        16.1680   17.7310    8.0810 C.ar  175  HIS175      0.0818
     37  ND1       17.5150   18.0000    7.9710 N.ar  175  HIS175     -0.2268
     38  CD2       16.0420   16.8540    9.1060 C.ar  175  HIS175      0.1154
     39  CE1       18.1750   17.3100    8.8830 C.ar  175  HIS175      0.1986
     40  NE2       17.3050   16.6060    9.5850 N.ar  175  HIS175     -0.2212
     41  N         15.5760   21.7750    6.8090 N.am  176  ASN176     -0.1974
     42  CA        16.5160   22.8740    6.7160 C.3   176  ASN176      0.1688
     43  C         15.9730   24.0870    7.5000 C.2   176  ASN176      0.2292
     44  O         15.4920   25.0470    6.8880 O.2   176  ASN176     -0.2864
     45  CB        16.7140   23.2460    5.2380 C.3   176  ASN176      0.1181
     46  CG        17.0670   22.0410    4.3650 C.2   176  ASN176      0.2629
     47  OD1       18.1650   21.4860    4.4600 O.2   176  ASN176     -0.2716
     48  ND2       16.1300   21.6330    3.5100 N.am  176  ASN176     -0.0877
     49  N         19.9280   26.5080    6.8660 N.3   179  LEU179     -0.1245
     50  CA        20.6940   25.5050    6.1330 C.3   179  LEU179      0.1561
     51  C         22.0070   25.3160    6.8960 C.2   179  LEU179      0.2260
     52  O         22.8300   24.4640    6.5550 O.2   179  LEU179     -0.2867
     53  CB        20.9780   25.9810    4.7040 C.3   179  LEU179      0.0270
     54  CG        21.6610   24.9730    3.7760 C.3   179  LEU179      0.0019
     55  CD1       20.6680   23.9020    3.3460 C.3   179  LEU179      0.0001
     56  CD2       22.2110   25.6990    2.5660 C.3   179  LEU179      0.0001
     57  N         23.8430   22.4630   10.1960 N.3   182  SER182     -0.1217
     58  CA        24.6400   21.3130    9.7770 C.3   182  SER182      0.1889
     59  C         25.9370   21.4750   10.5590 C.2   182  SER182      0.2288
     60  O         26.6910   20.5190   10.7590 O.2   182  SER182     -0.2866
     61  CB        24.9270   21.3500    8.2690 C.3   182  SER182      0.2089
     62  OG        25.7800   22.4310    7.9280 O.3   182  SER182     -0.2183
     63  N         26.0680   19.3190   13.9500 N.3   185  THR185     -0.1203
     64  CA        26.6190   17.9670   14.0320 C.3   185  THR185      0.1994
     65  C         28.1390   17.8930   14.0780 C.2   185  THR185      0.2617
     66  O         28.6910   17.1490   14.8840 O.2   185  THR185     -0.2717
     67  CB        26.1050   17.0600   12.8940 C.3   185  THR185      0.1784
     68  OG1       26.2970   17.7080   11.6300 O.3   185  THR185     -0.2211
     69  CG2       24.6340   16.7520   13.0950 C.3   185  THR185      0.0376
     70  N         28.8270   18.6530   13.2330 N.am  186  LYS186     -0.1979
     71  CA        30.2860   18.6140   13.2550 C.3   186  LYS186      0.1596
     72  C         30.7640   19.2120   14.5700 C.2   186  LYS186      0.2287
     73  O         31.6260   18.6420   15.2410 O.2   186  LYS186     -0.2864
     74  CB        30.8590   19.3680   12.0550 C.3   186  LYS186      0.0298
     75  CG        30.4130   18.7670   10.7230 C.3   186  LYS186      0.0038
     76  CD        31.0580   19.4460    9.5260 C.3   186  LYS186      0.0206
     77  CE        30.5490   18.8620    8.2050 C.3   186  LYS186      0.1093
     78  NZ        31.3060   19.3750    7.0190 N.3   186  LYS186     -0.1314
     79  N         30.5490   16.8850   17.2280 N.3   189  VAL189     -0.1245
     80  CA        31.5130   15.7980   17.1880 C.3   189  VAL189      0.1561
     81  C         32.8040   16.3000   17.8460 C.2   189  VAL189      0.2260
     82  O         33.2340   15.7440   18.8660 O.2   189  VAL189     -0.2867
     83  CB        31.7510   15.2610   15.7350 C.3   189  VAL189      0.0252
     84  CG1       32.7850   14.1610   15.7510 C.3   189  VAL189      0.0019
     85  CG2       30.4700   14.6680   15.1800 C.3   189  VAL189      0.0019
@<TRIPOS>BOND
     1    56    54    1
     2    55    54    1
     3    48    46   am
     4    54    53    1
     5    46    47    2
     6    46    45    1
     7    53    50    1
     8    45    42    1
     9    50    49    1
    10    50    51    1
    11    52    51    2
    12    31    32    1
    13    42    41    1
    14    42    43    1
    15    41    33   am
    16    44    43    2
    17    78    77    1
    18    35    32    1
    19    35    36    1
    20    32    33    1
    21    33    34    2
    22    62    61    1
    23    37    36   ar
    24    37    39   ar
    25    36    38   ar
    26    77    76    1
    27    61    58    1
    28    39    40   ar
    29    38    40   ar
    30    76    75    1
    31    58    57    1
    32    58    59    1
    33    59    60    2
    34    75    74    1
    35    68    67    1
    36    74    71    1
    37    67    69    1
    38    67    64    1
    39    70    71    1
    40    70    65   am
    41    71    72    1
    42    63    64    1
    43    64    65    1
    44    65    66    2
    45    72    73    2
    46    85    83    1
    47    83    84    1
    48    83    80    1
    49    23    21    1
    50    30    28    1
    51    80    79    1
    52    80    81    1
    53    22    21    1
    54     8     6    1
    55    81    82    2
    56    21    20    1
    57     7     5    1
    58    28    29    1
    59    28    25    1
    60    27    26    2
    61     6     5    1
    62    20    17    1
    63    14    13    1
    64     5     2    1
    65    26    25    1
    66    25    24    1
    67    17    16    1
    68    17    18    1
    69    19    18    2
    70    13    15    1
    71    13    10    1
    72    16    11   am
    73     2     3    1
    74     2     1    1
    75    12    11    2
    76     4     3    2
    77    11    10    1
    78    10     9    1
