@<TRIPOS>MOLECULE
tmp/5egjA00.pdb
 108 101 0 0 0
SMALL
GASTEIGER

@<TRIPOS>ATOM
      1  N          5.3970  -55.7460   -0.0820 N.3    55  VAL55      -0.1231
      2  CA         4.1910  -55.9470   -0.8740 C.3    55  VAL55       0.1692
      3  C          4.0820  -54.8710   -1.9340 C.2    55  VAL55       0.2593
      4  O          4.5740  -53.7530   -1.7430 O.2    55  VAL55      -0.2718
      5  CB         2.9000  -55.9340   -0.0190 C.3    55  VAL55       0.0266
      6  CG1        2.8240  -57.1830    0.8490 C.3    55  VAL55       0.0020
      7  CG2        2.8170  -54.6610    0.8170 C.3    55  VAL55       0.0020
      8  N          3.4280  -55.2110   -3.0460 N.am   56  THR56      -0.1939
      9  CA         3.1070  -54.2280   -4.0800 C.3    56  THR56       0.2028
     10  C          1.9900  -53.2850   -3.6150 C.2    56  THR56       0.2642
     11  O          0.8620  -53.7140   -3.3790 O.2    56  THR56      -0.2714
     12  CB         2.6670  -54.8950   -5.3780 C.3    56  THR56       0.1808
     13  OG1        3.4660  -56.0650   -5.6240 O.3    56  THR56      -0.2208
     14  CG2        2.7900  -53.9200   -6.5350 C.3    56  THR56       0.0379
     15  N          2.3090  -52.0040   -3.4680 N.am   57  ALA57      -0.1963
     16  CA         1.3100  -51.0140   -3.0720 C.3    57  ALA57       0.1728
     17  C          0.5310  -50.5100   -4.2830 C.2    57  ALA57       0.2616
     18  O         -0.6620  -50.2320   -4.1970 O.2    57  ALA57      -0.2715
     19  CB         1.9670  -49.8470   -2.3440 C.3    57  ALA57       0.0334
     20  N          1.2160  -50.3900   -5.4110 N.am   58  SER58      -0.1950
     21  CA         0.5760  -49.9460   -6.6270 C.3    58  SER58       0.1924
     22  C          1.4420  -50.2060   -7.8420 C.2    58  SER58       0.2314
     23  O          2.6720  -50.2130   -7.7590 O.2    58  SER58      -0.2863
     24  CB         0.2440  -48.4540   -6.5480 C.3    58  SER58       0.2116
     25  OG         1.3950  -47.6630   -6.7490 O.3    58  SER58      -0.2180
     26  N         11.3350  -43.5760   -0.6490 N.3    84  GLY84      -0.1210
     27  CA        10.6060  -42.7170    0.2550 C.3    84  GLY84       0.1956
     28  C         10.9730  -43.1910    1.6410 C.2    84  GLY84       0.2613
     29  O         12.0000  -43.8480    1.8270 O.2    84  GLY84      -0.2717
     30  N         10.1380  -42.8710    2.6190 N.am   85  THR85      -0.1938
     31  CA        10.3820  -43.3060    3.9830 C.3    85  THR85       0.2028
     32  C         10.3990  -44.8320    4.0810 C.2    85  THR85       0.2643
     33  O         11.4390  -45.4250    4.3950 O.2    85  THR85      -0.2714
     34  CB         9.3320  -42.7320    4.9280 C.3    85  THR85       0.1808
     35  OG1        9.4430  -41.3060    4.9260 O.3    85  THR85      -0.2208
     36  CG2        9.5370  -43.2530    6.3360 C.3    85  THR85       0.0379
     37  N          9.2600  -45.4650    3.7950 N.am   86  SER86      -0.1935
     38  CA         9.1600  -46.9230    3.8510 C.3    86  SER86       0.2055
     39  C          8.7760  -47.5180    2.5020 C.2    86  SER86       0.2643
     40  O          8.4970  -48.7110    2.3900 O.2    86  SER86      -0.2714
     41  CB         8.1410  -47.3480    4.9060 C.3    86  SER86       0.2130
     42  OG         6.8320  -47.0350    4.4830 O.3    86  SER86      -0.2179
     43  N          8.7590  -46.6840    1.4760 N.am   87  SER87      -0.1949
     44  CA         8.3300  -47.1240    0.1630 C.3    87  SER87       0.1924
     45  C          9.4730  -47.0280   -0.8280 C.2    87  SER87       0.2314
     46  O         10.4230  -46.2630   -0.6250 O.2    87  SER87      -0.2863
     47  CB         7.1420  -46.2910   -0.3230 C.3    87  SER87       0.2116
     48  OG         7.4530  -44.9090   -0.3080 O.3    87  SER87      -0.2180
     49  N          5.3900  -49.4280   -7.1170 N.3   113  THR113     -0.1218
     50  CA         5.7260  -48.9150   -5.8040 C.3   113  THR113      0.1862
     51  C          5.5370  -50.0090   -4.7770 C.2   113  THR113      0.2287
     52  O          4.4470  -50.5430   -4.6290 O.2   113  THR113     -0.2866
     53  CB         4.8760  -47.6830   -5.4220 C.3   113  THR113      0.1770
     54  OG1        5.2430  -46.5710   -6.2510 O.3   113  THR113     -0.2211
     55  CG2        5.1060  -47.3080   -3.9630 C.3   113  THR113      0.0375
     56  N          6.0180  -51.4180   -0.6960 N.3   115  VAL115     -0.1245
     57  CA         6.1940  -51.0390    0.6890 C.3   115  VAL115      0.1561
     58  C          6.8580  -52.1820    1.4410 C.2   115  VAL115      0.2260
     59  O          6.4070  -53.3420    1.3550 O.2   115  VAL115     -0.2867
     60  CB         4.8530  -50.6790    1.3510 C.3   115  VAL115      0.0252
     61  CG1        5.0540  -50.3400    2.8240 C.3   115  VAL115      0.0019
     62  CG2        4.2240  -49.5240    0.6170 C.3   115  VAL115      0.0019
     63  N          7.8870  -54.2270    4.8230 N.3   117  LEU117     -0.1245
     64  CA         7.1510  -54.5790    6.0340 C.3   117  LEU117      0.1561
     65  C          8.0370  -55.3580    7.0010 C.2   117  LEU117      0.2260
     66  O          8.9300  -56.0960    6.5760 O.2   117  LEU117     -0.2867
     67  CB         5.9060  -55.4100    5.6960 C.3   117  LEU117      0.0270
     68  CG         4.9570  -54.9180    4.6020 C.3   117  LEU117      0.0019
     69  CD1        4.0850  -56.0590    4.1090 C.3   117  LEU117      0.0001
     70  CD2        4.0870  -53.7730    5.1010 C.3   117  LEU117      0.0001
     71  N          4.4770  -51.1380    7.8600 N.3   123  PRO123     -0.2116
     72  CA         5.5330  -50.4800    7.0790 C.3   123  PRO123      0.1372
     73  C          6.8460  -50.2860    7.8470 C.2   123  PRO123      0.2244
     74  O          6.8290  -49.9470    9.0300 O.2   123  PRO123     -0.2868
     75  CB         4.9020  -49.1350    6.7220 C.3   123  PRO123      0.0268
     76  CG         3.4580  -49.4540    6.5910 C.3   123  PRO123      0.0207
     77  CD         3.1690  -50.4900    7.6510 C.3   123  PRO123      0.0892
     78  N          2.3520  -39.2200   -8.9580 N.3   150  ARG150     -0.1231
     79  CA         1.7140  -40.2990   -8.2140 C.3   150  ARG150      0.1694
     80  C          0.9260  -39.7390   -7.0260 C.2   150  ARG150      0.2591
     81  O         -0.1390  -40.2560   -6.6710 O.2   150  ARG150     -0.2718
     82  CB         2.7580  -41.3180   -7.7380 C.3   150  ARG150      0.0321
     83  CG         2.1990  -42.3600   -6.7790 C.3   150  ARG150      0.0489
     84  CD         3.1230  -43.5670   -6.5930 C.3   150  ARG150      0.2205
     85  NE         3.9060  -43.4760   -5.3580 N.pl3 150  ARG150     -0.0865
     86  CZ         5.2310  -43.3160   -5.3060 C.cat 150  ARG150      0.5346
     87  NH1        5.9480  -43.2410   -6.4280 N.pl3 150  ARG150      0.1354
     88  NH2        5.8480  -43.2480   -4.1270 N.pl3 150  ARG150      0.1354
     89  N          1.4410  -38.6720   -6.4200 N.am  151  LYS151     -0.1980
     90  CA         0.7270  -38.0250   -5.3150 C.3   151  LYS151      0.1596
     91  C         -0.6420  -37.4880   -5.7650 C.2   151  LYS151      0.2287
     92  O         -1.6860  -37.7380   -5.1160 O.2   151  LYS151     -0.2864
     93  CB         1.5680  -36.8900   -4.7310 C.3   151  LYS151      0.0298
     94  CG         1.4430  -36.7220   -3.2310 C.3   151  LYS151      0.0038
     95  CD         2.2540  -37.7810   -2.4910 C.3   151  LYS151      0.0206
     96  CE         2.3720  -37.4400   -1.0060 C.3   151  LYS151      0.1093
     97  NZ         2.8540  -38.5870   -0.1780 N.3   151  LYS151     -0.1314
     98  N         -3.0500  -40.1830   -6.5540 N.3   154  ARG154     -0.1245
     99  CA        -3.5910  -40.7880   -5.3430 C.3   154  ARG154      0.1563
    100  C         -4.7110  -39.9180   -4.7550 C.2   154  ARG154      0.2260
    101  O         -5.6620  -40.4360   -4.1560 O.2   154  ARG154     -0.2867
    102  CB        -2.4870  -41.0330   -4.3120 C.3   154  ARG154      0.0307
    103  CG        -2.8340  -42.1320   -3.3090 C.3   154  ARG154      0.0489
    104  CD        -1.6750  -42.4480   -2.3670 C.3   154  ARG154      0.2205
    105  NE        -2.0660  -43.3960   -1.3220 N.pl3 154  ARG154     -0.0865
    106  CZ        -1.3780  -43.6020   -0.2000 C.cat 154  ARG154      0.5346
    107  NH1       -1.8140  -44.4830    0.6980 N.pl3 154  ARG154      0.1354
    108  NH2       -0.2560  -42.9230    0.0310 N.pl3 154  ARG154      0.1354
@<TRIPOS>BOND
     1    78    79    1
     2    79    82    1
     3    79    80    1
     4    22    23    2
     5    22    21    1
     6    82    83    1
     7    49    50    1
     8    80    81    2
     9    80    89   am
    10    83    84    1
    11    25    24    1
    12    21    24    1
    13    21    20    1
    14    84    85    1
    15    98    99    1
    16    14    12    1
    17    87    86    1
    18    89    90    1
    19    54    53    1
    20    50    53    1
    21    50    51    1
    22    91    90    1
    23    91    92    2
    24    13    12    1
    25    53    55    1
    26    20    17   am
    27    12     9    1
    28    85    86    2
    29    99   100    1
    30    99   102    1
    31    90    93    1
    32    86    88    1
    33    51    52    2
    34   100   101    2
    35    93    94    1
    36   102   103    1
    37    17    18    2
    38    17    16    1
    39     9    10    1
    40     9     8    1
    41    10    15   am
    42    10    11    2
    43    15    16    1
    44   103   104    1
    45    94    95    1
    46    16    19    1
    47     8     3   am
    48    95    96    1
    49   104   105    1
    50     3     4    2
    51     3     2    1
    52   105   106    2
    53    96    97    1
    54     2     1    1
    55     2     5    1
    56    45    46    2
    57    45    44    1
    58    56    57    1
    59    26    27    1
    60    47    48    1
    61    47    44    1
    62   106   108    1
    63   106   107    1
    64     5     7    1
    65     5     6    1
    66    44    43    1
    67    27    28    1
    68    62    60    1
    69    57    60    1
    70    57    58    1
    71    60    61    1
    72    59    58    2
    73    43    39   am
    74    28    29    2
    75    28    30   am
    76    40    39    2
    77    39    38    1
    78    30    31    1
    79    37    38    1
    80    37    32   am
    81    38    41    1
    82    31    32    1
    83    31    34    1
    84    32    33    2
    85    69    68    1
    86    42    41    1
    87    68    70    1
    88    68    67    1
    89    63    64    1
    90    35    34    1
    91    34    36    1
    92    67    64    1
    93    64    65    1
    94    66    65    2
    95    76    75    1
    96    76    77    1
    97    75    72    1
    98    72    73    1
    99    72    71    1
   100    77    71    1
   101    73    74    2
