@<TRIPOS>MOLECULE
tmp/5eglB02.pdb
 99 92 0 0 0
SMALL
GASTEIGER

@<TRIPOS>ATOM
      1  N         37.1440  -45.1060  -27.6700 N.3    13  LYS13      -0.1245
      2  CA        37.4030  -45.5740  -26.3080 C.3    13  LYS13       0.1561
      3  C         36.6860  -44.7220  -25.2770 C.2    13  LYS13       0.2260
      4  O         36.6930  -43.5040  -25.3540 O.2    13  LYS13      -0.2867
      5  CB        38.9020  -45.5810  -26.0020 C.3    13  LYS13       0.0271
      6  CG        39.2580  -45.9380  -24.5640 C.3    13  LYS13       0.0035
      7  CD        40.7390  -46.3010  -24.4450 C.3    13  LYS13       0.0206
      8  CE        41.1440  -46.6020  -23.0060 C.3    13  LYS13       0.1093
      9  NZ        40.6910  -47.9510  -22.5540 N.3    13  LYS13      -0.1314
     10  N         36.4610  -43.9990  -21.1220 N.3    15  ARG15      -0.1231
     11  CA        37.2120  -44.2400  -19.8760 C.3    15  ARG15       0.1694
     12  C         36.7840  -43.3060  -18.7500 C.2    15  ARG15       0.2591
     13  O         36.5190  -42.1330  -18.9870 O.2    15  ARG15      -0.2718
     14  CB        38.7190  -44.0410  -20.1060 C.3    15  ARG15       0.0321
     15  CG        39.6070  -44.3860  -18.9010 C.3    15  ARG15       0.0489
     16  CD        41.0810  -44.1450  -19.2150 C.3    15  ARG15       0.2205
     17  NE        42.0300  -44.8540  -18.3540 N.pl3  15  ARG15      -0.0865
     18  CZ        42.2280  -44.6060  -17.0600 C.cat  15  ARG15       0.5346
     19  NH1       43.1310  -45.3070  -16.3830 N.pl3  15  ARG15       0.1354
     20  NH2       41.5240  -43.6740  -16.4350 N.pl3  15  ARG15       0.1354
     21  N         36.7380  -43.8240  -17.5230 N.am   16  GLN16      -0.1979
     22  CA        36.4910  -42.9910  -16.3400 C.3    16  GLN16       0.1601
     23  C         37.8140  -42.4600  -15.8080 C.2    16  GLN16       0.2287
     24  O         38.8570  -43.0460  -16.0690 O.2    16  GLN16      -0.2864
     25  CB        35.8090  -43.7740  -15.2130 C.3    16  GLN16       0.0394
     26  CG        34.4880  -44.4070  -15.5590 C.3    16  GLN16       0.0908
     27  CD        33.8710  -45.1390  -14.3760 C.2    16  GLN16       0.2608
     28  OE1       33.6580  -44.5610  -13.3100 O.2    16  GLN16      -0.2717
     29  NE2       33.6500  -46.4330  -14.5420 N.am   16  GLN16      -0.0878
     30  N         39.6310  -41.7880  -12.3450 N.3    18  PHE18      -0.1241
     31  CA        39.5330  -42.0330  -10.9010 C.3    18  PHE18       0.1605
     32  C         40.5870  -41.2370  -10.1470 C.2    18  PHE18       0.2264
     33  O         41.5190  -40.7230  -10.7600 O.2    18  PHE18      -0.2867
     34  CB        39.7000  -43.5200  -10.5870 C.3    18  PHE18       0.0534
     35  CG        38.6180  -44.4000  -11.1550 C.ar   18  PHE18      -0.0203
     36  CD1       37.3330  -44.3750  -10.6260 C.ar   18  PHE18      -0.0042
     37  CD2       38.8830  -45.2450  -12.2130 C.ar   18  PHE18      -0.0042
     38  CE1       36.3350  -45.1890  -11.1430 C.ar   18  PHE18      -0.0003
     39  CE2       37.8900  -46.0620  -12.7360 C.ar   18  PHE18      -0.0003
     40  CZ        36.6150  -46.0300  -12.2010 C.ar   18  PHE18      -0.0000
     41  N         42.9680  -42.2440   -8.3700 N.3    20  GLN20      -0.1231
     42  CA        44.2750  -42.8680   -8.5820 C.3    20  GLN20       0.1698
     43  C         44.8610  -42.5400   -9.9600 C.2    20  GLN20       0.2592
     44  O         46.0200  -42.8500  -10.2200 O.2    20  GLN20      -0.2718
     45  CB        44.2060  -44.3920   -8.3860 C.3    20  GLN20       0.0381
     46  CG        43.2650  -45.1450   -9.3120 C.3    20  GLN20       0.0905
     47  CD        41.8930  -45.3580   -8.6810 C.2    20  GLN20       0.2608
     48  OE1       41.4170  -44.5240   -7.9120 O.2    20  GLN20      -0.2717
     49  NE2       41.2730  -46.4930   -8.9780 N.am   20  GLN20      -0.0878
     50  N         44.0570  -41.9480  -10.8440 N.am   21  ASP21      -0.1974
     51  CA        44.5250  -41.5730  -12.1810 C.3    21  ASP21       0.1709
     52  C         45.0330  -40.1390  -12.2360 C.2    21  ASP21       0.2293
     53  O         45.5060  -39.6840  -13.2730 O.2    21  ASP21      -0.2864
     54  CB        43.4080  -41.7260  -13.2230 C.3    21  ASP21       0.1436
     55  CG        42.9660  -43.1580  -13.4150 C.2    21  ASP21       0.3671
     56  OD1       43.8500  -44.0250  -13.5700 O.co2  21  ASP21      -0.2456
     57  OD2       41.7420  -43.4160  -13.4250 O.co2  21  ASP21      -0.2456
     58  N         49.4100  -41.7370  -18.6100 N.3    32  THR32      -0.1218
     59  CA        48.2430  -42.5920  -18.7720 C.3    32  THR32       0.1862
     60  C         47.5480  -42.2320  -20.0930 C.2    32  THR32       0.2287
     61  O         47.1970  -43.1020  -20.9080 O.2    32  THR32      -0.2866
     62  CB        47.2880  -42.4190  -17.5750 C.3    32  THR32       0.1770
     63  OG1       48.0070  -42.6740  -16.3630 O.3    32  THR32      -0.2211
     64  CG2       46.0890  -43.3530  -17.6680 C.3    32  THR32       0.0375
     65  N         49.6940  -43.3890  -23.0360 N.3    35  ALA35      -0.1231
     66  CA        49.5460  -44.8270  -23.2000 C.3    35  ALA35       0.1694
     67  C         48.2380  -45.1720  -23.9190 C.2    35  ALA35       0.2592
     68  O         48.2350  -45.9310  -24.9020 O.2    35  ALA35      -0.2718
     69  CB        49.6060  -45.5210  -21.8340 C.3    35  ALA35       0.0304
     70  N         47.1290  -44.6010  -23.4530 N.am   36  ASN36      -0.1974
     71  CA        45.8500  -44.8460  -24.1230 C.3    36  ASN36       0.1688
     72  C         45.8720  -44.3870  -25.6030 C.2    36  ASN36       0.2292
     73  O         45.3820  -45.0810  -26.5080 O.2    36  ASN36      -0.2864
     74  CB        44.7130  -44.1210  -23.4040 C.3    36  ASN36       0.1181
     75  CG        44.3580  -44.7510  -22.0620 C.2    36  ASN36       0.2629
     76  OD1       44.6930  -45.9020  -21.7790 O.2    36  ASN36      -0.2716
     77  ND2       43.6130  -44.0120  -21.2590 N.am   36  ASN36      -0.0877
     78  N         48.4400  -44.0270  -27.7390 N.3    38  ASP38      -0.1225
     79  CA        49.2020  -44.9400  -28.5840 C.3    38  ASP38       0.1805
     80  C         48.4500  -46.2390  -28.7850 C.2    38  ASP38       0.2597
     81  O         48.4340  -46.8020  -29.8970 O.2    38  ASP38      -0.2718
     82  CB        50.5860  -45.2310  -28.0020 C.3    38  ASP38       0.1424
     83  CG        51.4060  -46.1560  -28.9000 C.2    38  ASP38       0.3668
     84  OD1       51.7640  -45.7200  -30.0130 O.co2  38  ASP38      -0.2456
     85  OD2       51.7070  -47.2990  -28.4960 O.co2  38  ASP38      -0.2456
     86  N         47.8550  -46.7450  -27.7090 N.am   39  GLU39      -0.1979
     87  CA        47.1360  -48.0060  -27.8230 C.3    39  GLU39       0.1602
     88  C         46.0180  -47.9100  -28.8680 C.2    39  GLU39       0.2287
     89  O         45.9510  -48.7200  -29.7790 O.2    39  GLU39      -0.2864
     90  CB        46.5580  -48.4470  -26.4640 C.3    39  GLU39       0.0415
     91  CG        45.8350  -49.7890  -26.5450 C.3    39  GLU39       0.1163
     92  CD        45.1440  -50.2050  -25.2560 C.2    39  GLU39       0.3649
     93  OE1       44.6000  -49.3470  -24.5300 O.co2  39  GLU39      -0.2457
     94  OE2       45.1640  -51.4170  -24.9680 O.co2  39  GLU39      -0.2457
     95  N         47.3400  -47.4460  -32.5250 N.3    42  ALA42      -0.1245
     96  CA        47.9250  -48.6520  -33.1170 C.3    42  ALA42       0.1562
     97  C         46.8600  -49.6080  -33.6850 C.2    42  ALA42       0.2260
     98  O         47.0470  -50.2210  -34.7450 O.2    42  ALA42      -0.2867
     99  CB        48.7850  -49.3700  -32.0870 C.3    42  ALA42       0.0290
@<TRIPOS>BOND
     1    98    97    2
     2    97    96    1
     3    96    95    1
     4    96    99    1
     5    84    83   ar
     6    81    80    2
     7    89    88    2
     8    83    85   ar
     9    83    82    1
    10    88    87    1
    11    80    79    1
    12    80    86   am
    13    79    82    1
    14    79    78    1
    15    87    86    1
    16    87    90    1
    17     1     2    1
    18    91    90    1
    19    91    92    1
    20    73    72    2
    21     2     5    1
    22     2     3    1
    23     5     6    1
    24    72    71    1
    25     4     3    2
    26    92    94   ar
    27    92    93   ar
    28    68    67    2
    29     6     7    1
    30     7     8    1
    31    71    70    1
    32    71    74    1
    33    67    70   am
    34    67    66    1
    35    74    75    1
    36    66    65    1
    37    66    69    1
    38     8     9    1
    39    75    76    2
    40    75    77   am
    41    10    11    1
    42    61    60    2
    43    14    11    1
    44    14    15    1
    45    60    59    1
    46    11    12    1
    47    16    15    1
    48    16    17    1
    49    13    12    2
    50    59    58    1
    51    59    62    1
    52    12    21   am
    53    17    18    2
    54    64    62    1
    55    62    63    1
    56    21    22    1
    57    18    20    1
    58    18    19    1
    59    22    23    1
    60    22    25    1
    61    24    23    2
    62    26    25    1
    63    26    27    1
    64    29    27   am
    65    27    28    2
    66    56    55   ar
    67    57    55   ar
    68    55    54    1
    69    53    52    2
    70    54    51    1
    71    39    37   ar
    72    39    40   ar
    73    30    31    1
    74    52    51    1
    75    37    35   ar
    76    40    38   ar
    77    51    50    1
    78    35    36   ar
    79    35    34    1
    80    38    36   ar
    81    31    34    1
    82    31    32    1
    83    50    43   am
    84    33    32    2
    85    44    43    2
    86    43    42    1
    87    46    47    1
    88    46    45    1
    89    49    47   am
    90    47    48    2
    91    42    45    1
    92    42    41    1
