@<TRIPOS>MOLECULE
tmp/5eglC00.pdb
 221 209 0 0 0
SMALL
GASTEIGER

@<TRIPOS>ATOM
      1  N         35.6020  -50.5230  -26.0400 N.3    12  LYS12      -0.1245
      2  CA        37.0000  -50.6550  -25.6510 C.3    12  LYS12       0.1561
      3  C         37.6890  -51.6130  -26.6000 C.2    12  LYS12       0.2260
      4  O         37.2230  -52.7220  -26.8070 O.2    12  LYS12      -0.2867
      5  CB        37.1430  -51.1460  -24.2070 C.3    12  LYS12       0.0271
      6  CG        38.5890  -51.4350  -23.8110 C.3    12  LYS12       0.0035
      7  CD        38.7940  -51.5080  -22.2950 C.3    12  LYS12       0.0206
      8  CE        40.2500  -51.8480  -21.9630 C.3    12  LYS12       0.1093
      9  NZ        40.5490  -51.7950  -20.5010 N.3    12  LYS12      -0.1314
     10  N         41.2670  -53.6590  -27.3530 N.3    14  ARG14      -0.1245
     11  CA        42.5620  -54.0410  -26.8200 C.3    14  ARG14       0.1563
     12  C         43.0470  -55.3490  -27.4080 C.2    14  ARG14       0.2260
     13  O         42.2900  -56.3080  -27.5440 O.2    14  ARG14      -0.2867
     14  CB        42.5160  -54.0920  -25.2930 C.3    14  ARG14       0.0307
     15  CG        43.8500  -54.4300  -24.6610 C.3    14  ARG14       0.0489
     16  CD        43.8210  -54.1630  -23.1750 C.3    14  ARG14       0.2205
     17  NE        44.1040  -52.7470  -22.9670 N.pl3  14  ARG14      -0.0865
     18  CZ        43.9820  -52.1020  -21.8140 C.cat  14  ARG14       0.5346
     19  NH1       43.5740  -52.7370  -20.7220 N.pl3  14  ARG14       0.1354
     20  NH2       44.2740  -50.8100  -21.7600 N.pl3  14  ARG14       0.1354
     21  N         48.3360  -59.5930  -25.3770 N.3    17  PHE17      -0.1241
     22  CA        49.7770  -59.7390  -25.3780 C.3    17  PHE17       0.1605
     23  C         50.2270  -60.9330  -24.5260 C.2    17  PHE17       0.2264
     24  O         49.4470  -61.4590  -23.7300 O.2    17  PHE17      -0.2867
     25  CB        50.3840  -58.4190  -24.9250 C.3    17  PHE17       0.0534
     26  CG        49.9220  -57.2610  -25.7620 C.ar   17  PHE17      -0.0203
     27  CD1       50.2350  -57.1980  -27.1110 C.ar   17  PHE17      -0.0042
     28  CD2       49.1770  -56.2370  -25.2020 C.ar   17  PHE17      -0.0042
     29  CE1       49.7990  -56.1420  -27.8890 C.ar   17  PHE17      -0.0003
     30  CE2       48.7450  -55.1760  -25.9730 C.ar   17  PHE17      -0.0003
     31  CZ        49.0600  -55.1270  -27.3180 C.ar   17  PHE17      -0.0000
     32  N         51.9920  -61.1940  -21.9070 N.3    19  GLN19      -0.1245
     33  CA        51.8330  -60.9620  -20.4770 C.3    19  GLN19       0.1566
     34  C         50.3980  -61.1980  -20.0120 C.2    19  GLN19       0.2260
     35  O         50.1320  -61.2370  -18.8120 O.2    19  GLN19      -0.2867
     36  CB        52.2870  -59.5440  -20.1210 C.3    19  GLN19       0.0367
     37  CG        51.5730  -58.4500  -20.8780 C.3    19  GLN19       0.0905
     38  CD        52.3370  -57.9980  -22.1240 C.2    19  GLN19       0.2608
     39  OE1       53.0490  -58.7780  -22.7530 O.2    19  GLN19      -0.2717
     40  NE2       52.1630  -56.7370  -22.4940 N.am   19  GLN19      -0.0878
     41  N         38.0050  -58.4090  -16.1040 N.3    34  ALA34      -0.1245
     42  CA        38.3220  -57.0350  -15.6860 C.3    34  ALA34       0.1562
     43  C         37.9170  -56.0190  -16.7630 C.2    34  ALA34       0.2260
     44  O         37.2760  -54.9910  -16.4780 O.2    34  ALA34      -0.2867
     45  CB        39.8120  -56.9040  -15.3700 C.3    34  ALA34       0.0290
     46  N         34.0760  -55.7140  -16.9890 N.3    37  ASP37      -0.1225
     47  CA        33.5470  -54.8910  -15.9120 C.3    37  ASP37       0.1805
     48  C         33.8140  -53.4110  -16.1900 C.2    37  ASP37       0.2597
     49  O         32.9120  -52.5610  -16.0300 O.2    37  ASP37      -0.2718
     50  CB        34.1570  -55.3130  -14.5710 C.3    37  ASP37       0.1424
     51  CG        33.5850  -54.5400  -13.4050 C.2    37  ASP37       0.3668
     52  OD1       32.3900  -54.7330  -13.1040 O.co2  37  ASP37      -0.2456
     53  OD2       34.3300  -53.7590  -12.7800 O.co2  37  ASP37      -0.2456
     54  N         35.0300  -53.0910  -16.6360 N.am   38  GLU38      -0.1979
     55  CA        35.3390  -51.6880  -16.9270 C.3    38  GLU38       0.1602
     56  C         34.4000  -51.0710  -17.9470 C.2    38  GLU38       0.2287
     57  O         33.8420  -49.9980  -17.7120 O.2    38  GLU38      -0.2864
     58  CB        36.7640  -51.5010  -17.4670 C.3    38  GLU38       0.0415
     59  CG        37.0410  -50.0180  -17.8200 C.3    38  GLU38       0.1163
     60  CD        38.3250  -49.7930  -18.5880 C.2    38  GLU38       0.3649
     61  OE1       39.0440  -50.7750  -18.8630 O.co2  38  GLU38      -0.2457
     62  OE2       38.6020  -48.6220  -18.9390 O.co2  38  GLU38      -0.2457
     63  N         30.6740  -50.7800  -16.7850 N.3    41  ALA41      -0.1231
     64  CA        30.4640  -49.7290  -15.7910 C.3    41  ALA41       0.1694
     65  C         30.3090  -48.3370  -16.4090 C.2    41  ALA41       0.2591
     66  O         29.4860  -47.5350  -15.9580 O.2    41  ALA41      -0.2718
     67  CB        31.6100  -49.7250  -14.7970 C.3    41  ALA41       0.0304
     68  N         31.1100  -48.0440  -17.4300 N.am   42  ILE42      -0.1980
     69  CA        31.0600  -46.7390  -18.0740 C.3    42  ILE42       0.1595
     70  C         29.7270  -46.5840  -18.7740 C.2    42  ILE42       0.2287
     71  O         29.0610  -45.5440  -18.6510 O.2    42  ILE42      -0.2864
     72  CB        32.2020  -46.5550  -19.0950 C.3    42  ILE42       0.0276
     73  CG1       33.5500  -46.6950  -18.3930 C.3    42  ILE42       0.0022
     74  CG2       32.0900  -45.1940  -19.7840 C.3    42  ILE42       0.0022
     75  CD1       34.7330  -46.7390  -19.3210 C.3    42  ILE42       0.0001
     76  N         27.8200  -45.4880  -10.4430 N.3    52  VAL52      -0.1231
     77  CA        27.2350  -46.8170  -10.4010 C.3    52  VAL52       0.1692
     78  C         28.1570  -47.7860   -9.6940 C.2    52  VAL52       0.2592
     79  O         29.3490  -47.5200   -9.5340 O.2    52  VAL52      -0.2718
     80  CB        26.9310  -47.3450  -11.8120 C.3    52  VAL52       0.0266
     81  CG1       26.0030  -46.3900  -12.5440 C.3    52  VAL52       0.0020
     82  CG2       28.2190  -47.5560  -12.5990 C.3    52  VAL52       0.0020
     83  N         27.5920  -48.9120   -9.2720 N.am   53  VAL53      -0.1966
     84  CA        28.3690  -50.0200   -8.7400 C.3    53  VAL53       0.1727
     85  C         27.9060  -51.3140   -9.3890 C.2    53  VAL53       0.2617
     86  O         26.7580  -51.4200   -9.8240 O.2    53  VAL53      -0.2715
     87  CB        28.2430  -50.1310   -7.2100 C.3    53  VAL53       0.0290
     88  CG1       28.9260  -48.9490   -6.5380 C.3    53  VAL53       0.0023
     89  CG2       26.7830  -50.2060   -6.7950 C.3    53  VAL53       0.0023
     90  N         28.8080  -52.2830   -9.4890 N.am   54  THR54      -0.1937
     91  CA        28.4550  -53.5900  -10.0220 C.3    54  THR54       0.2028
     92  C         27.7100  -54.3660   -8.9480 C.2    54  THR54       0.2642
     93  O         28.2660  -54.6480   -7.8890 O.2    54  THR54      -0.2714
     94  CB        29.6880  -54.4080  -10.4580 C.3    54  THR54       0.1808
     95  OG1       30.5670  -53.5970  -11.2480 O.3    54  THR54      -0.2208
     96  CG2       29.2640  -55.6360  -11.2620 C.3    54  THR54       0.0379
     97  N         26.4510  -54.6950   -9.2090 N.am   55  ALA55      -0.1963
     98  CA        25.6790  -55.4870   -8.2610 C.3    55  ALA55       0.1728
     99  C         26.0260  -56.9520   -8.4490 C.2    55  ALA55       0.2616
    100  O         26.1610  -57.6990   -7.4800 O.2    55  ALA55      -0.2715
    101  CB        24.1940  -55.2590   -8.4460 C.3    55  ALA55       0.0334
    102  N         26.1630  -57.3660   -9.7040 N.am   56  SER56      -0.1950
    103  CA        26.5180  -58.7450   -9.9930 C.3    56  SER56       0.1924
    104  C         26.9850  -58.9460  -11.4180 C.2    56  SER56       0.2314
    105  O         26.7020  -58.1480  -12.3090 O.2    56  SER56      -0.2863
    106  CB        25.3330  -59.6710   -9.7290 C.3    56  SER56       0.2116
    107  OG        24.2670  -59.3810  -10.6130 O.3    56  SER56      -0.2180
    108  N         15.5400  -51.0940  -14.7240 N.3    82  GLY82      -0.1210
    109  CA        14.6180  -51.3010  -13.6260 C.3    82  GLY82       0.1956
    110  C         14.3360  -49.9650  -12.9760 C.2    82  GLY82       0.2613
    111  O         14.1850  -48.9560  -13.6670 O.2    82  GLY82      -0.2717
    112  N         14.2530  -49.9500  -11.6520 N.am   83  THR83      -0.1938
    113  CA        14.0470  -48.7000  -10.9400 C.3    83  THR83       0.2028
    114  C         15.3900  -48.0060  -10.7480 C.2    83  THR83       0.2643
    115  O         15.5770  -46.8640  -11.1630 O.2    83  THR83      -0.2714
    116  CB        13.3770  -48.9280   -9.5720 C.3    83  THR83       0.1808
    117  OG1       12.1280  -49.6070   -9.7540 O.3    83  THR83      -0.2208
    118  CG2       13.1390  -47.6000   -8.8590 C.3    83  THR83       0.0379
    119  N         16.3270  -48.7180  -10.1300 N.am   84  SER84      -0.1935
    120  CA        17.6510  -48.1740   -9.8540 C.3    84  SER84       0.2055
    121  C         18.7330  -49.0450  -10.4790 C.2    84  SER84       0.2643
    122  O         19.9170  -48.7150  -10.4150 O.2    84  SER84      -0.2714
    123  CB        17.8840  -48.0570   -8.3460 C.3    84  SER84       0.2130
    124  OG        18.1410  -49.3250   -7.7690 O.3    84  SER84      -0.2179
    125  N         18.3240  -50.1520  -11.0930 N.am   85  SER85      -0.1949
    126  CA        19.2790  -51.1220  -11.6060 C.3    85  SER85       0.1924
    127  C         19.2180  -51.1880  -13.1220 C.2    85  SER85       0.2314
    128  O         18.2100  -50.8410  -13.7350 O.2    85  SER85      -0.2863
    129  CB        19.0130  -52.5080  -11.0180 C.3    85  SER85       0.2116
    130  OG        17.8440  -53.0770  -11.5780 O.3    85  SER85      -0.2180
    131  N         24.8880  -56.6310  -13.8590 N.3   111  THR111     -0.1203
    132  CA        23.8730  -55.7550  -13.3080 C.3   111  THR111      0.1994
    133  C         24.5320  -54.6120  -12.5590 C.2   111  THR111      0.2618
    134  O         25.4100  -54.8250  -11.7210 O.2   111  THR111     -0.2717
    135  CB        22.9160  -56.5190  -12.3690 C.3   111  THR111      0.1784
    136  OG1       22.3230  -57.6120  -13.0800 O.3   111  THR111     -0.2211
    137  CG2       21.8180  -55.5980  -11.8530 C.3   111  THR111      0.0376
    138  N         24.1210  -53.3940  -12.8880 N.am  112  PHE112     -0.1961
    139  CA        24.6420  -52.2120  -12.2190 C.3   112  PHE112      0.1771
    140  C         23.5290  -51.4680  -11.4970 C.2   112  PHE112      0.2619
    141  O         22.3780  -51.4990  -11.9170 O.2   112  PHE112     -0.2715
    142  CB        25.3460  -51.2950  -13.2240 C.3   112  PHE112      0.0574
    143  CG        26.7260  -51.7620  -13.5970 C.ar  112  PHE112     -0.0200
    144  CD1       26.9110  -52.7190  -14.5730 C.ar  112  PHE112     -0.0042
    145  CD2       27.8390  -51.2410  -12.9580 C.ar  112  PHE112     -0.0042
    146  CE1       28.1800  -53.1520  -14.9060 C.ar  112  PHE112     -0.0003
    147  CE2       29.1050  -51.6640  -13.2870 C.ar  112  PHE112     -0.0003
    148  CZ        29.2790  -52.6230  -14.2620 C.ar  112  PHE112     -0.0000
    149  N         23.8820  -50.8040  -10.4050 N.am  113  VAL113     -0.1977
    150  CA        22.9250  -49.9940   -9.6660 C.3   113  VAL113      0.1596
    151  C         23.4060  -48.5560   -9.5670 C.2   113  VAL113      0.2287
    152  O         24.5350  -48.2980   -9.1540 O.2   113  VAL113     -0.2864
    153  CB        22.6870  -50.5570   -8.2510 C.3   113  VAL113      0.0276
    154  CG1       21.7960  -49.6200   -7.4350 C.3   113  VAL113      0.0022
    155  CG2       22.0660  -51.9380   -8.3360 C.3   113  VAL113      0.0022
    156  N         23.5940  -44.9200   -7.9120 N.3   115  LEU115     -0.1245
    157  CA        23.5550  -44.4250   -6.5420 C.3   115  LEU115      0.1561
    158  C         23.5890  -42.9020   -6.5230 C.2   115  LEU115      0.2260
    159  O         24.1350  -42.2750   -7.4340 O.2   115  LEU115     -0.2867
    160  CB        24.7290  -44.9770   -5.7330 C.3   115  LEU115      0.0270
    161  CG        24.8970  -46.4970   -5.6860 C.3   115  LEU115      0.0019
    162  CD1       26.1650  -46.8550   -4.9310 C.3   115  LEU115      0.0001
    163  CD2       23.6880  -47.1770   -5.0620 C.3   115  LEU115      0.0001
    164  N         20.5540  -46.0800   -3.5550 N.3   121  PRO121     -0.2116
    165  CA        20.0460  -46.3450   -4.9040 C.3   121  PRO121      0.1372
    166  C         19.2120  -45.1980   -5.4640 C.2   121  PRO121      0.2244
    167  O         18.4530  -44.5580   -4.7360 O.2   121  PRO121     -0.2868
    168  CB        19.2040  -47.6030   -4.7120 C.3   121  PRO121      0.0268
    169  CG        19.8990  -48.3290   -3.6280 C.3   121  PRO121      0.0207
    170  CD        20.4130  -47.2630   -2.6870 C.3   121  PRO121      0.0892
    171  N         18.3350  -63.6390  -12.0800 N.3   148  ARG148     -0.1231
    172  CA        19.4210  -63.1380  -11.2360 C.3   148  ARG148      0.1694
    173  C         18.8770  -62.6030   -9.9030 C.2   148  ARG148      0.2591
    174  O         19.4970  -62.7950   -8.8500 O.2   148  ARG148     -0.2718
    175  CB        20.2670  -62.0920  -11.9630 C.3   148  ARG148      0.0321
    176  CG        19.6170  -60.7710  -12.2680 C.3   148  ARG148      0.0489
    177  CD        20.6520  -59.8670  -12.9420 C.3   148  ARG148      0.2205
    178  NE        21.1630  -60.4490  -14.1880 N.pl3 148  ARG148     -0.0865
    179  CZ        20.8770  -60.0100  -15.4150 C.cat 148  ARG148      0.5346
    180  NH1       20.0920  -58.9600  -15.6010 N.pl3 148  ARG148      0.1354
    181  NH2       21.3890  -60.6240  -16.4690 N.pl3 148  ARG148      0.1354
    182  N         17.7280  -61.9310   -9.9360 N.am  149  LYS149     -0.1980
    183  CA        17.1350  -61.4620   -8.6900 C.3   149  LYS149      0.1596
    184  C         16.8730  -62.6300   -7.7330 C.2   149  LYS149      0.2287
    185  O         17.1290  -62.5110   -6.5360 O.2   149  LYS149     -0.2864
    186  CB        15.8420  -60.7000   -8.9490 C.3   149  LYS149      0.0298
    187  CG        16.0470  -59.3690   -9.6400 C.3   149  LYS149      0.0038
    188  CD        14.8120  -58.4980   -9.5240 C.3   149  LYS149      0.0206
    189  CE        15.0780  -57.1010  -10.0370 C.3   149  LYS149      0.1093
    190  NZ        13.8500  -56.2800  -10.1110 N.3   149  LYS149     -0.1314
    191  N         18.5360  -65.4240   -7.8000 N.3   151  ARG151     -0.1231
    192  CA        19.8710  -65.8790   -7.4750 C.3   151  ARG151      0.1694
    193  C         20.5090  -65.0690   -6.3410 C.2   151  ARG151      0.2591
    194  O         21.2110  -65.6340   -5.5000 O.2   151  ARG151     -0.2718
    195  CB        20.7430  -65.8380   -8.7180 C.3   151  ARG151      0.0321
    196  CG        22.0250  -66.6150   -8.5530 C.3   151  ARG151      0.0489
    197  CD        23.1110  -66.1220   -9.4790 C.3   151  ARG151      0.2205
    198  NE        23.2880  -64.6660   -9.4700 N.pl3 151  ARG151     -0.0865
    199  CZ        23.2950  -63.8840  -10.5490 C.cat 151  ARG151      0.5346
    200  NH1       23.1380  -64.3830  -11.7710 N.pl3 151  ARG151      0.1354
    201  NH2       23.4640  -62.5790  -10.4060 N.pl3 151  ARG151      0.1354
    202  N         20.2920  -63.7580   -6.3180 N.am  152  ARG152     -0.1980
    203  CA        20.8080  -62.9500   -5.2130 C.3   152  ARG152      0.1597
    204  C         20.3520  -63.5260   -3.8620 C.2   152  ARG152      0.2287
    205  O         21.1530  -63.6670   -2.9250 O.2   152  ARG152     -0.2864
    206  CB        20.3510  -61.4990   -5.3490 C.3   152  ARG152      0.0334
    207  CG        20.9160  -60.5610   -4.2850 C.3   152  ARG152      0.0492
    208  CD        20.1680  -59.2390   -4.2730 C.3   152  ARG152      0.2205
    209  NE        20.7460  -58.2780   -3.3370 N.pl3 152  ARG152     -0.0865
    210  CZ        20.2040  -57.0990   -3.0470 C.cat 152  ARG152      0.5346
    211  NH1       19.0630  -56.7340   -3.6130 N.pl3 152  ARG152      0.1354
    212  NH2       20.8030  -56.2820   -2.1890 N.pl3 152  ARG152      0.1354
    213  N         22.6990  -64.7970   -0.7800 N.3   156  LYS156     -0.1245
    214  CA        22.6100  -64.3270    0.6010 C.3   156  LYS156      0.1561
    215  C         22.3910  -65.5020    1.5450 C.2   156  LYS156      0.2260
    216  O         23.0710  -65.6310    2.5640 O.2   156  LYS156     -0.2867
    217  CB        21.4580  -63.3430    0.7980 C.3   156  LYS156      0.0271
    218  CG        21.6010  -61.9970    0.1300 C.3   156  LYS156      0.0035
    219  CD        20.3690  -61.1410    0.4180 C.3   156  LYS156      0.0206
    220  CE        20.4080  -59.8080   -0.3110 C.3   156  LYS156      0.1093
    221  NZ        19.1610  -59.0100   -0.0970 N.3   156  LYS156     -0.1314
@<TRIPOS>BOND
     1    29    31   ar
     2    29    27   ar
     3    13    12    2
     4    12    11    1
     5    10    11    1
     6    31    30   ar
     7    27    26   ar
     8    11    14    1
     9     4     3    2
    10     3     2    1
    11     1     2    1
    12    30    28   ar
    13    26    28   ar
    14    26    25    1
    15     2     5    1
    16    22    21    1
    17    22    25    1
    18    22    23    1
    19    14    15    1
    20    15    16    1
    21    23    24    2
    22     5     6    1
    23     6     7    1
    24    16    17    1
    25    17    18    2
    26    39    38    2
    27    40    38   am
    28     7     8    1
    29    38    37    1
    30     8     9    1
    31    32    33    1
    32    18    20    1
    33    18    19    1
    34    37    36    1
    35    33    36    1
    36    33    34    1
    37    34    35    2
    38    74    72    1
    39    75    73    1
    40    72    73    1
    41    72    69    1
    42    62    60   ar
    43    61    60   ar
    44    70    71    2
    45    70    69    1
    46    60    59    1
    47    69    68    1
    48    56    57    2
    49    56    55    1
    50    59    58    1
    51    58    55    1
    52    68    65   am
    53    46    47    1
    54    55    54    1
    55    63    64    1
    56    43    44    2
    57    43    42    1
    58    54    48   am
    59   181   179    1
    60    65    66    2
    61    65    64    1
    62    48    49    2
    63    48    47    1
    64    41    42    1
    65    47    50    1
    66    64    67    1
    67    42    45    1
    68   180   179    1
    69   179   178    2
    70   146   144   ar
    71   146   148   ar
    72   108   109    1
    73   144   143   ar
    74    50    51    1
    75   148   147   ar
    76   178   177    1
    77   131   132    1
    78   128   127    2
    79   111   110    2
    80   109   110    1
    81   143   142    1
    82   143   145   ar
    83    51    52   ar
    84    51    53   ar
    85   132   133    1
    86   132   135    1
    87   147   145   ar
    88   142   139    1
    89   127   126    1
    90   136   135    1
    91   110   112   am
    92   177   176    1
    93   138   133   am
    94   138   139    1
    95    82    80    1
    96   133   134    2
    97    81    80    1
    98   135   137    1
    99   105   104    2
   100   176   175    1
   101   139   140    1
   102   171   172    1
   103   175   172    1
   104   141   140    2
   105    80    77    1
   106   200   199    1
   107   112   113    1
   108   126   125    1
   109   126   129    1
   110   130   129    1
   111   140   149   am
   112   104   103    1
   113    96    94    1
   114    95    94    1
   115   172   173    1
   116   115   114    2
   117   125   121   am
   118   113   114    1
   119   113   116    1
   120   114   119   am
   121   107   106    1
   122   199   201    1
   123   199   198    2
   124   121   122    2
   125   121   120    1
   126    94    91    1
   127    76    77    1
   128   149   150    1
   129    77    78    1
   130   119   120    1
   131   190   189    1
   132   189   188    1
   133    91    90    1
   134    91    92    1
   135   103   106    1
   136   103   102    1
   137   182   173   am
   138   182   183    1
   139   173   174    2
   140   120   123    1
   141    86    85    2
   142   117   116    1
   143   102    99   am
   144    78    79    2
   145    78    83   am
   146   150   151    1
   147   150   153    1
   148   187   188    1
   149   187   186    1
   150   116   118    1
   151   151   152    2
   152    90    85   am
   153   197   198    1
   154   197   196    1
   155    85    84    1
   156    83    84    1
   157    97    92   am
   158    97    98    1
   159   186   183    1
   160    92    93    2
   161    84    87    1
   162   195   196    1
   163   195   192    1
   164   183   184    1
   165    99    98    1
   166    99   100    2
   167   101    98    1
   168   123   124    1
   169   155   153    1
   170   153   154    1
   171   156   157    1
   172   191   192    1
   173   184   185    2
   174   192   193    1
   175   159   158    2
   176    87    89    1
   177    87    88    1
   178   157   158    1
   179   157   160    1
   180   193   202   am
   181   193   194    2
   182   202   203    1
   183   160   161    1
   184   161   163    1
   185   161   162    1
   186   166   165    1
   187   166   167    2
   188   206   203    1
   189   206   207    1
   190   203   204    1
   191   165   168    1
   192   165   164    1
   193   168   169    1
   194   207   208    1
   195   208   209    1
   196   204   205    2
   197   169   170    1
   198   211   210    1
   199   164   170    1
   200   209   210    2
   201   210   212    1
   202   213   214    1
   203   220   221    1
   204   220   219    1
   205   218   219    1
   206   218   217    1
   207   214   217    1
   208   214   215    1
   209   215   216    2
