@<TRIPOS>MOLECULE
tmp/5eglA01.pdb
 89 89 0 0 0
SMALL
GASTEIGER

@<TRIPOS>ATOM
      1  N         54.8220  -55.7010  -26.6290 N.3    22  ASN22      -0.1240
      2  CA        53.7420  -56.3990  -27.3100 C.3    22  ASN22       0.1653
      3  C         54.1130  -57.8270  -27.7000 C.2    22  ASN22       0.2266
      4  O         55.1330  -58.3640  -27.2600 O.2    22  ASN22      -0.2867
      5  CB        53.2840  -55.5960  -28.5350 C.3    22  ASN22       0.1155
      6  CG        54.3560  -55.4590  -29.6060 C.2    22  ASN22       0.2627
      7  OD1       55.2680  -56.2770  -29.7230 O.2    22  ASN22      -0.2716
      8  ND2       54.2540  -54.3900  -30.3840 N.am   22  ASN22      -0.0877
      9  N         58.2140  -55.9910  -28.7910 N.3    26  THR26      -0.1203
     10  CA        58.6340  -54.6120  -28.9800 C.3    26  THR26       0.1994
     11  C         57.9480  -53.7490  -27.9310 C.2    26  THR26       0.2618
     12  O         56.7570  -53.9050  -27.6570 O.2    26  THR26      -0.2717
     13  CB        58.2980  -54.1090  -30.3920 C.3    26  THR26       0.1784
     14  OG1       58.9310  -54.9540  -31.3650 O.3    26  THR26      -0.2211
     15  CG2       58.7620  -52.6710  -30.5920 C.3    26  THR26       0.0376
     16  N         58.7150  -52.8670  -27.3100 N.am   27  MET27      -0.1965
     17  CA        58.1810  -52.0130  -26.2600 C.3    27  MET27       0.1736
     18  C         57.0880  -51.1170  -26.8040 C.2    27  MET27       0.2616
     19  O         57.2100  -50.5810  -27.8970 O.2    27  MET27      -0.2715
     20  CB        59.3030  -51.1830  -25.6430 C.3    27  MET27       0.0427
     21  CG        58.8650  -50.2570  -24.5340 C.3    27  MET27       0.0599
     22  SD        60.2880  -49.4260  -23.8040 S.3    27  MET27      -0.1393
     23  CE        59.5320  -48.6340  -22.3930 C.3    27  MET27       0.0692
     24  N         56.0220  -50.9490  -26.0290 N.am   28  PHE28      -0.1960
     25  CA        54.9150  -50.0940  -26.4350 C.3    28  PHE28       0.1771
     26  C         55.3790  -48.6600  -26.6180 C.2    28  PHE28       0.2620
     27  O         56.1250  -48.1290  -25.7920 O.2    28  PHE28      -0.2715
     28  CB        53.7860  -50.1100  -25.4010 C.3    28  PHE28       0.0574
     29  CG        53.1770  -51.4590  -25.1740 C.ar   28  PHE28      -0.0200
     30  CD1       52.5400  -52.1310  -26.2040 C.ar   28  PHE28      -0.0042
     31  CD2       53.1940  -52.0310  -23.9110 C.ar   28  PHE28      -0.0042
     32  CE1       51.9610  -53.3700  -25.9860 C.ar   28  PHE28      -0.0003
     33  CE2       52.6160  -53.2680  -23.6860 C.ar   28  PHE28      -0.0003
     34  CZ        51.9980  -53.9380  -24.7250 C.ar   28  PHE28      -0.0000
     35  N         54.9380  -48.0300  -27.6990 N.am   29  GLY29      -0.1954
     36  CA        55.2200  -46.6250  -27.8940 C.3    29  GLY29       0.1869
     37  C         54.6200  -45.8260  -26.7510 C.2    29  GLY29       0.2309
     38  O         55.2100  -44.8590  -26.2810 O.2    29  GLY29      -0.2863
     39  N         60.6730  -39.5410  -31.9410 N.3    61  ASP61      -0.1225
     40  CA        61.1370  -40.2850  -33.0940 C.3    61  ASP61       0.1805
     41  C         61.6350  -41.6320  -32.5810 C.2    61  ASP61       0.2598
     42  O         62.5740  -41.6970  -31.7750 O.2    61  ASP61      -0.2718
     43  CB        62.2310  -39.5120  -33.8280 C.3    61  ASP61       0.1424
     44  CG        62.4090  -39.9650  -35.2590 C.2    61  ASP61       0.3668
     45  OD1       63.0390  -39.2180  -36.0390 O.co2  61  ASP61      -0.2456
     46  OD2       61.9190  -41.0610  -35.6080 O.co2  61  ASP61      -0.2456
     47  N         60.9900  -42.6910  -33.0750 N.am   62  PHE62      -0.1962
     48  CA        61.3090  -44.0790  -32.7380 C.3    62  PHE62       0.1771
     49  C         62.2950  -44.6060  -33.7590 C.2    62  PHE62       0.2619
     50  O         61.9140  -44.9900  -34.8570 O.2    62  PHE62      -0.2715
     51  CB        60.0510  -44.9620  -32.7230 C.3    62  PHE62       0.0574
     52  CG        59.0330  -44.5760  -31.6870 C.ar   62  PHE62      -0.0200
     53  CD1       57.9770  -43.7350  -32.0000 C.ar   62  PHE62      -0.0042
     54  CD2       59.1420  -45.0490  -30.3890 C.ar   62  PHE62      -0.0042
     55  CE1       57.0450  -43.3850  -31.0440 C.ar   62  PHE62      -0.0003
     56  CE2       58.2160  -44.7090  -29.4340 C.ar   62  PHE62      -0.0003
     57  CZ        57.1680  -43.8670  -29.7520 C.ar   62  PHE62      -0.0000
     58  N         63.5700  -44.5690  -33.4030 N.am   63  LEU63      -0.1963
     59  CA        64.6390  -44.8450  -34.3480 C.3    63  LEU63       0.1728
     60  C         65.0010  -46.3220  -34.4800 C.2    63  LEU63       0.2616
     61  O         65.1590  -46.8360  -35.5860 O.2    63  LEU63      -0.2715
     62  CB        65.8740  -44.0510  -33.9320 C.3    63  LEU63       0.0311
     63  CG        65.6040  -42.5560  -33.7400 C.3    63  LEU63       0.0022
     64  CD1       66.8290  -41.8680  -33.1460 C.3    63  LEU63       0.0001
     65  CD2       65.1900  -41.8900  -35.0450 C.3    63  LEU63       0.0001
     66  N         65.1330  -46.9980  -33.3480 N.am   64  LYS64      -0.1964
     67  CA        65.5040  -48.4080  -33.3420 C.3    64  LYS64       0.1713
     68  C         64.5810  -49.1840  -32.4310 C.2    64  LYS64       0.2458
     69  O         64.2430  -48.7010  -31.3480 O.2    64  LYS64      -0.2730
     70  CB        66.9540  -48.5880  -32.8940 C.3    64  LYS64       0.0311
     71  CG        67.9570  -48.0440  -33.8800 C.3    64  LYS64       0.0038
     72  CD        69.3870  -48.2880  -33.4320 C.3    64  LYS64       0.0206
     73  CE        70.3730  -47.7010  -34.4380 C.3    64  LYS64       0.1093
     74  NZ        71.7860  -47.8950  -34.0180 N.3    64  LYS64      -0.1314
     75  N         64.1740  -50.3940  -32.8540 N.am   65  PRO65      -0.2716
     76  CA        63.2410  -51.1380  -32.0070 C.3    65  PRO65       0.1536
     77  C         63.8370  -51.4990  -30.6550 C.2    65  PRO65       0.2598
     78  O         64.9630  -51.9760  -30.5850 O.2    65  PRO65      -0.2715
     79  CB        62.9460  -52.4010  -32.8290 C.3    65  PRO65       0.0310
     80  CG        63.2440  -52.0170  -34.2350 C.3    65  PRO65       0.0237
     81  CD        64.3980  -51.0680  -34.1450 C.3    65  PRO65       0.0939
     82  N         63.0630  -51.2600  -29.6030 N.am   66  ILE66      -0.1978
     83  CA        63.4120  -51.6620  -28.2420 C.3    66  ILE66       0.1596
     84  C         62.7390  -52.9860  -27.8970 C.2    66  ILE66       0.2287
     85  O         61.5280  -53.1380  -28.0700 O.2    66  ILE66      -0.2864
     86  CB        62.9850  -50.5820  -27.2440 C.3    66  ILE66       0.0276
     87  CG1       63.7920  -49.3090  -27.4950 C.3    66  ILE66       0.0022
     88  CG2       63.1500  -51.0630  -25.7930 C.3    66  ILE66       0.0022
     89  CD1       63.2180  -48.0980  -26.8280 C.3    66  ILE66       0.0001
@<TRIPOS>BOND
     1    45    44   ar
     2    46    44   ar
     3    61    60    2
     4    44    43    1
     5    65    63    1
     6    50    49    2
     7    60    59    1
     8    60    66   am
     9    73    74    1
    10    73    72    1
    11    59    62    1
    12    59    58    1
    13    80    81    1
    14    80    79    1
    15    81    75    1
    16    62    63    1
    17    71    72    1
    18    71    70    1
    19    43    40    1
    20    49    58   am
    21    49    48    1
    22    63    64    1
    23    66    67    1
    24    67    70    1
    25    67    68    1
    26    40    41    1
    27    40    39    1
    28    47    48    1
    29    47    41   am
    30    75    68   am
    31    75    76    1
    32    79    76    1
    33    48    51    1
    34    51    52    1
    35    41    42    2
    36    68    69    2
    37    76    77    1
    38    53    52   ar
    39    53    55   ar
    40    52    54   ar
    41    14    13    1
    42    55    57   ar
    43    77    78    2
    44    77    82   am
    45    15    13    1
    46    13    10    1
    47    54    56   ar
    48     8     6   am
    49    57    56   ar
    50     7     6    2
    51     6     5    1
    52    82    83    1
    53    10     9    1
    54    10    11    1
    55     5     2    1
    56    83    84    1
    57    83    86    1
    58    85    84    2
    59    11    12    2
    60    11    16   am
    61    19    18    2
    62    36    35    1
    63    36    37    1
    64     3     2    1
    65     3     4    2
    66    35    26   am
    67    87    86    1
    68    87    89    1
    69    16    17    1
    70     2     1    1
    71    86    88    1
    72    18    17    1
    73    18    24   am
    74    37    38    2
    75    26    25    1
    76    26    27    2
    77    25    24    1
    78    25    28    1
    79    17    20    1
    80    30    32   ar
    81    30    29   ar
    82    32    34   ar
    83    20    21    1
    84    28    29    1
    85    29    31   ar
    86    34    33   ar
    87    21    22    1
    88    31    33   ar
    89    22    23    1
