@<TRIPOS>MOLECULE
tmp/5egmA01.pdb
 180 180 0 0 0
SMALL
GASTEIGER

@<TRIPOS>ATOM
      1  N         -2.5310  -31.5940  -15.1280 N.3    25  PHE25      -0.1227
      2  CA        -3.4890  -32.7080  -15.1060 C.3    25  PHE25       0.1736
      3  C         -3.6830  -33.2470  -13.6960 C.2    25  PHE25       0.2595
      4  O         -4.6810  -33.9060  -13.4410 O.2    25  PHE25      -0.2718
      5  CB        -3.1020  -33.8160  -16.0950 C.3    25  PHE25       0.0547
      6  CG        -1.9130  -34.6360  -15.6920 C.ar   25  PHE25      -0.0202
      7  CD1       -2.0600  -35.7410  -14.8620 C.ar   25  PHE25      -0.0042
      8  CD2       -0.6520  -34.3400  -16.1740 C.ar   25  PHE25      -0.0042
      9  CE1       -0.9370  -36.4540  -14.4310 C.ar   25  PHE25      -0.0003
     10  CE2        0.4520  -35.1070  -15.8070 C.ar   25  PHE25      -0.0003
     11  CZ         0.3050  -36.1380  -14.9120 C.ar   25  PHE25      -0.0000
     12  N         -2.7630  -32.9750  -12.7820 N.am   26  CYS26      -0.1970
     13  CA        -2.8750  -33.4060  -11.3730 C.3    26  CYS26       0.1712
     14  C         -1.9970  -32.4990  -10.5390 C.2    26  CYS26       0.2296
     15  O         -1.1480  -31.7840  -11.0730 O.2    26  CYS26      -0.2864
     16  CB        -2.4320  -34.8680  -11.2070 C.3    26  CYS26       0.0983
     17  SG        -3.7330  -36.0950  -11.5510 S.3    26  CYS26      -0.0798
     18  N         -3.7570  -42.7920   -9.4480 N.3    41  HIS41      -0.1241
     19  CA        -4.4470  -42.7200  -10.7480 C.3    41  HIS41       0.1621
     20  C         -3.8920  -41.6220  -11.6540 C.2    41  HIS41       0.2264
     21  O         -4.1190  -41.6710  -12.8470 O.2    41  HIS41      -0.2867
     22  CB        -5.9690  -42.6080  -10.5860 C.3    41  HIS41       0.0745
     23  CG        -6.4910  -41.2400  -10.3090 C.ar   41  HIS41       0.0817
     24  ND1       -6.8080  -40.8530   -9.0290 N.ar   41  HIS41      -0.2268
     25  CD2       -6.8340  -40.2460  -11.1610 C.ar   41  HIS41       0.1154
     26  CE1       -7.1760  -39.5880   -9.1100 C.ar   41  HIS41       0.1986
     27  NE2       -7.2780  -39.2000  -10.3900 N.ar   41  HIS41      -0.2212
     28  N         -9.8890  -51.1990   -9.0540 N.3    84  ASN84      -0.1225
     29  CA       -10.4800  -49.8990   -8.8370 C.3    84  ASN84       0.1785
     30  C         -9.3770  -48.8300   -8.9730 C.2    84  ASN84       0.2597
     31  O         -8.3990  -48.8370   -8.2270 O.2    84  ASN84      -0.2718
     32  CB       -11.1520  -49.8090   -7.4590 C.3    84  ASN84       0.1169
     33  CG       -12.0030  -48.5660   -7.2570 C.2    84  ASN84       0.2627
     34  OD1      -11.9360  -47.5830   -8.0090 O.2    84  ASN84      -0.2716
     35  ND2      -12.8350  -48.5750   -6.2280 N.am   84  ASN84      -0.0877
     36  N         -9.5390  -47.9380   -9.9410 N.am   85  LYS85      -0.1966
     37  CA        -8.6030  -46.8340  -10.1990 C.3    85  LYS85       0.1728
     38  C         -8.4530  -45.9070   -8.9750 C.2    85  LYS85       0.2616
     39  O         -7.4120  -45.2460   -8.8140 O.2    85  LYS85      -0.2715
     40  CB        -9.1340  -46.0390  -11.4300 C.3    85  LYS85       0.0311
     41  CG        -8.3290  -44.8460  -11.8820 C.3    85  LYS85       0.0038
     42  CD        -8.9160  -44.2810  -13.1880 C.3    85  LYS85       0.0206
     43  CE        -8.4370  -42.8870  -13.5230 C.3    85  LYS85       0.1093
     44  NZ        -9.2920  -42.2340  -14.5440 N.3    85  LYS85      -0.1314
     45  N         -9.4950  -45.8160   -8.1420 N.am   86  TYR86      -0.1974
     46  CA        -9.5210  -44.8700   -7.0360 C.3    86  TYR86       0.1639
     47  C         -9.3880  -45.4650   -5.6230 C.2    86  TYR86       0.2290
     48  O         -9.5250  -44.7080   -4.6840 O.2    86  TYR86      -0.2864
     49  CB       -10.8040  -44.0370   -7.1550 C.3    86  TYR86       0.0560
     50  CG       -10.9970  -43.4280   -8.5310 C.ar   86  TYR86      -0.0198
     51  CD1      -10.3390  -42.2520   -8.8960 C.ar   86  TYR86      -0.0009
     52  CD2      -11.8000  -44.0470   -9.4860 C.ar   86  TYR86      -0.0009
     53  CE1      -10.4830  -41.7110  -10.1710 C.ar   86  TYR86       0.0417
     54  CE2      -11.9360  -43.5200  -10.7700 C.ar   86  TYR86       0.0417
     55  CZ       -11.2610  -42.3600  -11.1140 C.ar   86  TYR86       0.1957
     56  OH       -11.4410  -41.8180  -12.3660 O.3    86  TYR86      -0.2866
     57  N        -17.3280  -26.7920  -12.7780 N.3   135  HIS135     -0.1226
     58  CA       -17.5700  -28.1460  -13.2740 C.3   135  HIS135      0.1752
     59  C        -17.5490  -28.0770  -14.7980 C.2   135  HIS135      0.2595
     60  O        -18.2550  -27.2710  -15.3760 O.2   135  HIS135     -0.2718
     61  CB       -18.9200  -28.7150  -12.8010 C.3   135  HIS135      0.0759
     62  CG       -19.1320  -30.1240  -13.2750 C.ar  135  HIS135      0.0818
     63  ND1      -20.2230  -30.4790  -14.0730 N.ar  135  HIS135     -0.2268
     64  CD2      -18.2970  -31.1850  -13.2000 C.ar  135  HIS135      0.1154
     65  CE1      -20.0280  -31.7500  -14.3960 C.ar  135  HIS135      0.1986
     66  NE2      -18.9030  -32.2240  -13.8710 N.ar  135  HIS135     -0.2212
     67  N        -16.6580  -28.8390  -15.4300 N.am  136  LYS136     -0.1980
     68  CA       -16.4550  -28.8710  -16.8870 C.3   136  LYS136      0.1596
     69  C        -15.9810  -27.5310  -17.4450 C.2   136  LYS136      0.2287
     70  O        -16.1200  -27.2840  -18.6340 O.2   136  LYS136     -0.2864
     71  CB       -17.7230  -29.3610  -17.6250 C.3   136  LYS136      0.0298
     72  CG       -18.1070  -30.7970  -17.2650 C.3   136  LYS136      0.0038
     73  CD       -19.4790  -31.1690  -17.8680 C.3   136  LYS136      0.0206
     74  CE       -19.3940  -31.7270  -19.2650 C.3   136  LYS136      0.1093
     75  NZ       -20.7480  -32.0780  -19.7900 N.3   136  LYS136     -0.1314
     76  N        -21.2530  -44.6690   -5.8660 N.3   162  PHE162     -0.1227
     77  CA       -20.0040  -45.4280   -5.7760 C.3   162  PHE162      0.1736
     78  C        -19.6010  -45.6950   -4.3290 C.2   162  PHE162      0.2596
     79  O        -19.9670  -44.9400   -3.4330 O.2   162  PHE162     -0.2718
     80  CB       -18.8740  -44.7180   -6.5130 C.3   162  PHE162      0.0547
     81  CG       -19.1870  -44.4410   -7.9610 C.ar  162  PHE162     -0.0202
     82  CD1      -19.1550  -45.4600   -8.9000 C.ar  162  PHE162     -0.0042
     83  CD2      -19.5640  -43.1720   -8.3770 C.ar  162  PHE162     -0.0042
     84  CE1      -19.4650  -45.2110  -10.2320 C.ar  162  PHE162     -0.0003
     85  CE2      -19.8940  -42.9310   -9.7050 C.ar  162  PHE162     -0.0003
     86  CZ       -19.8580  -43.9560  -10.6220 C.ar  162  PHE162     -0.0000
     87  N        -18.8480  -46.7780   -4.1050 N.am  163  THR163     -0.1953
     88  CA       -18.4260  -47.1820   -2.7620 C.3   163  THR163      0.1897
     89  C        -17.3190  -46.2730   -2.2190 C.2   163  THR163      0.2313
     90  O        -16.4470  -45.8200   -2.9770 O.2   163  THR163     -0.2863
     91  CB       -17.9600  -48.6500   -2.7590 C.3   163  THR163      0.1794
     92  OG1      -18.7810  -49.3980   -3.6640 O.3   163  THR163     -0.2208
     93  CG2      -18.0440  -49.2860   -1.3720 C.3   163  THR163      0.0378
     94  N        -13.1620  -29.3370   -4.6360 N.3   180  SER180     -0.1202
     95  CA       -12.0640  -29.7090   -5.5120 C.3   180  SER180      0.2020
     96  C        -12.6880  -30.1280   -6.8430 C.2   180  SER180      0.2619
     97  O        -13.8780  -30.4450   -6.9070 O.2   180  SER180     -0.2717
     98  CB       -11.2950  -30.8870   -4.9370 C.3   180  SER180      0.2103
     99  OG       -12.1950  -31.9610   -4.7370 O.3   180  SER180     -0.2182
    100  N        -11.8920  -30.1610   -7.8950 N.am  181  CYS181     -0.1955
    101  CA       -12.3900  -30.5510   -9.2040 C.3   181  CYS181      0.1843
    102  C        -11.2810  -31.1790  -10.0210 C.2   181  CYS181      0.2625
    103  O        -10.1540  -31.2720   -9.5500 O.2   181  CYS181     -0.2714
    104  CB       -13.0300  -29.3530   -9.9060 C.3   181  CYS181      0.0997
    105  SG       -14.1830  -29.7740  -11.2480 S.3   181  CYS181     -0.0797
    106  N        -11.6110  -31.6590  -11.2030 N.am  182  GLN182     -0.1963
    107  CA       -10.6620  -32.3530  -12.0840 C.3   182  GLN182      0.1733
    108  C         -9.4310  -31.4970  -12.3050 C.2   182  GLN182      0.2616
    109  O         -9.5540  -30.3050  -12.5600 O.2   182  GLN182     -0.2715
    110  CB       -11.3200  -32.7050  -13.4130 C.3   182  GLN182      0.0408
    111  CG       -10.4550  -33.6130  -14.3080 C.3   182  GLN182      0.0908
    112  CD       -11.1380  -33.8990  -15.6170 C.2   182  GLN182      0.2608
    113  OE1      -12.0390  -33.1850  -16.0310 O.2   182  GLN182     -0.2717
    114  NE2      -10.7310  -34.9570  -16.3020 N.am  182  GLN182     -0.0878
    115  N         -8.2640  -32.1120  -12.2170 N.am  183  GLY183     -0.1955
    116  CA        -6.9790  -31.4050  -12.2740 C.3   183  GLY183      0.1869
    117  C         -6.3930  -31.1470  -10.9000 C.2   183  GLY183      0.2309
    118  O         -5.1840  -30.9890  -10.7620 O.2   183  GLY183     -0.2863
    119  N         -6.7410  -33.5020   -8.4320 N.3   185  SER185     -0.1217
    120  CA        -6.3850  -34.8230   -7.9080 C.3   185  SER185      0.1889
    121  C         -4.9000  -34.9410   -7.7080 C.2   185  SER185      0.2288
    122  O         -4.1060  -34.4240   -8.5120 O.2   185  SER185     -0.2866
    123  CB        -6.8030  -35.9460   -8.8510 C.3   185  SER185      0.2089
    124  OG        -8.1970  -35.8800   -9.0400 O.3   185  SER185     -0.2183
    125  N         -6.1080  -35.3560   -2.4220 N.3   203  ILE203     -0.1231
    126  CA        -7.3230  -35.0720   -3.2200 C.3   203  ILE203      0.1692
    127  C         -7.4620  -36.2640   -4.1870 C.2   203  ILE203      0.2593
    128  O         -6.5190  -36.5440   -4.9040 O.2   203  ILE203     -0.2718
    129  CB        -7.1880  -33.7310   -3.9870 C.3   203  ILE203      0.0266
    130  CG1       -6.9500  -32.5160   -3.0220 C.3   203  ILE203      0.0019
    131  CG2       -8.4560  -33.5040   -4.8830 C.3   203  ILE203      0.0020
    132  CD1       -6.4840  -31.2590   -3.6880 C.3   203  ILE203      0.0001
    133  N         -8.5960  -37.0110   -4.1560 N.am  204  SER204     -0.1938
    134  CA        -8.7240  -38.2050   -4.9720 C.3   204  SER204      0.2055
    135  C         -9.6810  -38.0410   -6.1650 C.2   204  SER204      0.2643
    136  O         -9.2310  -38.0370   -7.3240 O.2   204  SER204     -0.2714
    137  CB        -9.1130  -39.3930   -4.0960 C.3   204  SER204      0.2130
    138  OG        -9.1200  -40.5470   -4.9160 O.3   204  SER204     -0.2179
    139  N        -10.9750  -37.8750   -5.9030 N.am  205  TRP205     -0.1959
    140  CA       -11.9460  -37.7880   -6.9780 C.3   205  TRP205      0.1771
    141  C        -13.2220  -37.1270   -6.5720 C.2   205  TRP205      0.2620
    142  O        -13.4200  -36.7450   -5.4170 O.2   205  TRP205     -0.2715
    143  CB       -12.2370  -39.1970   -7.5720 C.3   205  TRP205      0.0590
    144  CG       -12.8690  -40.1810   -6.6190 C.ar  205  TRP205      0.0006
    145  CD1      -12.2140  -40.9730   -5.7280 C.ar  205  TRP205      0.0946
    146  CD2      -14.2740  -40.4730   -6.4550 C.ar  205  TRP205      0.0152
    147  NE1      -13.1070  -41.8030   -5.0850 N.ar  205  TRP205     -0.2442
    148  CE2      -14.3810  -41.4400   -5.4290 C.ar  205  TRP205      0.0810
    149  CE3      -15.4570  -39.9730   -7.0300 C.ar  205  TRP205      0.0012
    150  CZ2      -15.6120  -41.9830   -5.0360 C.ar  205  TRP205      0.0191
    151  CZ3      -16.6710  -40.5080   -6.6240 C.ar  205  TRP205      0.0001
    152  CH2      -16.7380  -41.4870   -5.6270 C.ar  205  TRP205      0.0015
    153  N        -14.0540  -36.8980   -7.5710 N.am  206  GLY206     -0.1940
    154  CA       -15.3540  -36.2900   -7.3790 C.3   206  GLY206      0.2014
    155  C        -16.2160  -36.4980   -8.5970 C.2   206  GLY206      0.2639
    156  O        -15.7580  -37.0420   -9.6090 O.2   206  GLY206     -0.2714
    157  N        -17.4730  -36.0930   -8.5100 N.am  207  GLU207     -0.1963
    158  CA       -18.3890  -36.2280   -9.6430 C.3   207  GLU207      0.1733
    159  C        -18.7010  -34.8250  -10.1370 C.2   207  GLU207      0.2616
    160  O        -17.7570  -34.1620  -10.5520 O.2   207  GLU207     -0.2715
    161  CB       -19.6120  -37.0440   -9.2670 C.3   207  GLU207      0.0429
    162  CG       -19.2450  -38.4880   -8.9880 C.3   207  GLU207      0.1163
    163  CD       -20.3670  -39.2620   -8.3440 C.2   207  GLU207      0.3649
    164  OE1      -20.3850  -39.3490   -7.0970 O.co2 207  GLU207     -0.2457
    165  OE2      -21.2820  -39.6920   -9.0780 O.co2 207  GLU207     -0.2457
    166  N        -19.9640  -34.3280  -10.0470 N.am  208  GLU208     -0.1963
    167  CA       -20.2640  -32.9870  -10.5460 C.3   208  GLU208      0.1733
    168  C        -19.6970  -31.9810   -9.5660 C.2   208  GLU208      0.2616
    169  O        -20.2590  -31.7920   -8.4840 O.2   208  GLU208     -0.2715
    170  CB       -21.7600  -32.7740  -10.7710 C.3   208  GLU208      0.0429
    171  CG       -22.3630  -33.7380  -11.7850 C.3   208  GLU208      0.1163
    172  CD       -22.7790  -35.1080  -11.2760 C.2   208  GLU208      0.3649
    173  OE1      -22.5120  -35.4280  -10.0950 O.co2 208  GLU208     -0.2457
    174  OE2      -23.3650  -35.8720  -12.0720 O.co2 208  GLU208     -0.2457
    175  N        -18.5070  -31.4270   -9.8720 N.am  209  CYS209     -0.1968
    176  CA       -17.8240  -30.5520   -8.9230 C.3   209  CYS209      0.1712
    177  C        -18.7020  -29.4840   -8.3680 C.2   209  CYS209      0.2296
    178  O        -19.2610  -28.7290   -9.1330 O.2   209  CYS209     -0.2864
    179  CB       -16.5860  -29.9070   -9.5410 C.3   209  CYS209      0.0983
    180  SG       -15.5040  -31.0660  -10.3860 S.3   209  CYS209     -0.0798
@<TRIPOS>BOND
     1    75    74    1
     2    74    73    1
     3    70    69    2
     4    73    72    1
     5    71    72    1
     6    71    68    1
     7    69    68    1
     8    68    67    1
     9   114   112   am
    10     8    10   ar
    11     8     6   ar
    12     5     6    1
    13     5     2    1
    14   113   112    2
    15    10    11   ar
    16     6     7   ar
    17   112   111    1
    18    67    59   am
    19    60    59    2
    20     1     2    1
    21     2     3    1
    22    11     9   ar
    23     7     9   ar
    24    59    58    1
    25    44    43    1
    26    65    63   ar
    27    65    66   ar
    28   111   110    1
    29    63    62   ar
    30    66    64   ar
    31     3     4    2
    32     3    12   am
    33    43    42    1
    34   110   107    1
    35    62    64   ar
    36    62    61    1
    37    58    61    1
    38    58    57    1
    39    42    41    1
    40    21    20    2
    41    12    13    1
    42   109   108    2
    43    56    55    1
    44   108   115   am
    45   108   107    1
    46   116   115    1
    47   116   117    1
    48   107   106    1
    49   174   172   ar
    50    41    40    1
    51   171   172    1
    52   171   170    1
    53    20    19    1
    54    17    16    1
    55    40    37    1
    56    13    16    1
    57    13    14    1
    58   172   173   ar
    59   105   180    1
    60   105   104    1
    61   106   102   am
    62    25    27   ar
    63    25    23   ar
    64    55    54   ar
    65    55    53   ar
    66    15    14    2
    67   117   118    2
    68   170   167    1
    69    54    52   ar
    70    19    22    1
    71    19    18    1
    72    86    84   ar
    73    86    85   ar
    74    22    23    1
    75   160   159    2
    76   167   166    1
    77   167   168    1
    78    27    26   ar
    79   180   179    1
    80    23    24   ar
    81    84    82   ar
    82    37    36    1
    83    37    38    1
    84    53    51   ar
    85   159   166   am
    86   159   158    1
    87   102   103    2
    88   102   101    1
    89    36    30   am
    90   104   101    1
    91   175   168   am
    92   175   176    1
    93    85    83   ar
    94   158   161    1
    95   158   157    1
    96   156   155    2
    97   168   169    2
    98   179   176    1
    99    52    50   ar
   100   161   162    1
   101   101   100    1
   102   178   177    2
   103    26    24   ar
   104   165   163   ar
   105    28    29    1
   106   124   123    1
   107   162   163    1
   108    38    39    2
   109    38    45   am
   110    30    29    1
   111    30    31    2
   112   176   177    1
   113    82    81   ar
   114    51    50   ar
   115   123   120    1
   116    29    32    1
   117   155   157   am
   118   155   154    1
   119    50    49    1
   120   122   121    2
   121   119   120    1
   122    83    81   ar
   123   163   164   ar
   124    45    46    1
   125    34    33    2
   126    81    80    1
   127   120   121    1
   128   100    96   am
   129   143   140    1
   130   143   144    1
   131   153   154    1
   132   153   141   am
   133    32    33    1
   134   136   135    2
   135    33    35   am
   136    49    46    1
   137    46    47    1
   138   149   151   ar
   139   149   146   ar
   140   140   141    1
   141   140   139    1
   142    97    96    2
   143    96    95    1
   144   151   152   ar
   145   144   146   ar
   146   144   145   ar
   147   141   142    2
   148    80    77    1
   149   146   148   ar
   150   135   139   am
   151   135   134    1
   152    76    77    1
   153    77    78    1
   154   145   147   ar
   155   152   150   ar
   156    47    48    2
   157    95    98    1
   158    95    94    1
   159   148   147   ar
   160   148   150   ar
   161   134   133    1
   162   134   137    1
   163    98    99    1
   164   138   137    1
   165   128   127    2
   166   131   129    1
   167    78    87   am
   168    78    79    2
   169   127   133   am
   170   127   126    1
   171    87    88    1
   172   129   126    1
   173   129   130    1
   174   132   130    1
   175    92    91    1
   176   126   125    1
   177    90    89    2
   178    88    91    1
   179    88    89    1
   180    91    93    1
