@<TRIPOS>MOLECULE
tmp/5egpA00.pdb
 205 197 0 0 0
SMALL
GASTEIGER

@<TRIPOS>ATOM
      1  N          5.2590    2.2130    5.2550 N.3     4  ASN4       -0.1240
      2  CA         6.4860    1.4670    4.9900 C.3     4  ASN4        0.1653
      3  C          6.0800    0.0040    4.8130 C.2     4  ASN4        0.2266
      4  O          5.4040   -0.5760    5.6650 O.2     4  ASN4       -0.2867
      5  CB         7.4570    1.6400    6.1590 C.3     4  ASN4        0.1155
      6  CG         8.7730    0.9010    5.9680 C.2     4  ASN4        0.2627
      7  OD1        8.7930   -0.2830    5.6300 O.2     4  ASN4       -0.2716
      8  ND2        9.8870    1.5970    6.1930 N.am    4  ASN4       -0.0877
      9  N          7.5150   -2.8020    5.1740 N.3     6  PHE6       -0.1241
     10  CA         7.9100   -3.7740    6.1820 C.3     6  PHE6        0.1605
     11  C          7.0740   -3.6960    7.4490 C.2     6  PHE6        0.2264
     12  O          7.1600   -4.5700    8.3000 O.2     6  PHE6       -0.2867
     13  CB         9.3780   -3.5620    6.5560 C.3     6  PHE6        0.0534
     14  CG        10.3340   -3.8630    5.4470 C.ar    6  PHE6       -0.0203
     15  CD1       10.5720   -5.1640    5.0630 C.ar    6  PHE6       -0.0042
     16  CD2       11.0220   -2.8380    4.8180 C.ar    6  PHE6       -0.0042
     17  CE1       11.4690   -5.4420    4.0460 C.ar    6  PHE6       -0.0003
     18  CE2       11.9260   -3.1110    3.8070 C.ar    6  PHE6       -0.0003
     19  CZ        12.1440   -4.4150    3.4320 C.ar    6  PHE6       -0.0000
     20  N          5.9530  -13.1100    5.5600 N.3    15  TYR15      -0.1241
     21  CA         7.4060  -13.1700    5.6710 C.3    15  TYR15       0.1605
     22  C          7.8940  -14.5220    6.1870 C.2    15  TYR15       0.2264
     23  O          9.0170  -14.9230    5.8910 O.2    15  TYR15      -0.2867
     24  CB         7.9910  -12.0230    6.5290 C.3    15  TYR15       0.0534
     25  CG         9.4850  -11.9390    6.3420 C.ar   15  TYR15      -0.0201
     26  CD1       10.0260  -11.3500    5.2050 C.ar   15  TYR15      -0.0009
     27  CD2       10.3560  -12.5230    7.2530 C.ar   15  TYR15      -0.0009
     28  CE1       11.3990  -11.3240    4.9900 C.ar   15  TYR15       0.0417
     29  CE2       11.7300  -12.4970    7.0460 C.ar   15  TYR15       0.0417
     30  CZ        12.2420  -11.9000    5.9140 C.ar   15  TYR15       0.1957
     31  OH        13.6070  -11.8730    5.6890 O.3    15  TYR15      -0.2866
     32  N         11.2350  -16.1440    4.7920 N.3    19  GLU19      -0.1245
     33  CA        12.3270  -16.5730    5.6620 C.3    19  GLU19       0.1567
     34  C         12.8850  -17.9370    5.2850 C.2    19  GLU19       0.2260
     35  O         13.9870  -18.2690    5.6720 O.2    19  GLU19      -0.2867
     36  CB        11.9090  -16.5750    7.1310 C.3    19  GLU19       0.0388
     37  CG        13.0960  -16.6800    8.0800 C.3    19  GLU19       0.1160
     38  CD        12.6890  -16.9360    9.5140 C.2    19  GLU19       0.3649
     39  OE1       11.8650  -17.8400    9.7640 O.co2  19  GLU19      -0.2457
     40  OE2       13.2070  -16.2470   10.3990 O.co2  19  GLU19      -0.2457
     41  N         15.7690  -16.3780    3.1380 N.3    22  THR22      -0.1218
     42  CA        16.8310  -15.7300    3.9170 C.3    22  THR22       0.1862
     43  C         17.4530  -16.7200    4.9080 C.2    22  THR22       0.2287
     44  O         18.6630  -16.6730    5.2060 O.2    22  THR22      -0.2866
     45  CB        16.3230  -14.5150    4.6820 C.3    22  THR22       0.1770
     46  OG1       15.2850  -14.9200    5.5860 O.3    22  THR22      -0.2211
     47  CG2       15.8350  -13.4540    3.7310 C.3    22  THR22       0.0375
     48  N         21.2640  -18.1660    7.5040 N.3    26  ALA26      -0.1245
     49  CA        21.3810  -17.7990    8.9060 C.3    26  ALA26       0.1562
     50  C         22.4540  -18.6140    9.6170 C.2    26  ALA26       0.2260
     51  O         23.2690  -18.0600   10.3440 O.2    26  ALA26      -0.2867
     52  CB        20.0450  -17.8980    9.6310 C.3    26  ALA26       0.0290
     53  N         21.2020   -8.3880   16.6600 N.3    47  ASP47      -0.1225
     54  CA        20.6200   -8.9120   15.4230 C.3    47  ASP47       0.1805
     55  C         19.8900   -7.7070   14.8300 C.2    47  ASP47       0.2598
     56  O         18.7880   -7.3730   15.2360 O.2    47  ASP47      -0.2718
     57  CB        19.6960  -10.0900   15.7460 C.3    47  ASP47       0.1424
     58  CG        19.1420  -10.8110   14.5070 C.2    47  ASP47       0.3668
     59  OD1       19.4570  -10.4330   13.3730 O.co2  47  ASP47      -0.2456
     60  OD2       18.3230  -11.7530   14.6980 O.co2  47  ASP47      -0.2456
     61  N         20.5640   -7.0240   13.9080 N.am   48  ASN48      -0.1960
     62  CA        20.1430   -5.7300   13.3580 C.3    48  ASN48       0.1819
     63  C         19.2860   -6.0130   12.1460 C.2    48  ASN48       0.2621
     64  O         19.6960   -6.7740   11.3100 O.2    48  ASN48      -0.2715
     65  CB        21.4150   -4.9610   12.9560 C.3    48  ASN48       0.1195
     66  CG        21.2230   -3.4550   12.7890 C.2    48  ASN48       0.2630
     67  OD1       20.1640   -2.8730   13.0500 O.2    48  ASN48      -0.2716
     68  ND2       22.2930   -2.8140   12.3370 N.am   48  ASN48      -0.0877
     69  N         18.1030   -5.4080   12.0370 N.am   49  ALA49      -0.1963
     70  CA        17.1390   -5.7610   10.9690 C.3    49  ALA49       0.1728
     71  C         16.8010   -7.2530   11.0430 C.2    49  ALA49       0.2616
     72  O         16.8220   -7.9900   10.0510 O.2    49  ALA49      -0.2715
     73  CB        17.6650   -5.3590    9.6040 C.3    49  ALA49       0.0334
     74  N         16.4320   -7.6640   12.2600 N.am   50  CYS50      -0.1954
     75  CA        16.2680   -9.0670   12.6060 C.3    50  CYS50       0.1843
     76  C         15.0950   -9.7830   11.9460 C.2    50  CYS50       0.2626
     77  O         15.0480  -11.0090   11.9720 O.2    50  CYS50      -0.2714
     78  CB        16.1590   -9.2220   14.1130 C.3    50  CYS50       0.0997
     79  SG        14.6350   -8.5940   14.8400 S.3    50  CYS50      -0.0797
     80  N         14.1410   -9.0390   11.4000 N.am   51  GLY51      -0.1940
     81  CA        12.9880   -9.6480   10.7630 C.3    51  GLY51       0.2014
     82  C         12.1450  -10.4050   11.7660 C.2    51  GLY51       0.2638
     83  O         11.7540   -9.8540   12.7930 O.2    51  GLY51      -0.2714
     84  N         11.8730  -11.6710   11.4780 N.am   52  ILE52      -0.1977
     85  CA        11.1530  -12.5280   12.4300 C.3    52  ILE52       0.1596
     86  C         12.1020  -13.4200   13.2510 C.2    52  ILE52       0.2287
     87  O         11.6740  -14.3420   13.9360 O.2    52  ILE52      -0.2864
     88  CB         9.9870  -13.3060   11.7630 C.3    52  ILE52       0.0276
     89  CG1       10.4760  -14.2810   10.6950 C.3    52  ILE52       0.0022
     90  CG2        8.9920  -12.3230   11.1520 C.3    52  ILE52       0.0022
     91  CD1        9.3690  -15.1670   10.1700 C.3    52  ILE52       0.0001
     92  N         15.5200  -14.8130   12.3110 N.3    54  ALA54      -0.1231
     93  CA        16.3200  -15.9040   11.7380 C.3    54  ALA54       0.1694
     94  C         17.6700  -16.0950   12.4280 C.2    54  ALA54       0.2591
     95  O         18.0230  -17.2070   12.8340 O.2    54  ALA54      -0.2718
     96  CB        16.5410  -15.6800   10.2540 C.3    54  ALA54       0.0304
     97  N         18.4360  -15.0100   12.5360 N.am   55  VAL55      -0.1980
     98  CA        19.7820  -15.1100   13.1140 C.3    55  VAL55       0.1595
     99  C         19.6940  -15.3760   14.6140 C.2    55  VAL55       0.2287
    100  O         20.3960  -16.2440   15.1370 O.2    55  VAL55      -0.2864
    101  CB        20.6110  -13.8510   12.8190 C.3    55  VAL55       0.0276
    102  CG1       21.8740  -13.7860   13.6640 C.3    55  VAL55       0.0022
    103  CG2       20.9350  -13.7970   11.3370 C.3    55  VAL55       0.0022
    104  N         14.7700   -4.1680   14.9910 N.3    77  ASP77      -0.1225
    105  CA        14.1590   -3.9820   13.6800 C.3    77  ASP77       0.1805
    106  C         13.3930   -2.6680   13.6810 C.2    77  ASP77       0.2598
    107  O         12.9830   -2.1500   14.7320 O.2    77  ASP77      -0.2718
    108  CB        13.2270   -5.1550   13.3170 C.3    77  ASP77       0.1424
    109  CG        13.0190   -5.3100   11.8080 C.2    77  ASP77       0.3668
    110  OD1       13.6810   -6.1710   11.1980 O.co2  77  ASP77      -0.2456
    111  OD2       12.2050   -4.5820   11.2280 O.co2  77  ASP77      -0.2456
    112  N         13.2050   -2.1150   12.4910 N.am   78  LEU78      -0.1966
    113  CA        12.3710   -0.9220   12.3440 C.3    78  LEU78       0.1728
    114  C         10.8810   -1.2350   12.4620 C.2    78  LEU78       0.2616
    115  O         10.0910   -0.3590   12.8240 O.2    78  LEU78      -0.2715
    116  CB        12.6250   -0.2820   10.9920 C.3    78  LEU78       0.0311
    117  CG        11.9140    1.0500   10.7440 C.3    78  LEU78       0.0022
    118  CD1       12.5300    2.1080   11.6310 C.3    78  LEU78       0.0001
    119  CD2       12.0660    1.4430    9.2820 C.3    78  LEU78       0.0001
    120  N         10.4910   -2.4610   12.1270 N.am   79  SER79      -0.1950
    121  CA         9.0770   -2.8210   12.0520 C.3    79  SER79       0.1924
    122  C          8.5020   -3.3750   13.3500 C.2    79  SER79       0.2314
    123  O          8.9370   -4.4230   13.8320 O.2    79  SER79      -0.2863
    124  CB         8.8500   -3.8280   10.9320 C.3    79  SER79       0.2116
    125  OG         7.5420   -4.3630   10.9850 O.3    79  SER79      -0.2180
    126  N          7.1920   -6.9350   12.6900 N.3    82  MET82      -0.1245
    127  CA         8.2930   -7.9050   12.7280 C.3    82  MET82       0.1570
    128  C          8.6840   -8.2640   14.1600 C.2    82  MET82       0.2261
    129  O          8.8740   -9.4410   14.4710 O.2    82  MET82      -0.2867
    130  CB         9.5210   -7.3580   11.9910 C.3    82  MET82       0.0387
    131  CG         9.3510   -7.2670   10.4940 C.3    82  MET82       0.0595
    132  SD         9.2710   -8.8740    9.7080 S.3    82  MET82      -0.1393
    133  CE         9.5080   -8.3650    8.0170 C.3    82  MET82       0.0692
    134  N         14.8210   -0.5750   16.5050 N.3   103  VAL103     -0.1231
    135  CA        16.1250   -0.0330   16.1700 C.3   103  VAL103      0.1692
    136  C         16.1200    0.3060   14.6750 C.2   103  VAL103      0.2592
    137  O         15.9720   -0.5700   13.8220 O.2   103  VAL103     -0.2718
    138  CB        17.2520   -1.0640   16.4500 C.3   103  VAL103      0.0266
    139  CG1       18.5990   -0.5410   15.9630 C.3   103  VAL103      0.0020
    140  CG2       17.3160   -1.4300   17.9300 C.3   103  VAL103      0.0020
    141  N         16.2570    1.5910   14.3940 N.am  104  ASN104     -0.1960
    142  CA        16.4210    2.0960   13.0490 C.3   104  ASN104      0.1819
    143  C         17.8970    1.9760   12.7080 C.2   104  ASN104      0.2621
    144  O         18.7300    2.6300   13.3210 O.2   104  ASN104     -0.2715
    145  CB        15.9670    3.5680   12.9970 C.3   104  ASN104      0.1195
    146  CG        16.0550    4.1790   11.6090 C.2   104  ASN104      0.2630
    147  OD1       16.5770    3.5780   10.6470 O.2   104  ASN104     -0.2716
    148  ND2       15.5650    5.4090   11.5030 N.am  104  ASN104     -0.0877
    149  N         18.2190    1.1420   11.7180 N.am  105  ALA105     -0.1963
    150  CA        19.6190    0.8960   11.3670 C.3   105  ALA105      0.1728
    151  C         20.3620    2.1670   10.9610 C.2   105  ALA105      0.2616
    152  O         21.5680    2.2450   11.1130 O.2   105  ALA105     -0.2715
    153  CB        19.7360   -0.1760   10.2860 C.3   105  ALA105      0.0334
    154  N         19.6420    3.1710   10.4710 N.am  106  LEU106     -0.1977
    155  CA        20.2900    4.4180   10.0770 C.3   106  LEU106      0.1596
    156  C         20.4990    5.3790   11.2300 C.2   106  LEU106      0.2287
    157  O         21.2450    6.3430   11.0880 O.2   106  LEU106     -0.2864
    158  CB        19.5030    5.1170    8.9730 C.3   106  LEU106      0.0297
    159  CG        19.8410    4.6300    7.5590 C.3   106  LEU106      0.0022
    160  CD1       19.2840    3.2510    7.2840 C.3   106  LEU106      0.0001
    161  CD2       19.3540    5.6380    6.5300 C.3   106  LEU106      0.0001
    162  N         21.6060   -9.5700    8.6210 N.3   121  ALA121     -0.1231
    163  CA        21.2340  -10.6210    7.6760 C.3   121  ALA121      0.1694
    164  C         20.2010  -10.0650    6.6860 C.2   121  ALA121      0.2592
    165  O         19.0380   -9.8120    7.0290 O.2   121  ALA121     -0.2718
    166  CB        20.6930  -11.8270    8.4160 C.3   121  ALA121      0.0304
    167  N         20.6500   -9.8140    5.4660 N.am  122  PHE122     -0.1962
    168  CA        19.8140   -9.2770    4.4030 C.3   122  PHE122      0.1771
    169  C         19.0890   -7.9930    4.7960 C.2   122  PHE122      0.2620
    170  O         17.8850   -7.8280    4.5220 O.2   122  PHE122     -0.2715
    171  CB        18.8820  -10.3500    3.8550 C.3   122  PHE122      0.0574
    172  CG        19.6220  -11.5610    3.3940 C.ar  122  PHE122     -0.0200
    173  CD1       20.4390  -11.5080    2.2560 C.ar  122  PHE122     -0.0042
    174  CD2       19.5570  -12.7410    4.1400 C.ar  122  PHE122     -0.0042
    175  CE1       21.1290  -12.6390    1.8620 C.ar  122  PHE122     -0.0003
    176  CE2       20.2560  -13.8610    3.7320 C.ar  122  PHE122     -0.0003
    177  CZ        21.0520  -13.8040    2.5980 C.ar  122  PHE122     -0.0000
    178  N         19.8370   -7.0840    5.4210 N.am  123  GLY123     -0.1954
    179  CA        19.3620   -5.7540    5.7240 C.3   123  GLY123      0.1869
    180  C         19.8740   -4.6760    4.7820 C.2   123  GLY123      0.2309
    181  O         19.1150   -3.7930    4.3820 O.2   123  GLY123     -0.2863
    182  N         17.9820   -3.5460    1.7560 N.3   126  SER126     -0.1202
    183  CA        16.6320   -3.0680    2.0690 C.3   126  SER126      0.2020
    184  C         16.5920   -1.6670    2.7030 C.2   126  SER126      0.2619
    185  O         15.5410   -1.0330    2.7040 O.2   126  SER126     -0.2717
    186  CB        15.9460   -4.0660    2.9970 C.3   126  SER126      0.2103
    187  OG        15.6810   -5.2850    2.3360 O.3   126  SER126     -0.2182
    188  N         17.6950   -1.2080    3.2870 N.am  127  PHE127     -0.1962
    189  CA        17.7420    0.0980    3.9260 C.3   127  PHE127      0.1756
    190  C         17.7200    1.2080    2.8810 C.2   127  PHE127      0.2461
    191  O         18.1800    1.0140    1.7550 O.2   127  PHE127     -0.2730
    192  CB        18.9900    0.2830    4.7720 C.3   127  PHE127      0.0574
    193  CG        19.2040   -0.7650    5.8470 C.ar  127  PHE127     -0.0200
    194  CD1       18.1580   -1.3800    6.5100 C.ar  127  PHE127     -0.0042
    195  CD2       20.4950   -1.1190    6.1970 C.ar  127  PHE127     -0.0042
    196  CE1       18.4020   -2.3260    7.4910 C.ar  127  PHE127     -0.0003
    197  CE2       20.7430   -2.0450    7.1860 C.ar  127  PHE127     -0.0003
    198  CZ        19.7030   -2.6600    7.8240 C.ar  127  PHE127     -0.0000
    199  N         17.1980    2.3870    3.2470 N.am  128  PRO128     -0.2727
    200  CA        17.2200    3.5100    2.3240 C.3   128  PRO128      0.1402
    201  C         18.6380    3.9080    1.9400 C.2   128  PRO128      0.2269
    202  O         18.8590    4.3070    0.8150 O.2   128  PRO128     -0.2865
    203  CB        16.5750    4.6480    3.1100 C.3   128  PRO128      0.0296
    204  CG        15.8710    4.0240    4.2450 C.3   128  PRO128      0.0237
    205  CD        16.5350    2.7140    4.5230 C.3   128  PRO128      0.0939
@<TRIPOS>BOND
     1   202   201    2
     2   191   190    2
     3   182   183    1
     4   175   173   ar
     5   175   177   ar
     6   201   200    1
     7   183   184    1
     8   183   186    1
     9   173   172   ar
    10   200   203    1
    11   200   199    1
    12   187   186    1
    13   177   176   ar
    14   184   185    2
    15   184   188   am
    16   190   199   am
    17   190   189    1
    18   203   204    1
    19    41    42    1
    20   199   205    1
    21   188   189    1
    22   172   171    1
    23   172   174   ar
    24    19    18   ar
    25    19    17   ar
    26    47    45    1
    27   176   174   ar
    28    18    16   ar
    29   171   168    1
    30    42    45    1
    31    42    43    1
    32   189   192    1
    33    17    15   ar
    34   204   205    1
    35   181   180    2
    36   168   169    1
    37   168   167    1
    38   170   169    2
    39    45    46    1
    40   192   193    1
    41   180   179    1
    42    32    33    1
    43   169   178   am
    44     3     2    1
    45     3     4    2
    46    16    14   ar
    47    43    44    2
    48    28    26   ar
    49    28    30   ar
    50     2     1    1
    51     2     5    1
    52    15    14   ar
    53     9    10    1
    54    26    25   ar
    55    34    33    1
    56    34    35    2
    57   178   179    1
    58    14    13    1
    59   167   164   am
    60    20    21    1
    61     7     6    2
    62    33    36    1
    63    21    22    1
    64    21    24    1
    65    31    30    1
    66   193   195   ar
    67   193   194   ar
    68    23    22    2
    69    30    29   ar
    70     6     5    1
    71     6     8   am
    72    10    13    1
    73    10    11    1
    74   195   197   ar
    75    25    24    1
    76    25    27   ar
    77   194   196   ar
    78   161   159    1
    79   164   165    2
    80   164   163    1
    81    29    27   ar
    82    36    37    1
    83   197   198   ar
    84   160   159    1
    85    11    12    2
    86   196   198   ar
    87    48    49    1
    88   159   158    1
    89   163   166    1
    90   163   162    1
    91   133   132    1
    92    37    38    1
    93    49    50    1
    94    49    52    1
    95   158   155    1
    96   119   117    1
    97    38    39   ar
    98    38    40   ar
    99    73    70    1
   100    50    51    2
   101   132   131    1
   102    72    71    2
   103   155   154    1
   104   155   156    1
   105    91    89    1
   106    96    93    1
   107   153   150    1
   108   154   151   am
   109   131   130    1
   110   147   146    2
   111    89    88    1
   112   117   116    1
   113   117   118    1
   114    81    80    1
   115    81    82    1
   116   124   125    1
   117   124   121    1
   118   151   152    2
   119   151   150    1
   120    70    71    1
   121    70    69    1
   122   116   113    1
   123    71    74   am
   124   157   156    2
   125    90    88    1
   126   110   109   ar
   127   111   109   ar
   128    64    63    2
   129   103   101    1
   130   150   149    1
   131    80    76   am
   132    84    82   am
   133    84    85    1
   134   148   146   am
   135   146   145    1
   136   149   143   am
   137    93    92    1
   138    93    94    1
   139    88    85    1
   140    82    83    2
   141   109   108    1
   142    76    77    2
   143    76    75    1
   144   130   127    1
   145    69    63   am
   146   121   120    1
   147   121   122    1
   148   120   114   am
   149    63    62    1
   150    74    75    1
   151    68    66   am
   152   113   114    1
   153   113   112    1
   154    94    97   am
   155    94    95    2
   156    85    86    1
   157   114   115    2
   158   112   106   am
   159    97    98    1
   160    75    78    1
   161   126   127    1
   162   143   142    1
   163   143   144    2
   164   127   128    1
   165    66    65    1
   166    66    67    2
   167   101    98    1
   168   101   102    1
   169    65    62    1
   170   145   142    1
   171   142   141    1
   172    98    99    1
   173    86    87    2
   174   108   105    1
   175   122   123    2
   176    62    61    1
   177    59    58   ar
   178   105   106    1
   179   105   104    1
   180   106   107    2
   181   137   136    2
   182    61    55   am
   183    78    79    1
   184   128   129    2
   185   141   136   am
   186    58    60   ar
   187    58    57    1
   188    99   100    2
   189   136   135    1
   190    55    56    2
   191    55    54    1
   192    54    57    1
   193    54    53    1
   194   139   138    1
   195   135   138    1
   196   135   134    1
   197   138   140    1
