@<TRIPOS>MOLECULE
tmp/5egrA00.pdb
 132 122 0 0 0
SMALL
GASTEIGER

@<TRIPOS>ATOM
      1  N        100.7440   10.3640   12.1730 N.3    35  VAL35      -0.1245
      2  CA       100.0820   11.3140   13.0440 C.3    35  VAL35       0.1561
      3  C         98.6410   11.5350   12.6010 C.2    35  VAL35       0.2260
      4  O         98.3670   11.7970   11.4210 O.2    35  VAL35      -0.2867
      5  CB       100.8640   12.6280   13.0890 C.3    35  VAL35       0.0252
      6  CG1      100.1300   13.6700   13.9270 C.3    35  VAL35       0.0019
      7  CG2      102.2540   12.3680   13.6590 C.3    35  VAL35       0.0019
      8  N         99.6640    8.0280   16.2600 N.3    58  LEU58      -0.1245
      9  CA        99.6420    9.0560   17.2900 C.3    58  LEU58       0.1561
     10  C         98.3590    9.8500   17.1580 C.2    58  LEU58       0.2260
     11  O         97.9840   10.2910   16.0670 O.2    58  LEU58      -0.2867
     12  CB       100.8680    9.9670   17.1800 C.3    58  LEU58       0.0270
     13  CG       101.0240   11.1190   18.1900 C.3    58  LEU58       0.0019
     14  CD1      102.4890   11.4240   18.4010 C.3    58  LEU58       0.0001
     15  CD2      100.3140   12.3840   17.6820 C.3    58  LEU58       0.0001
     16  N         96.5240   13.2570   18.1960 N.3    60  ASN60      -0.1240
     17  CA        96.7280   14.5680   18.7740 C.3    60  ASN60       0.1653
     18  C         95.5650   14.8690   19.6880 C.2    60  ASN60       0.2266
     19  O         94.4000   14.6810   19.3360 O.2    60  ASN60      -0.2867
     20  CB        96.8780   15.6440   17.7020 C.3    60  ASN60       0.1155
     21  CG        98.3260   15.9300   17.3750 C.2    60  ASN60       0.2627
     22  OD1       99.0830   16.4040   18.2250 O.2    60  ASN60      -0.2716
     23  ND2       98.7240   15.6420   16.1410 N.am   60  ASN60      -0.0877
     24  N         99.4430   12.3420   22.6260 N.3    92  ASP92      -0.1225
     25  CA       100.2940   13.3740   23.1930 C.3    92  ASP92       0.1805
     26  C         99.5250   14.0950   24.2940 C.2    92  ASP92       0.2598
     27  O         98.3030   13.9760   24.3830 O.2    92  ASP92      -0.2718
     28  CB       100.7550   14.3430   22.1100 C.3    92  ASP92       0.1424
     29  CG       102.0210   15.0650   22.4860 C.2    92  ASP92       0.3668
     30  OD1      102.5160   14.8950   23.6340 O.co2  92  ASP92      -0.2456
     31  OD2      102.5100   15.8150   21.6220 O.co2  92  ASP92      -0.2456
     32  N        100.2310   14.8470   25.1280 N.am   93  SER93      -0.1952
     33  CA        99.6500   15.3380   26.3710 C.3    93  SER93       0.1924
     34  C         98.9390   16.6940   26.2530 C.2    93  SER93       0.2314
     35  O         98.2020   17.0780   27.1590 O.2    93  SER93      -0.2863
     36  CB       100.7290   15.3980   27.4450 C.3    93  SER93       0.2116
     37  OG       101.9120   16.0060   26.9620 O.3    93  SER93      -0.2180
     38  N        102.1250   20.8890   25.4350 N.3    96  TYR96      -0.1227
     39  CA       103.2290   21.2590   24.5580 C.3    96  TYR96       0.1736
     40  C        102.7190   21.9770   23.3130 C.2    96  TYR96       0.2595
     41  O        103.2060   23.0530   22.9630 O.2    96  TYR96      -0.2718
     42  CB       104.0500   20.0300   24.1450 C.3    96  TYR96       0.0548
     43  CG       105.2930   20.4060   23.3580 C.ar   96  TYR96      -0.0200
     44  CD1      105.2430   20.5930   21.9830 C.ar   96  TYR96      -0.0009
     45  CD2      106.5100   20.5960   24.0000 C.ar   96  TYR96      -0.0009
     46  CE1      106.3710   20.9590   21.2690 C.ar   96  TYR96       0.0417
     47  CE2      107.6460   20.9570   23.2940 C.ar   96  TYR96       0.0417
     48  CZ       107.5710   21.1380   21.9320 C.ar   96  TYR96       0.1957
     49  OH       108.6990   21.5010   21.2310 O.3    96  TYR96      -0.2866
     50  N        101.7420   21.3730   22.6420 N.am   97  GLN97      -0.1979
     51  CA       101.1920   21.9390   21.4130 C.3    97  GLN97       0.1601
     52  C        100.4850   23.2670   21.6640 C.2    97  GLN97       0.2287
     53  O        100.5880   24.1870   20.8550 O.2    97  GLN97      -0.2864
     54  CB       100.2210   20.9570   20.7520 C.3    97  GLN97       0.0394
     55  CG       100.8290   19.6500   20.2470 C.3    97  GLN97       0.0908
     56  CD       101.9330   19.8780   19.2480 C.2    97  GLN97       0.2608
     57  OE1      101.7160   20.6080   18.2610 O.2    97  GLN97      -0.2717
     58  NE2      103.1080   19.4020   19.5170 N.am   97  GLN97      -0.0878
     59  N        103.9900   17.7630   29.7610 N.3   135  ASP135     -0.1239
     60  CA       105.2140   18.5440   29.8280 C.3   135  ASP135      0.1674
     61  C        105.0150   19.9480   29.2720 C.2   135  ASP135      0.2266
     62  O        104.0080   20.2430   28.6350 O.2   135  ASP135     -0.2867
     63  CB       106.3390   17.8400   29.0740 C.3   135  ASP135      0.1410
     64  CG       106.0230   17.6540   27.6040 C.2   135  ASP135      0.3668
     65  OD1      104.8250   17.5630   27.2580 O.co2 135  ASP135     -0.2456
     66  OD2      106.9700   17.6010   26.7900 O.co2 135  ASP135     -0.2456
     67  N        108.7800   12.3650   29.5930 N.3   180  ILE180     -0.1245
     68  CA       109.4130   13.1380   28.5210 C.3   180  ILE180      0.1561
     69  C        110.6020   13.9080   29.0680 C.2   180  ILE180      0.2260
     70  O        110.4500   14.7690   29.9420 O.2   180  ILE180     -0.2867
     71  CB       108.4210   14.1040   27.8460 C.3   180  ILE180      0.0252
     72  CG1      107.1930   13.3530   27.3380 C.3   180  ILE180      0.0019
     73  CG2      109.1000   14.8340   26.6650 C.3   180  ILE180      0.0019
     74  CD1      106.0980   14.2730   26.7580 C.3   180  ILE180      0.0001
     75  N        113.4110   16.6720   29.0440 N.3   182  GLN182     -0.1245
     76  CA       113.5840   18.0100   28.4970 C.3   182  GLN182      0.1566
     77  C        114.9750   18.5200   28.8750 C.2   182  GLN182      0.2260
     78  O        115.8470   17.7290   29.2470 O.2   182  GLN182     -0.2867
     79  CB       112.4760   18.9510   28.9930 C.3   182  GLN182      0.0367
     80  CG       111.0660   18.5860   28.4850 C.3   182  GLN182      0.0905
     81  CD       110.8690   18.8620   26.9890 C.2   182  GLN182      0.2608
     82  OE1      111.7040   19.5010   26.3480 O.2   182  GLN182     -0.2717
     83  NE2      109.7560   18.3890   26.4390 N.am  182  GLN182     -0.0878
     84  N        112.0540   14.8850   24.3690 N.3   208  GLY208     -0.1210
     85  CA       111.2460   16.0060   23.9360 C.3   208  GLY208      0.1956
     86  C        112.1230   17.2070   23.6770 C.2   208  GLY208      0.2612
     87  O        113.3210   17.1760   23.9570 O.2   208  GLY208     -0.2717
     88  N        111.5260   18.2530   23.1210 N.am  209  GLY209     -0.1942
     89  CA       112.1970   19.5340   22.9790 C.3   209  GLY209      0.2014
     90  C        113.2120   19.6160   21.8530 C.2   209  GLY209      0.2638
     91  O        114.0380   20.5350   21.8340 O.2   209  GLY209     -0.2714
     92  N        113.1670   18.6620   20.9310 N.am  210  LEU210     -0.1977
     93  CA       114.0720   18.7030   19.7840 C.3   210  LEU210      0.1596
     94  C        113.2890   18.8850   18.4850 C.2   210  LEU210      0.2287
     95  O        112.0560   18.9020   18.4930 O.2   210  LEU210     -0.2864
     96  CB       114.9460   17.4450   19.7330 C.3   210  LEU210      0.0297
     97  CG       116.0130   17.3040   20.8320 C.3   210  LEU210      0.0022
     98  CD1      116.8900   16.0780   20.5860 C.3   210  LEU210      0.0001
     99  CD2      116.8670   18.5590   20.9450 C.3   210  LEU210      0.0001
    100  N        110.3160   12.6030   19.8350 N.3   239  MET239     -0.1230
    101  CA       109.0420   13.2070   19.4620 C.3   239  MET239      0.1702
    102  C        109.1890   14.1670   18.2820 C.2   239  MET239      0.2592
    103  O        110.0540   15.0330   18.2890 O.2   239  MET239     -0.2718
    104  CB       108.4310   13.9350   20.6650 C.3   239  MET239      0.0401
    105  CG       108.3320   13.0490   21.9140 C.3   239  MET239      0.0596
    106  SD       107.3110   13.7500   23.2480 S.3   239  MET239     -0.1393
    107  CE       105.6710   13.4390   22.6190 C.3   239  MET239      0.0692
    108  N        108.3390   13.9960   17.2670 N.am  240  GLY240     -0.1957
    109  CA       108.2390   14.9490   16.1690 C.3   240  GLY240      0.1869
    110  C        109.2850   14.8690   15.0690 C.2   240  GLY240      0.2309
    111  O        109.4360   15.7970   14.2670 O.2   240  GLY240     -0.2863
    112  N        107.4960    9.9180   15.4760 N.3   259  ASP259     -0.1225
    113  CA       106.2620   10.4140   14.8660 C.3   259  ASP259      0.1805
    114  C        106.5830   11.7000   14.1300 C.2   259  ASP259      0.2598
    115  O        107.4630   12.4480   14.5410 O.2   259  ASP259     -0.2718
    116  CB       105.1730   10.6710   15.9060 C.3   259  ASP259      0.1424
    117  CG       105.3570   11.9990   16.6190 C.2   259  ASP259      0.3668
    118  OD1      106.1090   12.0360   17.6230 O.co2 259  ASP259     -0.2456
    119  OD2      104.7660   13.0080   16.1780 O.co2 259  ASP259     -0.2456
    120  N        105.9290   11.9580   13.0020 N.am  260  CYS260     -0.1956
    121  CA       105.9850   13.3010   12.4420 C.3   260  CYS260      0.1843
    122  C        104.9460   13.4270   11.3620 C.2   260  CYS260      0.2625
    123  O        104.5250   12.4280   10.7800 O.2   260  CYS260     -0.2714
    124  CB       107.3690   13.6430   11.8780 C.3   260  CYS260      0.0997
    125  SG       107.7640   12.8630   10.3220 S.3   260  CYS260     -0.0797
    126  N        104.5480   14.6620   11.1030 N.am  261  VAL261     -0.1977
    127  CA       103.5190   14.9610   10.1080 C.3   261  VAL261      0.1596
    128  C        104.0890   15.0420    8.6900 C.2   261  VAL261      0.2287
    129  O        103.3280   15.1680    7.7490 O.2   261  VAL261     -0.2864
    130  CB       102.7660   16.2750   10.4190 C.3   261  VAL261      0.0276
    131  CG1      102.0540   16.1860   11.7580 C.3   261  VAL261      0.0022
    132  CG2      103.7120   17.4630   10.3620 C.3   261  VAL261      0.0022
@<TRIPOS>BOND
     1   129   128    2
     2   128   127    1
     3   127   130    1
     4   127   126    1
     5   125   124    1
     6   132   130    1
     7   130   131    1
     8   123   122    2
     9   126   122   am
    10   122   121    1
    11     4     3    2
    12   124   121    1
    13     1     2    1
    14   121   120    1
    15     3     2    1
    16   120   114   am
    17     2     5    1
    18     5     7    1
    19     5     6    1
    20   114   115    2
    21   114   113    1
    22   111   110    2
    23   113   112    1
    24   113   116    1
    25   110   109    1
    26   116   117    1
    27    11    10    2
    28    23    21   am
    29   109   108    1
    30   119   117   ar
    31     8     9    1
    32   117   118   ar
    33    10     9    1
    34    12     9    1
    35    12    13    1
    36   108   102   am
    37    21    20    1
    38    21    22    2
    39    15    13    1
    40    20    17    1
    41    13    14    1
    42    16    17    1
    43    57    56    2
    44   102   103    2
    45   102   101    1
    46    94    95    2
    47    94    93    1
    48    17    18    1
    49    56    58   am
    50    56    55    1
    51    19    18    2
    52   101   100    1
    53   101   104    1
    54    96    93    1
    55    96    97    1
    56    93    92    1
    57    55    54    1
    58    98    97    1
    59   104   105    1
    60    54    51    1
    61    97    99    1
    62    53    52    2
    63    92    90   am
    64    49    48    1
    65    46    48   ar
    66    46    44   ar
    67    51    52    1
    68    51    50    1
    69    31    29   ar
    70    91    90    2
    71    90    89    1
    72   105   106    1
    73    48    47   ar
    74    44    43   ar
    75    28    29    1
    76    28    25    1
    77    29    30   ar
    78   107   106    1
    79    24    25    1
    80    50    40   am
    81    41    40    2
    82    89    88    1
    83    88    86   am
    84    25    26    1
    85    47    45   ar
    86    40    39    1
    87    43    45   ar
    88    43    42    1
    89    86    85    1
    90    86    87    2
    91    85    84    1
    92    42    39    1
    93    26    27    2
    94    26    32   am
    95    39    38    1
    96    32    33    1
    97    34    33    1
    98    34    35    2
    99    82    81    2
   100    33    36    1
   101    83    81   am
   102    73    71    1
   103    74    72    1
   104    66    64   ar
   105    37    36    1
   106    81    80    1
   107    65    64   ar
   108    72    71    1
   109    64    63    1
   110    71    68    1
   111    80    79    1
   112    76    77    1
   113    76    79    1
   114    76    75    1
   115    68    69    1
   116    68    67    1
   117    62    61    2
   118    77    78    2
   119    69    70    2
   120    63    60    1
   121    61    60    1
   122    59    60    1
