@<TRIPOS>MOLECULE
tmp/5egsA02.pdb
 122 114 0 0 0
SMALL
GASTEIGER

@<TRIPOS>ATOM
      1  N          7.3300  -27.0630    8.3690 N.3   124  LEU124     -0.1245
      2  CA         7.9330  -27.6180    7.1340 C.3   124  LEU124      0.1561
      3  C          7.5370  -26.8950    5.8160 C.2   124  LEU124      0.2260
      4  O          8.0790  -27.2390    4.7730 O.2   124  LEU124     -0.2867
      5  CB         7.6010  -29.1250    7.0560 C.3   124  LEU124      0.0270
      6  CG         8.1560  -30.0030    8.1980 C.3   124  LEU124      0.0019
      7  CD1        7.5420  -31.4260    8.0830 C.3   124  LEU124      0.0001
      8  CD2        9.6890  -30.0410    8.1560 C.3   124  LEU124      0.0001
      9  N         10.0440  -25.9290    2.8200 N.3   127  SER127     -0.1217
     10  CA        10.8740  -27.0780    2.6760 C.3   127  SER127      0.1889
     11  C         12.3350  -26.6690    2.7690 C.2   127  SER127      0.2288
     12  O         13.2140  -27.2950    2.1480 O.2   127  SER127     -0.2866
     13  CB        10.6170  -27.8580    1.3240 C.3   127  SER127      0.2089
     14  OG        11.2820  -29.1340    1.4710 O.3   127  SER127     -0.2183
     15  N         14.1020  -27.3550    5.1260 N.3   129  LEU129     -0.1231
     16  CA        14.8290  -28.3950    5.7740 C.3   129  LEU129      0.1693
     17  C         15.7240  -29.1890    4.8420 C.2   129  LEU129      0.2592
     18  O         16.7890  -29.5810    5.2300 O.2   129  LEU129     -0.2718
     19  CB        13.9100  -29.2900    6.6410 C.3   129  LEU129      0.0284
     20  CG        14.6570  -30.3760    7.4650 C.3   129  LEU129      0.0019
     21  CD1       15.7210  -29.7360    8.3760 C.3   129  LEU129      0.0001
     22  CD2       13.6830  -31.2590    8.2690 C.3   129  LEU129      0.0001
     23  N         15.3020  -29.3950    3.6060 N.am  130  SER130     -0.1952
     24  CA        16.0700  -30.0990    2.5920 C.3   130  SER130      0.1924
     25  C         17.4400  -29.5130    2.3550 C.2   130  SER130      0.2314
     26  O         18.4930  -30.2320    2.2450 O.2   130  SER130     -0.2863
     27  CB        15.3160  -29.9980    1.3030 C.3   130  SER130      0.2116
     28  OG        14.0920  -30.6300    1.4790 O.3   130  SER130     -0.2180
     29  N         19.7720  -30.2380    5.4780 N.3   133  LEU133     -0.1245
     30  CA        20.2420  -31.6410    5.4340 C.3   133  LEU133      0.1561
     31  C         21.2440  -31.8810    4.3510 C.2   133  LEU133      0.2260
     32  O         22.1790  -32.6610    4.5540 O.2   133  LEU133     -0.2867
     33  CB        19.0610  -32.6440    5.3030 C.3   133  LEU133      0.0270
     34  CG        18.0630  -32.5990    6.5400 C.3   133  LEU133      0.0019
     35  CD1       16.8410  -33.4980    6.4170 C.3   133  LEU133      0.0001
     36  CD2       18.7700  -32.8420    7.8740 C.3   133  LEU133      0.0001
     37  N         16.7160  -37.6960    5.2760 N.3   226  GLU226     -0.1245
     38  CA        16.4510  -37.0420    3.9880 C.3   226  GLU226      0.1567
     39  C         15.4110  -37.8390    3.1710 C.2   226  GLU226      0.2260
     40  O         14.3760  -37.2530    2.7560 O.2   226  GLU226     -0.2867
     41  CB        17.7760  -36.8320    3.2020 C.3   226  GLU226      0.0388
     42  CG        18.2010  -35.3880    3.1220 C.3   226  GLU226      0.1160
     43  CD        19.6870  -35.1410    2.8050 C.2   226  GLU226      0.3649
     44  OE1       20.5570  -35.8420    3.3470 O.co2 226  GLU226     -0.2457
     45  OE2       20.0460  -34.2010    2.0610 O.co2 226  GLU226     -0.2457
     46  N         11.9020  -38.4420    4.8230 N.3   229  LEU229     -0.1231
     47  CA        11.0400  -37.2400    4.6700 C.3   229  LEU229      0.1693
     48  C         10.4210  -36.9410    3.2620 C.2   229  LEU229      0.2591
     49  O          9.4880  -36.1280    3.1230 O.2   229  LEU229     -0.2718
     50  CB        11.8600  -36.0190    5.1380 C.3   229  LEU229      0.0284
     51  CG        11.8810  -35.5260    6.6170 C.3   229  LEU229      0.0019
     52  CD1       11.7870  -36.6140    7.6710 C.3   229  LEU229      0.0001
     53  CD2       13.0920  -34.6450    6.9000 C.3   229  LEU229      0.0001
     54  N         10.9490  -37.5810    2.2160 N.am  230  GLU230     -0.1979
     55  CA        10.2910  -37.5610    0.8770 C.3   230  GLU230      0.1602
     56  C          8.8080  -38.0170    0.9830 C.2   230  GLU230      0.2287
     57  O          7.9140  -37.3570    0.4660 O.2   230  GLU230     -0.2864
     58  CB        11.0690  -38.4220   -0.1560 C.3   230  GLU230      0.0415
     59  CG        12.3170  -37.6850   -0.6930 C.3   230  GLU230      0.1163
     60  CD        13.1890  -38.6110   -1.5100 C.2   230  GLU230      0.3649
     61  OE1       12.6280  -39.6730   -1.8650 O.co2 230  GLU230     -0.2457
     62  OE2       14.3330  -38.2450   -1.7440 O.co2 230  GLU230     -0.2457
     63  N          6.9180  -38.0090    3.6060 N.3   232  GLY232     -0.1210
     64  CA         6.1010  -37.1920    4.5090 C.3   232  GLY232      0.1956
     65  C          6.3330  -37.5940    5.9750 C.2   232  GLY232      0.2611
     66  O          6.8000  -38.7060    6.2230 O.2   232  GLY232     -0.2717
     67  N          5.9970  -36.7280    6.9490 N.am  233  VAL233     -0.1979
     68  CA         6.0520  -37.1300    8.3510 C.3   233  VAL233      0.1595
     69  C          4.6860  -36.9760    9.0000 C.2   233  VAL233      0.2287
     70  O          3.8450  -36.1620    8.6050 O.2   233  VAL233     -0.2864
     71  CB         7.1250  -36.3440    9.1980 C.3   233  VAL233      0.0276
     72  CG1        8.5190  -36.6090    8.6990 C.3   233  VAL233      0.0022
     73  CG2        6.9170  -34.8480    9.1700 C.3   233  VAL233      0.0022
     74  N          2.2150  -34.5440    6.9960 N.3   303  LEU303     -0.1231
     75  CA         2.6870  -33.3210    6.4350 C.3   303  LEU303      0.1693
     76  C          3.5910  -33.7700    5.2810 C.2   303  LEU303      0.2592
     77  O          4.5080  -34.5370    5.5090 O.2   303  LEU303     -0.2718
     78  CB         3.5580  -32.6110    7.4420 C.3   303  LEU303      0.0284
     79  CG         2.8540  -31.5160    8.2330 C.3   303  LEU303      0.0019
     80  CD1        1.7120  -32.1290    9.0090 C.3   303  LEU303      0.0001
     81  CD2        3.8520  -30.8420    9.1530 C.3   303  LEU303      0.0001
     82  N          3.3370  -33.3180    4.0640 N.am  304  LEU304     -0.1966
     83  CA         4.1590  -33.7380    2.9050 C.3   304  LEU304      0.1713
     84  C          4.2480  -32.6040    1.8260 C.2   304  LEU304      0.2458
     85  O          3.4520  -31.6700    1.8510 O.2   304  LEU304     -0.2730
     86  CB         3.7350  -35.0910    2.3440 C.3   304  LEU304      0.0310
     87  CG         2.5440  -35.0950    1.4140 C.3   304  LEU304      0.0022
     88  CD1        2.3360  -36.4650    0.7210 C.3   304  LEU304      0.0001
     89  CD2        1.3250  -34.5820    2.1730 C.3   304  LEU304      0.0001
     90  N          5.2890  -32.6340    0.9780 N.am  305  PRO305     -0.2727
     91  CA         5.3960  -31.6480   -0.1130 C.3   305  PRO305      0.1402
     92  C          4.2260  -31.7400   -1.0810 C.2   305  PRO305      0.2269
     93  O          3.8880  -32.8170   -1.4100 O.2   305  PRO305     -0.2865
     94  CB         6.6910  -32.0800   -0.8560 C.3   305  PRO305      0.0296
     95  CG         7.5240  -32.7290    0.2300 C.3   305  PRO305      0.0237
     96  CD         6.4950  -33.4770    1.0710 C.3   305  PRO305      0.0939
     97  N          7.1560  -28.4830   -4.4320 N.3   310  PRO310     -0.2102
     98  CA         7.7500  -29.1340   -3.2910 C.3   310  PRO310      0.1504
     99  C          7.9440  -28.2330   -2.0910 C.2   310  PRO310      0.2575
    100  O          7.9670  -28.7070   -0.9930 O.2   310  PRO310     -0.2718
    101  CB         9.0650  -29.7210   -3.8310 C.3   310  PRO310      0.0282
    102  CG         9.3820  -28.9110   -5.0190 C.3   310  PRO310      0.0208
    103  CD         8.0560  -28.5050   -5.6080 C.3   310  PRO310      0.0893
    104  N          8.0080  -26.9240   -2.2740 N.am  311  ARG311     -0.1980
    105  CA         8.1660  -26.0190   -1.1710 C.3   311  ARG311      0.1597
    106  C          6.8220  -25.6800   -0.5030 C.2   311  ARG311      0.2287
    107  O          6.7810  -24.9530    0.5130 O.2   311  ARG311     -0.2864
    108  CB         8.8220  -24.6870   -1.6460 C.3   311  ARG311      0.0334
    109  CG        10.2660  -24.7710   -2.0900 C.3   311  ARG311      0.0492
    110  CD        10.8030  -23.3510   -2.2080 C.3   311  ARG311      0.2205
    111  NE        12.1620  -23.4030   -2.6410 N.pl3 311  ARG311     -0.0865
    112  CZ        13.2040  -23.6030   -1.8580 C.cat 311  ARG311      0.5346
    113  NH1       13.0680  -23.7270   -0.5210 N.pl3 311  ARG311      0.1354
    114  NH2       14.4230  -23.6070   -2.3790 N.pl3 311  ARG311      0.1354
    115  N          3.6850  -26.7570    1.6540 N.3   313  LEU313     -0.1245
    116  CA         3.1970  -27.8270    2.6090 C.3   313  LEU313      0.1561
    117  C          1.7710  -28.2630    2.2880 C.2   313  LEU313      0.2260
    118  O          0.8460  -27.4560    2.0790 O.2   313  LEU313     -0.2867
    119  CB         3.2250  -27.3750    4.0430 C.3   313  LEU313      0.0270
    120  CG         2.7800  -28.3770    5.1210 C.3   313  LEU313      0.0019
    121  CD1        3.7130  -29.5760    5.0970 C.3   313  LEU313      0.0001
    122  CD2        2.8570  -27.6240    6.4380 C.3   313  LEU313      0.0001
@<TRIPOS>BOND
     1   103   102    1
     2   103    97    1
     3   102   101    1
     4    97    98    1
     5   101    98    1
     6    98    99    1
     7   111   110    1
     8   111   112    2
     9   114   112    1
    10   104    99   am
    11   104   105    1
    12   110   109    1
    13    99   100    2
    14   109   108    1
    15    61    60   ar
    16   112   113    1
    17    62    60   ar
    18   108   105    1
    19    60    59    1
    20    93    92    2
    21   105   106    1
    22    92    91    1
    23    94    91    1
    24    94    95    1
    25    59    58    1
    26   106   107    2
    27    58    55    1
    28    91    90    1
    29    95    96    1
    30    57    56    2
    31    88    87    1
    32    55    56    1
    33    55    54    1
    34    90    96    1
    35    90    84   am
    36    27    28    1
    37    27    24    1
    38    13    14    1
    39    13    10    1
    40    87    89    1
    41    87    86    1
    42   115   116    1
    43    84    85    2
    44    84    83    1
    45    45    43   ar
    46   118   117    2
    47    12    11    2
    48    54    48   am
    49    26    25    2
    50   117   116    1
    51    86    83    1
    52    25    24    1
    53    24    23    1
    54   116   119    1
    55    10    11    1
    56    10     9    1
    57    40    39    2
    58    43    42    1
    59    43    44   ar
    60    83    82    1
    61    42    41    1
    62    49    48    2
    63    39    38    1
    64    41    38    1
    65    48    47    1
    66    23    17   am
    67    63    64    1
    68    38    37    1
    69   119   120    1
    70    82    76   am
    71    31    32    2
    72    31    30    1
    73    64    65    1
    74    47    46    1
    75    47    50    1
    76     4     3    2
    77    17    18    2
    78    17    16    1
    79   121   120    1
    80   120   122    1
    81    15    16    1
    82    50    51    1
    83    76    77    2
    84    76    75    1
    85    33    30    1
    86    33    34    1
    87    30    29    1
    88    16    19    1
    89     3     2    1
    90    65    66    2
    91    65    67   am
    92    35    34    1
    93    75    74    1
    94    75    78    1
    95    34    36    1
    96    51    53    1
    97    51    52    1
    98    19    20    1
    99    67    68    1
   100     5     2    1
   101     5     6    1
   102     2     1    1
   103    78    79    1
   104    20    22    1
   105    20    21    1
   106     7     6    1
   107     8     6    1
   108    79    80    1
   109    79    81    1
   110    68    69    1
   111    68    71    1
   112    70    69    2
   113    72    71    1
   114    73    71    1
