@<TRIPOS>MOLECULE
tmp/5egsA01.pdb
 152 153 0 0 0
SMALL
GASTEIGER

@<TRIPOS>ATOM
      1  N         11.0200  -17.8750   -4.6580 N.3     9  TYR9       -0.1241
      2  CA        11.1160  -18.1650   -3.2370 C.3     9  TYR9        0.1605
      3  C         12.2050  -17.2630   -2.5690 C.2     9  TYR9        0.2264
      4  O         11.9290  -16.5810   -1.5740 O.2     9  TYR9       -0.2867
      5  CB        11.4100  -19.6400   -3.0250 C.3     9  TYR9        0.0534
      6  CG        11.8150  -19.9350   -1.6480 C.ar    9  TYR9       -0.0201
      7  CD1       10.9180  -19.7650   -0.6200 C.ar    9  TYR9       -0.0009
      8  CD2       13.1280  -20.3370   -1.3460 C.ar    9  TYR9       -0.0009
      9  CE1       11.2810  -20.0140    0.6690 C.ar    9  TYR9        0.0417
     10  CE2       13.5110  -20.6070   -0.0490 C.ar    9  TYR9        0.0417
     11  CZ        12.5590  -20.4400    0.9890 C.ar    9  TYR9        0.1957
     12  OH        12.8820  -20.6130    2.3410 O.3     9  TYR9       -0.2866
     13  N         11.2480  -13.6030   -1.9890 N.3    12  CYS12      -0.1221
     14  CA        10.4300  -13.2680   -0.8220 C.3    12  CYS12       0.1808
     15  C         11.2490  -12.8370    0.3700 C.2    12  CYS12       0.2601
     16  O         10.6470  -12.4420    1.3260 O.2    12  CYS12      -0.2717
     17  CB         9.6070  -14.4600   -0.3750 C.3    12  CYS12       0.0970
     18  SG         8.5270  -15.0530   -1.6950 S.3    12  CYS12      -0.0800
     19  N         12.5710  -13.0700    0.3820 N.am   13  TYR13      -0.1976
     20  CA        13.4650  -12.7290    1.4790 C.3    13  TYR13       0.1639
     21  C         14.3470  -11.4970    1.1460 C.2    13  TYR13       0.2290
     22  O         15.1220  -11.0960    1.9470 O.2    13  TYR13      -0.2864
     23  CB        14.3410  -13.9380    1.8830 C.3    13  TYR13       0.0560
     24  CG        13.5610  -14.9830    2.6930 C.ar   13  TYR13      -0.0198
     25  CD1       13.1620  -16.2060    2.1410 C.ar   13  TYR13      -0.0009
     26  CD2       13.1770  -14.7200    4.0170 C.ar   13  TYR13      -0.0009
     27  CE1       12.4470  -17.1310    2.8940 C.ar   13  TYR13       0.0417
     28  CE2       12.4570  -15.6340    4.7670 C.ar   13  TYR13       0.0417
     29  CZ        12.0920  -16.8590    4.2040 C.ar   13  TYR13       0.1957
     30  OH        11.3970  -17.7610    4.9860 O.3    13  TYR13      -0.2866
     31  N         10.0580   -8.9090    6.1580 N.3    18  VAL18      -0.1245
     32  CA        10.1650  -10.2330    6.7110 C.3    18  VAL18       0.1561
     33  C         11.3430  -10.3020    7.6650 C.2    18  VAL18       0.2260
     34  O         11.2620  -10.9960    8.6890 O.2    18  VAL18      -0.2867
     35  CB        10.2620  -11.3280    5.5930 C.3    18  VAL18       0.0252
     36  CG1       11.5750  -11.2130    4.8670 C.3    18  VAL18       0.0019
     37  CG2       10.1220  -12.7450    6.1540 C.3    18  VAL18       0.0019
     38  N         10.2430   -8.5420   10.7300 N.3    21  GLU21      -0.1231
     39  CA         9.3030   -9.3910   11.4280 C.3    21  GLU21       0.1699
     40  C         10.0860  -10.4970   12.2130 C.2    21  GLU21       0.2592
     41  O          9.8710  -10.6680   13.4070 O.2    21  GLU21      -0.2718
     42  CB         8.3270   -9.9970   10.4670 C.3    21  GLU21       0.0402
     43  CG         7.2020  -10.7010   11.2130 C.3    21  GLU21       0.1161
     44  CD         6.3980  -11.6260   10.3370 C.2    21  GLU21       0.3649
     45  OE1        6.8340  -11.9200    9.1940 O.co2  21  GLU21      -0.2457
     46  OE2        5.3160  -12.0570   10.7800 O.co2  21  GLU21      -0.2457
     47  N         11.0200  -11.1710   11.5490 N.am   22  MET22      -0.1979
     48  CA        11.8010  -12.1960   12.2290 C.3    22  MET22       0.1605
     49  C         12.6430  -11.7180   13.3940 C.2    22  MET22       0.2287
     50  O         12.7360  -12.3680   14.4400 O.2    22  MET22      -0.2864
     51  CB        12.6660  -12.9430   11.2260 C.3    22  MET22       0.0413
     52  CG        11.8660  -13.8380   10.2830 C.3    22  MET22       0.0598
     53  SD        12.9570  -14.8190    9.2700 S.3    22  MET22      -0.1393
     54  CE        13.8210  -13.5970    8.2760 C.3    22  MET22       0.0692
     55  N         17.9950  -21.0550   10.9170 N.3   117  GLU117     -0.1231
     56  CA        16.5710  -20.8950   11.1860 C.3   117  GLU117      0.1699
     57  C         15.8590  -21.0940    9.8490 C.2   117  GLU117      0.2592
     58  O         15.7140  -20.1650    9.0330 O.2   117  GLU117     -0.2718
     59  CB        16.2530  -19.5440   11.8540 C.3   117  GLU117      0.0402
     60  CG        14.8860  -19.5060   12.5910 C.3   117  GLU117      0.1161
     61  CD        13.7740  -19.2830   11.6230 C.2   117  GLU117      0.3649
     62  OE1       13.4690  -18.1020   11.2980 O.co2 117  GLU117     -0.2457
     63  OE2       13.1980  -20.2900   11.1620 O.co2 117  GLU117     -0.2457
     64  N         15.3200  -22.3110    9.7090 N.am  118  TRP118     -0.1962
     65  CA        14.8110  -22.9180    8.4690 C.3   118  TRP118      0.1771
     66  C         13.3360  -23.2440    8.5610 C.2   118  TRP118      0.2620
     67  O         12.7370  -23.7390    7.5820 O.2   118  TRP118     -0.2715
     68  CB        15.5750  -24.2540    8.2030 C.3   118  TRP118      0.0590
     69  CG        15.6400  -25.1810    9.3570 C.ar  118  TRP118      0.0006
     70  CD1       16.6750  -25.3060   10.2570 C.ar  118  TRP118      0.0946
     71  CD2       14.6650  -26.1320    9.7550 C.ar  118  TRP118      0.0152
     72  NE1       16.4020  -26.2840   11.1850 N.ar  118  TRP118     -0.2442
     73  CE2       15.1690  -26.7990   10.9110 C.ar  118  TRP118      0.0810
     74  CE3       13.4140  -26.4890    9.2690 C.ar  118  TRP118      0.0012
     75  CZ2       14.4430  -27.7740   11.5920 C.ar  118  TRP118      0.0191
     76  CZ3       12.7260  -27.4820    9.9300 C.ar  118  TRP118      0.0001
     77  CH2       13.2390  -28.1110   11.0720 C.ar  118  TRP118      0.0015
     78  N         12.7710  -22.9790    9.7460 N.am  119  MET119     -0.1963
     79  CA        11.4080  -23.3660   10.0620 C.3   119  MET119      0.1736
     80  C         10.4240  -22.4770    9.3840 C.2   119  MET119      0.2617
     81  O         10.4200  -21.2500    9.5600 O.2   119  MET119     -0.2715
     82  CB        11.1990  -23.3780   11.5470 C.3   119  MET119      0.0427
     83  CG        12.0550  -24.4560   12.1980 C.3   119  MET119      0.0599
     84  SD        13.6920  -23.8490   12.7380 S.3   119  MET119     -0.1393
     85  CE        13.3030  -22.7760   14.0890 C.3   119  MET119      0.0692
     86  N          9.5860  -23.1030    8.5580 N.am  120  GLY120     -0.1940
     87  CA         8.4470  -22.4100    7.9850 C.3   120  GLY120      0.2014
     88  C          7.1890  -22.4890    8.8850 C.2   120  GLY120      0.2638
     89  O          7.2070  -23.0920    9.9650 O.2   120  GLY120     -0.2714
     90  N          6.0920  -21.9150    8.3800 N.am  121  TYR121     -0.1973
     91  CA         4.7730  -22.1540    8.9290 C.3   121  TYR121      0.1639
     92  C          4.4840  -23.5880    8.9030 C.2   121  TYR121      0.2290
     93  O          4.7480  -24.2350    7.8850 O.2   121  TYR121     -0.2864
     94  CB         3.6810  -21.4540    8.1550 C.3   121  TYR121      0.0560
     95  CG         3.7020  -19.9390    8.1570 C.ar  121  TYR121     -0.0198
     96  CD1        3.8300  -19.2070    9.3760 C.ar  121  TYR121     -0.0009
     97  CD2        3.5810  -19.2030    6.9380 C.ar  121  TYR121     -0.0009
     98  CE1        3.8050  -17.8330    9.3520 C.ar  121  TYR121      0.0417
     99  CE2        3.5910  -17.8170    6.9260 C.ar  121  TYR121      0.0417
    100  CZ         3.6730  -17.1470    8.1620 C.ar  121  TYR121      0.1957
    101  OH         3.7320  -15.7570    8.2410 O.3   121  TYR121     -0.2866
    102  N          6.5830  -25.9370    5.8560 N.3   125  HIS125     -0.1226
    103  CA         6.3510  -25.0720    4.7040 C.3   125  HIS125      0.1752
    104  C          7.6860  -24.3860    4.3480 C.2   125  HIS125      0.2595
    105  O          8.4890  -24.1410    5.2250 O.2   125  HIS125     -0.2718
    106  CB         5.2910  -24.0500    4.9880 C.3   125  HIS125      0.0759
    107  CG         4.8790  -23.2500    3.8070 C.ar  125  HIS125      0.0818
    108  ND1        4.3390  -23.8250    2.6960 N.ar  125  HIS125     -0.2268
    109  CD2        4.9200  -21.9100    3.5500 C.ar  125  HIS125      0.1154
    110  CE1        4.0350  -22.8960    1.7990 C.ar  125  HIS125      0.1986
    111  NE2        4.3990  -21.7180    2.2930 N.ar  125  HIS125     -0.2212
    112  N          7.8640  -24.1240    3.0710 N.am  126  GLU126     -0.1979
    113  CA         9.1020  -23.7100    2.3880 C.3   126  GLU126      0.1602
    114  C         10.0630  -24.8720    2.0140 C.2   126  GLU126      0.2287
    115  O         10.8300  -24.7750    1.0630 O.2   126  GLU126     -0.2864
    116  CB         9.8670  -22.6330    3.1550 C.3   126  GLU126      0.0415
    117  CG         9.0510  -21.3340    3.4600 C.3   126  GLU126      0.1163
    118  CD         9.8270  -20.4200    4.4280 C.2   126  GLU126      0.3649
    119  OE1       11.0290  -20.0770    4.1530 O.co2 126  GLU126     -0.2457
    120  OE2        9.2290  -20.0610    5.4720 O.co2 126  GLU126     -0.2457
    121  N         12.6240  -25.6780    3.6160 N.3   128  MET128     -0.1245
    122  CA        14.0120  -25.3170    3.7410 C.3   128  MET128      0.1570
    123  C         14.7810  -26.4480    4.4330 C.2   128  MET128      0.2261
    124  O         15.9770  -26.4780    4.3230 O.2   128  MET128     -0.2867
    125  CB        14.2430  -23.9740    4.4350 C.3   128  MET128      0.0387
    126  CG        15.6630  -23.3930    4.2520 C.3   128  MET128      0.0595
    127  SD        15.8550  -21.8340    5.1080 S.3   128  MET128     -0.1393
    128  CE        17.6180  -21.7900    5.3820 C.3   128  MET128      0.0692
    129  N          6.1820  -15.2670   15.5580 N.3   277  HIS277     -0.1226
    130  CA         5.6030  -14.9030   14.2560 C.3   277  HIS277      0.1752
    131  C          5.1040  -16.1060   13.4850 C.2   277  HIS277      0.2596
    132  O          4.4070  -15.9420   12.4970 O.2   277  HIS277     -0.2718
    133  CB         6.5650  -14.1180   13.4040 C.3   277  HIS277      0.0759
    134  CG         7.5750  -14.9690   12.6940 C.ar  277  HIS277      0.0818
    135  ND1        8.6180  -15.5770   13.3590 N.ar  277  HIS277     -0.2268
    136  CD2        7.6750  -15.3440   11.3900 C.ar  277  HIS277      0.1154
    137  CE1        9.3380  -16.2810   12.4930 C.ar  277  HIS277      0.1986
    138  NE2        8.7620  -16.1900   11.2990 N.ar  277  HIS277     -0.2212
    139  N          5.4540  -17.3150   13.9020 N.am  278  TRP278     -0.1976
    140  CA         4.8340  -18.5050   13.2850 C.3   278  TRP278      0.1640
    141  C          3.3670  -18.6730   13.6500 C.2   278  TRP278      0.2290
    142  O          2.6370  -19.3540   12.9530 O.2   278  TRP278     -0.2864
    143  CB         5.5530  -19.7810   13.7190 C.3   278  TRP278      0.0576
    144  CG         6.8530  -19.9400   13.0130 C.ar  278  TRP278      0.0006
    145  CD1        7.0310  -20.2750   11.6700 C.ar  278  TRP278      0.0946
    146  CD2        8.1460  -19.6580   13.5280 C.ar  278  TRP278      0.0152
    147  NE1        8.3500  -20.3100   11.3900 N.ar  278  TRP278     -0.2442
    148  CE2        9.0630  -19.9360   12.5050 C.ar  278  TRP278      0.0810
    149  CE3        8.6300  -19.2530   14.7760 C.ar  278  TRP278      0.0012
    150  CZ2       10.4270  -19.8110   12.6790 C.ar  278  TRP278      0.0191
    151  CZ3       10.0210  -19.1780   14.9470 C.ar  278  TRP278      0.0001
    152  CH2       10.8880  -19.3970   13.8860 C.ar  278  TRP278      0.0015
@<TRIPOS>BOND
     1     1     2    1
     2     2     5    1
     3     2     3    1
     4     5     6    1
     5     3     4    2
     6    13    14    1
     7    18    17    1
     8     6     8   ar
     9     6     7   ar
    10     8    10   ar
    11    14    17    1
    12    14    15    1
    13     7     9   ar
    14    10    11   ar
    15    15    19   am
    16    15    16    2
    17    19    20    1
    18     9    11   ar
    19    11    12    1
    20   115   114    2
    21    21    20    1
    22    21    22    2
    23    20    23    1
    24   110   111   ar
    25   110   108   ar
    26    23    24    1
    27   114   113    1
    28    25    24   ar
    29    25    27   ar
    30   111   109   ar
    31   113   112    1
    32   113   116    1
    33    24    26   ar
    34   108   107   ar
    35    27    29   ar
    36   112   104   am
    37   116   117    1
    38   117   118    1
    39   109   107   ar
    40   121   122    1
    41   122   123    1
    42   122   125    1
    43   107   106    1
    44    26    28   ar
    45   119   118   ar
    46    29    28   ar
    47    29    30    1
    48   126   125    1
    49   126   127    1
    50   124   123    2
    51   104   103    1
    52   104   105    2
    53   118   120   ar
    54   103   106    1
    55   103   102    1
    56    36    35    1
    57   127   128    1
    58    35    37    1
    59    35    32    1
    60    31    32    1
    61    32    33    1
    62    99    97   ar
    63    99   100   ar
    64    97    95   ar
    65    67    66    2
    66    33    34    2
    67    93    92    2
    68    87    86    1
    69    87    88    1
    70    94    95    1
    71    94    91    1
    72    95    96   ar
    73   100   101    1
    74   100    98   ar
    75    68    65    1
    76    68    69    1
    77    54    53    1
    78    90    88   am
    79    90    91    1
    80    65    66    1
    81    65    64    1
    82    86    80   am
    83    66    78   am
    84    88    89    2
    85    92    91    1
    86    58    57    2
    87    45    44   ar
    88    74    71   ar
    89    74    76   ar
    90    53    52    1
    91    98    96   ar
    92    69    71   ar
    93    69    70   ar
    94    80    81    2
    95    80    79    1
    96    64    57   am
    97    78    79    1
    98    71    73   ar
    99    57    56    1
   100    76    77   ar
   101    79    82    1
   102    70    72   ar
   103    52    51    1
   104    44    46   ar
   105    44    43    1
   106    42    43    1
   107    42    39    1
   108    38    39    1
   109    73    72   ar
   110    73    75   ar
   111    55    56    1
   112    77    75   ar
   113    63    61   ar
   114    56    59    1
   115    51    48    1
   116    62    61   ar
   117   138   136   ar
   118   138   137   ar
   119   136   134   ar
   120   147   145   ar
   121   147   148   ar
   122    39    40    1
   123    82    83    1
   124    47    40   am
   125    47    48    1
   126    61    60    1
   127   145   144   ar
   128    59    60    1
   129    83    84    1
   130    40    41    2
   131    48    49    1
   132   137   135   ar
   133   132   131    2
   134   148   150   ar
   135   148   146   ar
   136   150   152   ar
   137   134   135   ar
   138   134   133    1
   139    84    85    1
   140   142   141    2
   141   144   146   ar
   142   144   143    1
   143   140   141    1
   144   140   143    1
   145   140   139    1
   146    49    50    2
   147   133   130    1
   148   131   139   am
   149   131   130    1
   150   146   149   ar
   151   152   151   ar
   152   130   129    1
   153   149   151   ar
