@<TRIPOS>MOLECULE
tmp/5eguC01.pdb
 151 149 0 0 0
SMALL
GASTEIGER

@<TRIPOS>ATOM
      1  N         19.6740   15.6480   21.4770 N.3    22  TRP22      -0.1228
      2  CA        19.4790   14.5100   22.3690 C.3    22  TRP22       0.1722
      3  C         18.5400   13.3800   21.8600 C.2    22  TRP22       0.2437
      4  O         18.8260   12.2320   22.0660 O.2    22  TRP22      -0.2733
      5  CB        19.1040   14.9490   23.8000 C.3    22  TRP22       0.0563
      6  CG        17.8110   15.5560   23.9350 C.ar   22  TRP22       0.0003
      7  CD1       17.5350   16.8890   23.9220 C.ar   22  TRP22       0.0946
      8  CD2       16.5670   14.8880   24.0700 C.ar   22  TRP22       0.0152
      9  NE1       16.1660   17.0940   24.0430 N.ar   22  TRP22      -0.2442
     10  CE2       15.5540   15.8830   24.0980 C.ar   22  TRP22       0.0810
     11  CE3       16.1860   13.5400   24.1190 C.ar   22  TRP22       0.0012
     12  CZ2       14.2140   15.5740   24.2200 C.ar   22  TRP22       0.0191
     13  CZ3       14.8580   13.2320   24.2470 C.ar   22  TRP22       0.0001
     14  CH2       13.8800   14.2420   24.2970 C.ar   22  TRP22       0.0015
     15  N         17.4260   13.6880   21.1840 N.am   23  PRO23      -0.2718
     16  CA        16.5900   12.5600   20.7000 C.3    23  PRO23       0.1535
     17  C         17.2360   11.7020   19.6240 C.2    23  PRO23       0.2598
     18  O         16.7620   10.5970   19.3590 O.2    23  PRO23      -0.2715
     19  CB        15.3510   13.2570   20.1040 C.3    23  PRO23       0.0310
     20  CG        15.3610   14.6220   20.7660 C.3    23  PRO23       0.0237
     21  CD        16.8220   14.9670   20.8590 C.3    23  PRO23       0.0939
     22  N         18.3050   12.2160   19.0040 N.am   24  PHE24      -0.1974
     23  CA        18.9150   11.6250   17.8570 C.3    24  PHE24       0.1639
     24  C         20.2740   11.0240   18.1170 C.2    24  PHE24       0.2290
     25  O         20.9170   10.5800   17.1480 O.2    24  PHE24      -0.2864
     26  CB        19.0020   12.6750   16.7600 C.3    24  PHE24       0.0560
     27  CG        17.7180   13.3450   16.4950 C.ar   24  PHE24      -0.0200
     28  CD1       16.7730   12.7390   15.7350 C.ar   24  PHE24      -0.0042
     29  CD2       17.4180   14.5920   17.0910 C.ar   24  PHE24      -0.0042
     30  CE1       15.5350   13.3500   15.5220 C.ar   24  PHE24      -0.0003
     31  CE2       16.1810   15.1990   16.8870 C.ar   24  PHE24      -0.0003
     32  CZ        15.2400   14.5870   16.1010 C.ar   24  PHE24      -0.0000
     33  N         21.0810    8.2560   19.7860 N.3    26  GLN26      -0.1231
     34  CA        21.0540    6.8300   20.0550 C.3    26  GLN26       0.1683
     35  C         19.8850    6.2630   19.2950 C.2    26  GLN26       0.2434
     36  O         18.9220    6.9710   19.0510 O.2    26  GLN26      -0.2733
     37  CB        20.8900    6.5170   21.5550 C.3    26  GLN26       0.0380
     38  CG        19.5370    7.0310   22.1220 C.3    26  GLN26       0.0905
     39  CD        19.4930    8.5510   22.3750 C.2    26  GLN26       0.2608
     40  OE1       20.3750    9.0910   23.0650 O.2    26  GLN26      -0.2717
     41  NE2       18.5100    9.2430   21.8030 N.am   26  GLN26      -0.0878
     42  N         19.9500    4.9700   18.9400 N.am   27  PRO27      -0.2718
     43  CA        18.7900    4.3230   18.3720 C.3    27  PRO27       0.1535
     44  C         17.5350    4.4480   19.2630 C.2    27  PRO27       0.2598
     45  O         17.6470    4.4250   20.5020 O.2    27  PRO27      -0.2715
     46  CB        19.1940    2.8260   18.2790 C.3    27  PRO27       0.0310
     47  CG        20.5970    2.7090   18.6790 C.3    27  PRO27       0.0237
     48  CD        21.0360    4.0320   19.2830 C.3    27  PRO27       0.0939
     49  N         16.3630    4.5120   18.6300 N.am   28  VAL28      -0.1964
     50  CA        15.1150    4.7070   19.3420 C.3    28  VAL28       0.1727
     51  C         14.7590    3.5470   20.2520 C.2    28  VAL28       0.2616
     52  O         14.6860    2.3660   19.8470 O.2    28  VAL28      -0.2715
     53  CB        13.9500    5.0310   18.3910 C.3    28  VAL28       0.0290
     54  CG1       12.6200    4.9820   19.1010 C.3    28  VAL28       0.0023
     55  CG2       14.1590    6.3940   17.7440 C.3    28  VAL28       0.0023
     56  N         14.5850    3.8990   21.5250 N.am   29  ASP29      -0.1971
     57  CA        14.0120    2.9480   22.4840 C.3    29  ASP29       0.1709
     58  C         12.5890    3.4030   22.6360 C.2    29  ASP29       0.2293
     59  O         12.3380    4.4310   23.2440 O.2    29  ASP29      -0.2864
     60  CB        14.7840    2.9450   23.8010 C.3    29  ASP29       0.1436
     61  CG        14.2300    1.9420   24.7810 C.2    29  ASP29       0.3671
     62  OD1       13.0030    1.6560   24.7210 O.co2  29  ASP29      -0.2456
     63  OD2       15.0230    1.4340   25.5860 O.co2  29  ASP29      -0.2456
     64  N         11.0070    3.2250   26.4410 N.3    32  LYS32      -0.1231
     65  CA        11.4800    4.3990   27.1630 C.3    32  LYS32       0.1693
     66  C         10.9760    5.7570   26.7740 C.2    32  LYS32       0.2591
     67  O         10.7050    6.5580   27.6610 O.2    32  LYS32      -0.2718
     68  CB        12.9970    4.4360   27.1930 C.3    32  LYS32       0.0285
     69  CG        13.5910    3.4550   28.1870 C.3    32  LYS32       0.0035
     70  CD        15.1170    3.6790   28.3590 C.3    32  LYS32       0.0206
     71  CE        15.8200    2.4480   28.9750 C.3    32  LYS32       0.1093
     72  NZ        17.2750    2.4230   28.5380 N.3    32  LYS32      -0.1314
     73  N         10.8600    6.0380   25.4860 N.am   33  LEU33      -0.1980
     74  CA        10.2960    7.2980   25.0470 C.3    33  LEU33       0.1596
     75  C          8.8300    7.1540   24.6510 C.2    33  LEU33       0.2287
     76  O          8.2710    8.1080   24.1070 O.2    33  LEU33      -0.2864
     77  CB        11.1120    7.8600   23.8860 C.3    33  LEU33       0.0297
     78  CG        12.3150    8.7110   24.2980 C.3    33  LEU33       0.0022
     79  CD1       11.8330    9.9920   24.9490 C.3    33  LEU33       0.0001
     80  CD2       13.1960    7.9080   25.2510 C.3    33  LEU33       0.0001
     81  N          6.7500    5.4400   22.3550 N.3    35  LEU35      -0.1245
     82  CA         6.4200    5.7740   20.9670 C.3    35  LEU35       0.1561
     83  C          5.7050    4.5580   20.3770 C.2    35  LEU35       0.2260
     84  O          6.3510    3.6750   19.7610 O.2    35  LEU35      -0.2867
     85  CB         7.6950    6.0940   20.1980 C.3    35  LEU35       0.0270
     86  CG         8.5860    7.1720   20.8360 C.3    35  LEU35       0.0019
     87  CD1        9.9180    7.2070   20.1250 C.3    35  LEU35       0.0001
     88  CD2        7.9240    8.5350   20.7570 C.3    35  LEU35       0.0001
     89  N          6.4810    2.4050   16.8490 N.3    38  TYR38      -0.1241
     90  CA         7.5680    3.0800   16.1630 C.3    38  TYR38       0.1605
     91  C          8.1740    2.1210   15.1490 C.2    38  TYR38       0.2264
     92  O          8.3450    2.4640   13.9640 O.2    38  TYR38      -0.2867
     93  CB         8.6300    3.5930   17.1480 C.3    38  TYR38       0.0534
     94  CG         9.6340    4.4210   16.4450 C.ar   38  TYR38      -0.0201
     95  CD1        9.4350    5.7650   16.2760 C.ar   38  TYR38      -0.0009
     96  CD2       10.7920    3.8490   15.9180 C.ar   38  TYR38      -0.0009
     97  CE1       10.3680    6.5630   15.6080 C.ar   38  TYR38       0.0417
     98  CE2       11.7670    4.6450   15.2520 C.ar   38  TYR38       0.0417
     99  CZ        11.5400    5.9940   15.0800 C.ar   38  TYR38       0.1957
    100  OH        12.4000    6.7670   14.3980 O.3    38  TYR38      -0.2866
    101  N         11.8370   10.8350   11.2880 N.3    77  CYS77      -0.1235
    102  CA        11.2160   11.7030   12.2680 C.3    77  CYS77       0.1677
    103  C         10.0260   12.3900   11.6200 C.2    77  CYS77       0.2270
    104  O          9.0080   12.4880   12.2210 O.2    77  CYS77      -0.2867
    105  CB        12.1940   12.7450   12.7720 C.3    77  CYS77       0.0956
    106  SG        11.5110   13.8530   14.0440 S.3    77  CYS77      -0.0801
    107  N          7.1540    9.5660   11.2640 N.3    80  TYR80      -0.1227
    108  CA         6.5120    9.0000   12.4120 C.3    80  TYR80       0.1736
    109  C          5.6320   10.0460   13.1040 C.2    80  TYR80       0.2595
    110  O          4.6490    9.7000   13.6910 O.2    80  TYR80      -0.2718
    111  CB         7.5410    8.4830   13.4250 C.3    80  TYR80       0.0548
    112  CG         6.9110    7.9310   14.7010 C.ar   80  TYR80      -0.0200
    113  CD1        6.2350    6.7050   14.6910 C.ar   80  TYR80      -0.0009
    114  CD2        6.9460    8.6410   15.8960 C.ar   80  TYR80      -0.0009
    115  CE1        5.6610    6.1970   15.8340 C.ar   80  TYR80       0.0417
    116  CE2        6.3770    8.1280   17.0660 C.ar   80  TYR80       0.0417
    117  CZ         5.7130    6.9200   17.0080 C.ar   80  TYR80       0.1957
    118  OH         5.1150    6.3880   18.1110 O.3    80  TYR80      -0.2866
    119  N          6.0470   11.3090   13.0840 N.am   81  ASN81      -0.1960
    120  CA         5.4070   12.3640   13.8860 C.3    81  ASN81       0.1819
    121  C          4.6120   13.2630   12.9340 C.2    81  ASN81       0.2621
    122  O          4.4950   12.9510   11.7640 O.2    81  ASN81      -0.2715
    123  CB         6.4850   13.1510   14.6190 C.3    81  ASN81       0.1195
    124  CG         7.3460   12.2780   15.4720 C.2    81  ASN81       0.2630
    125  OD1        6.9330   11.8720   16.5480 O.2    81  ASN81      -0.2716
    126  ND2        8.5710   11.9720   15.0130 N.am   81  ASN81      -0.0877
    127  N          4.1280   14.4070   13.4140 N.am   82  LYS82      -0.1977
    128  CA         3.2730   15.3050   12.6080 C.3    82  LYS82       0.1596
    129  C          3.8920   16.6770   12.4800 C.2    82  LYS82       0.2287
    130  O          4.6240   17.0940   13.3710 O.2    82  LYS82      -0.2864
    131  CB         1.8870   15.4160   13.2310 C.3    82  LYS82       0.0298
    132  CG         1.3210   14.0450   13.5690 C.3    82  LYS82       0.0038
    133  CD         1.5800   13.7130   15.0370 C.3    82  LYS82       0.0206
    134  CE         2.0560   12.3030   15.3360 C.3    82  LYS82       0.1093
    135  NZ         2.8510   12.3600   16.6120 N.3    82  LYS82      -0.1314
    136  N          4.9080   19.2300   15.3070 N.3    85  ASP85      -0.1239
    137  CA         5.4270   18.5740   16.5380 C.3    85  ASP85       0.1674
    138  C          6.7900   19.1950   16.9350 C.2    85  ASP85       0.2266
    139  O          7.6380   19.4680   16.0750 O.2    85  ASP85      -0.2867
    140  CB         5.5760   17.0340   16.4050 C.3    85  ASP85       0.1410
    141  CG         4.2390   16.2790   16.5450 C.2    85  ASP85       0.3668
    142  OD1        3.2140   16.8730   16.8700 O.co2  85  ASP85      -0.2456
    143  OD2        4.2220   15.0540   16.4120 O.co2  85  ASP85      -0.2456
    144  N          9.3300   17.6480   18.2250 N.3    87  ILE87      -0.1245
    145  CA        10.4120   16.7730   17.7270 C.3    87  ILE87       0.1561
    146  C         10.6610   17.0150   16.2040 C.2    87  ILE87       0.2260
    147  O         11.7960   16.9860   15.7590 O.2    87  ILE87      -0.2867
    148  CB        10.1290   15.2650   18.0600 C.3    87  ILE87       0.0252
    149  CG1       11.3700   14.3800   17.8360 C.3    87  ILE87       0.0019
    150  CG2        9.0050   14.6690   17.1970 C.3    87  ILE87       0.0019
    151  CD1       12.4690   14.5360   18.8220 C.3    87  ILE87       0.0001
@<TRIPOS>BOND
     1   107   108    1
     2   101   102    1
     3   103   104    2
     4   103   102    1
     5   122   121    2
     6   102   105    1
     7   108   109    1
     8   108   111    1
     9   129   128    1
    10   129   130    2
    11   128   131    1
    12   128   127    1
    13   105   106    1
    14   121   127   am
    15   121   120    1
    16   119   109   am
    17   119   120    1
    18   109   110    2
    19   131   132    1
    20   111   112    1
    21   132   133    1
    22   120   123    1
    23    92    91    2
    24   100    99    1
    25   123   124    1
    26   113   112   ar
    27   113   115   ar
    28   112   114   ar
    29   126   124   am
    30   133   134    1
    31    99    98   ar
    32    99    97   ar
    33    91    90    1
    34    98    96   ar
    35   136   137    1
    36   134   135    1
    37   124   125    2
    38    30    28   ar
    39    30    32   ar
    40    97    95   ar
    41    28    27   ar
    42   147   146    2
    43   115   117   ar
    44   114   116   ar
    45    96    94   ar
    46   139   138    2
    47    32    31   ar
    48    90    89    1
    49    90    93    1
    50   146   145    1
    51    95    94   ar
    52   140   137    1
    53   140   141    1
    54   143   141   ar
    55    94    93    1
    56    27    26    1
    57    27    29   ar
    58   137   138    1
    59   141   142   ar
    60    26    23    1
    61    31    29   ar
    62   117   116   ar
    63   117   118    1
    64    25    24    2
    65   150   148    1
    66   145   148    1
    67   145   144    1
    68    55    53    1
    69   149   148    1
    70   149   151    1
    71    23    24    1
    72    23    22    1
    73    46    43    1
    74    46    47    1
    75    43    42    1
    76    43    44    1
    77    53    54    1
    78    53    50    1
    79    49    44   am
    80    49    50    1
    81    47    48    1
    82    42    48    1
    83    42    35   am
    84    22    17   am
    85    36    35    2
    86    44    45    2
    87    35    34    1
    88    50    51    1
    89    18    17    2
    90    17    16    1
    91    84    83    2
    92    33    34    1
    93    52    51    2
    94    34    37    1
    95    19    16    1
    96    19    20    1
    97    87    86    1
    98    85    86    1
    99    85    82    1
   100    51    56   am
   101    83    82    1
   102    16    15    1
   103    88    86    1
   104    20    21    1
   105    21    15    1
   106    82    81    1
   107    15     3   am
   108     1     2    1
   109    56    57    1
   110    37    38    1
   111    41    39   am
   112     3     4    2
   113     3     2    1
   114    38    39    1
   115     2     5    1
   116    39    40    2
   117    57    58    1
   118    57    60    1
   119    58    59    2
   120     5     6    1
   121    60    61    1
   122    77    78    1
   123    77    74    1
   124     7     6   ar
   125     7     9   ar
   126     6     8   ar
   127     9    10   ar
   128     8    10   ar
   129     8    11   ar
   130    10    12   ar
   131    76    75    2
   132    11    13   ar
   133    12    14   ar
   134    13    14   ar
   135    78    79    1
   136    78    80    1
   137    75    74    1
   138    62    61   ar
   139    61    63   ar
   140    74    73    1
   141    73    66   am
   142    64    65    1
   143    66    65    1
   144    66    67    2
   145    65    68    1
   146    68    69    1
   147    69    70    1
   148    70    71    1
   149    72    71    1
