@<TRIPOS>MOLECULE
tmp/5egvB01.pdb
 165 152 0 0 0
SMALL
GASTEIGER

@<TRIPOS>ATOM
      1  N        -17.9110  -17.0470  -40.1250 N.3    34  MET34      -0.1245
      2  CA       -17.5220  -17.9530  -39.0510 C.3    34  MET34       0.1570
      3  C        -16.7970  -19.1630  -39.6350 C.2    34  MET34       0.2261
      4  O        -16.0650  -19.8620  -38.9350 O.2    34  MET34      -0.2867
      5  CB       -18.7420  -18.3990  -38.2420 C.3    34  MET34       0.0387
      6  CG       -18.5130  -19.3620  -37.0940 C.3    34  MET34       0.0595
      7  SD       -17.4730  -18.6580  -35.7910 S.3    34  MET34      -0.1393
      8  CE       -16.8980  -20.1690  -35.0140 C.3    34  MET34       0.0692
      9  N        -13.1850  -18.1500  -40.2220 N.3    37  LEU37      -0.1231
     10  CA       -12.5630  -18.2770  -38.9100 C.3    37  LEU37       0.1693
     11  C        -12.2580  -19.7420  -38.6190 C.2    37  LEU37       0.2592
     12  O        -11.2400  -20.0650  -38.0090 O.2    37  LEU37      -0.2718
     13  CB       -13.4640  -17.6950  -37.8190 C.3    37  LEU37       0.0284
     14  CG       -13.7470  -16.1920  -37.8820 C.3    37  LEU37       0.0019
     15  CD1      -14.6170  -15.7620  -36.7110 C.3    37  LEU37       0.0001
     16  CD2      -12.4560  -15.3900  -37.9170 C.3    37  LEU37       0.0001
     17  N        -13.1480  -20.6230  -39.0660 N.am   38  THR38      -0.1953
     18  CA       -12.9560  -22.0590  -38.9050 C.3    38  THR38       0.1897
     19  C        -11.8450  -22.5590  -39.8200 C.2    38  THR38       0.2313
     20  O        -10.9670  -23.3110  -39.3950 O.2    38  THR38      -0.2863
     21  CB       -14.2470  -22.8400  -39.2030 C.3    38  THR38       0.1794
     22  OG1      -15.2910  -22.3930  -38.3290 O.3    38  THR38      -0.2208
     23  CG2      -14.0270  -24.3320  -38.9990 C.3    38  THR38       0.0378
     24  N         -9.4540  -20.7820  -41.0990 N.3    40  LEU40      -0.1231
     25  CA        -8.2010  -20.1750  -40.6700 C.3    40  LEU40       0.1693
     26  C         -7.6380  -20.8820  -39.4430 C.2    40  LEU40       0.2591
     27  O         -6.4470  -21.1910  -39.3840 O.2    40  LEU40      -0.2718
     28  CB        -8.4040  -18.6890  -40.3750 C.3    40  LEU40       0.0284
     29  CG        -7.1770  -17.8530  -40.0190 C.3    40  LEU40       0.0019
     30  CD1       -6.1640  -17.8700  -41.1510 C.3    40  LEU40       0.0001
     31  CD2       -7.6030  -16.4330  -39.6950 C.3    40  LEU40       0.0001
     32  N         -8.5030  -21.1380  -38.4650 N.am   41  ALA41      -0.1980
     33  CA        -8.0900  -21.7920  -37.2290 C.3    41  ALA41       0.1597
     34  C         -7.6060  -23.2110  -37.4950 C.2    41  ALA41       0.2287
     35  O         -6.7080  -23.7060  -36.8150 O.2    41  ALA41      -0.2864
     36  CB        -9.2330  -21.8020  -36.2250 C.3    41  ALA41       0.0319
     37  N         -4.0420  -22.9220  -38.9760 N.3    44  GLU44      -0.1245
     38  CA        -3.1220  -22.5210  -37.9180 C.3    44  GLU44       0.1567
     39  C         -2.9250  -23.6440  -36.9050 C.2    44  GLU44       0.2260
     40  O         -1.8770  -23.7340  -36.2620 O.2    44  GLU44      -0.2867
     41  CB        -3.6180  -21.2580  -37.2120 C.3    44  GLU44       0.0388
     42  CG        -3.3370  -19.9750  -37.9740 C.3    44  GLU44       0.1160
     43  CD        -3.3400  -18.7530  -37.0770 C.2    44  GLU44       0.3649
     44  OE1       -4.3000  -18.5890  -36.2930 O.co2  44  GLU44      -0.2457
     45  OE2       -2.3760  -17.9590  -37.1510 O.co2  44  GLU44      -0.2457
     46  N         -5.0940  -26.0340  -27.1000 N.3    74  TRP74      -0.1227
     47  CA        -5.0230  -25.6760  -28.5150 C.3    74  TRP74       0.1737
     48  C         -5.7140  -24.3440  -28.7950 C.2    74  TRP74       0.2595
     49  O         -5.3430  -23.6300  -29.7250 O.2    74  TRP74      -0.2718
     50  CB        -5.6340  -26.7750  -29.3890 C.3    74  TRP74       0.0564
     51  CG        -7.1070  -26.9470  -29.2050 C.ar   74  TRP74       0.0003
     52  CD1       -7.7320  -27.7910  -28.3360 C.ar   74  TRP74       0.0946
     53  CD2       -8.1440  -26.2610  -29.9140 C.ar   74  TRP74       0.0152
     54  NE1       -9.0950  -27.6730  -28.4590 N.ar   74  TRP74      -0.2442
     55  CE2       -9.3740  -26.7390  -29.4210 C.ar   74  TRP74       0.0810
     56  CE3       -8.1520  -25.2880  -30.9180 C.ar   74  TRP74       0.0012
     57  CZ2      -10.5970  -26.2770  -29.8960 C.ar   74  TRP74       0.0191
     58  CZ3       -9.3680  -24.8300  -31.3870 C.ar   74  TRP74       0.0001
     59  CH2      -10.5730  -25.3260  -30.8770 C.ar   74  TRP74       0.0015
     60  N         -6.7140  -24.0110  -27.9850 N.am   75  LEU75      -0.1980
     61  CA        -7.4640  -22.7750  -28.1780 C.3    75  LEU75       0.1596
     62  C         -6.7870  -21.5980  -27.4870 C.2    75  LEU75       0.2287
     63  O         -6.8300  -20.4730  -27.9810 O.2    75  LEU75      -0.2864
     64  CB        -8.8990  -22.9350  -27.6700 C.3    75  LEU75       0.0297
     65  CG        -9.8460  -21.7480  -27.8720 C.3    75  LEU75       0.0022
     66  CD1       -9.7940  -21.2540  -29.3040 C.3    75  LEU75       0.0001
     67  CD2      -11.2670  -22.1320  -27.4930 C.3    75  LEU75       0.0001
     68  N         -4.0090  -20.4530  -29.8290 N.3    78  LEU78      -0.1231
     69  CA        -4.5630  -19.7260  -30.9670 C.3    78  LEU78       0.1693
     70  C         -4.9820  -18.3230  -30.5470 C.2    78  LEU78       0.2591
     71  O         -4.7500  -17.3540  -31.2670 O.2    78  LEU78      -0.2718
     72  CB        -5.7580  -20.4730  -31.5650 C.3    78  LEU78       0.0284
     73  CG        -5.4900  -21.7510  -32.3640 C.3    78  LEU78       0.0019
     74  CD1       -6.8000  -22.3600  -32.8460 C.3    78  LEU78       0.0001
     75  CD2       -4.5660  -21.4740  -33.5370 C.3    78  LEU78       0.0001
     76  N         -5.5900  -18.2230  -29.3700 N.am   79  MET79      -0.1979
     77  CA        -6.1050  -16.9510  -28.8790 C.3    79  MET79       0.1605
     78  C         -4.9950  -15.9870  -28.4660 C.2    79  MET79       0.2287
     79  O         -5.0920  -14.7860  -28.7190 O.2    79  MET79      -0.2864
     80  CB        -7.0620  -17.1810  -27.7050 C.3    79  MET79       0.0413
     81  CG        -8.4270  -17.7070  -28.1200 C.3    79  MET79       0.0598
     82  SD        -9.5900  -17.8010  -26.7440 S.3    79  MET79      -0.1393
     83  CE       -11.1020  -18.2120  -27.6070 C.3    79  MET79       0.0692
     84  N         -3.6270  -14.7340  -31.6690 N.3    82  LEU82      -0.1245
     85  CA        -4.5660  -13.7590  -32.2180 C.3    82  LEU82       0.1561
     86  C         -4.4210  -12.4160  -31.5120 C.2    82  LEU82       0.2260
     87  O         -4.4360  -11.3610  -32.1450 O.2    82  LEU82      -0.2867
     88  CB        -6.0030  -14.2790  -32.0900 C.3    82  LEU82       0.0270
     89  CG        -7.1770  -13.4830  -32.6730 C.3    82  LEU82       0.0019
     90  CD1       -7.7560  -12.5030  -31.6640 C.3    82  LEU82       0.0001
     91  CD2       -6.7730  -12.7570  -33.9450 C.3    82  LEU82       0.0001
     92  N         -1.0470  -10.7450  -32.4540 N.3    85  ARG85      -0.1245
     93  CA        -1.1390  -10.1470  -33.7810 C.3    85  ARG85       0.1563
     94  C         -1.9980   -8.8850  -33.7610 C.2    85  ARG85       0.2260
     95  O         -1.7090   -7.9150  -34.4600 O.2    85  ARG85      -0.2867
     96  CB        -1.7080  -11.1540  -34.7850 C.3    85  ARG85       0.0307
     97  CG        -0.6960  -12.1560  -35.3160 C.3    85  ARG85       0.0489
     98  CD        -1.2650  -13.5670  -35.3290 C.3    85  ARG85       0.2205
     99  NE        -2.6270  -13.6200  -35.8540 N.pl3  85  ARG85      -0.0865
    100  CZ        -3.3400  -14.7380  -35.9640 C.cat  85  ARG85       0.5346
    101  NH1       -2.8180  -15.8960  -35.5880 N.pl3  85  ARG85       0.1354
    102  NH2       -4.5730  -14.7010  -36.4490 N.pl3  85  ARG85       0.1354
    103  N         -7.2030  -11.3860  -37.2390 N.3    95  PHE95      -0.1241
    104  CA        -7.2210  -12.8190  -37.5020 C.3    95  PHE95       0.1605
    105  C         -6.2660  -13.1570  -38.6410 C.2    95  PHE95       0.2264
    106  O         -5.6120  -14.1990  -38.6360 O.2    95  PHE95      -0.2867
    107  CB        -8.6400  -13.2850  -37.8290 C.3    95  PHE95       0.0534
    108  CG        -9.5870  -13.2030  -36.6650 C.ar   95  PHE95      -0.0203
    109  CD1       -9.7760  -14.2950  -35.8320 C.ar   95  PHE95      -0.0042
    110  CD2      -10.2840  -12.0350  -36.3980 C.ar   95  PHE95      -0.0042
    111  CE1      -10.6450  -14.2260  -34.7570 C.ar   95  PHE95      -0.0003
    112  CE2      -11.1560  -11.9600  -35.3240 C.ar   95  PHE95      -0.0003
    113  CZ       -11.3350  -13.0570  -34.5030 C.ar   95  PHE95      -0.0000
    114  N        -20.7170  -14.6620  -29.9530 N.3   112  MET112     -0.1245
    115  CA       -19.3130  -14.5000  -30.3090 C.3   112  MET112      0.1570
    116  C        -18.7930  -13.1290  -29.8790 C.2   112  MET112      0.2261
    117  O        -17.6000  -12.9580  -29.6260 O.2   112  MET112     -0.2867
    118  CB       -19.1260  -14.6970  -31.8170 C.3   112  MET112      0.0387
    119  CG       -17.6980  -14.5450  -32.3140 C.3   112  MET112      0.0595
    120  SD       -16.5770  -15.8240  -31.7130 S.3   112  MET112     -0.1393
    121  CE       -17.2170  -17.2610  -32.5680 C.3   112  MET112      0.0692
    122  N        -16.7680  -12.9380  -26.7420 N.3   115  ILE115     -0.1245
    123  CA       -15.3990  -13.4170  -26.8920 C.3   115  ILE115      0.1561
    124  C        -14.5230  -12.3520  -27.5500 C.2   115  ILE115      0.2260
    125  O        -13.3450  -12.2110  -27.2200 O.2   115  ILE115     -0.2867
    126  CB       -15.3540  -14.7200  -27.7170 C.3   115  ILE115      0.0252
    127  CG1      -16.2250  -15.7900  -27.0560 C.3   115  ILE115      0.0019
    128  CG2      -13.9270  -15.2160  -27.8670 C.3   115  ILE115      0.0019
    129  CD1      -16.3050  -17.0830  -27.8320 C.3   115  ILE115      0.0001
    130  N        -10.9930  -10.7680  -26.1480 N.3   119  LEU119     -0.1245
    131  CA        -9.8010  -10.8120  -26.9890 C.3   119  LEU119      0.1561
    132  C         -9.2270   -9.4110  -27.1740 C.2   119  LEU119      0.2260
    133  O         -8.0100   -9.2290  -27.2090 O.2   119  LEU119     -0.2867
    134  CB       -10.1160  -11.4450  -28.3480 C.3   119  LEU119      0.0270
    135  CG       -10.1890  -12.9740  -28.4320 C.3   119  LEU119      0.0019
    136  CD1      -10.8810  -13.4270  -29.7090 C.3   119  LEU119      0.0001
    137  CD2       -8.8020  -13.5910  -28.3360 C.3   119  LEU119      0.0001
    138  N        -14.7010  -19.8360  -24.8710 N.3   204  GLY204     -0.1225
    139  CA       -14.5850  -19.8920  -26.3160 C.3   204  GLY204      0.1811
    140  C        -14.9440  -21.2470  -26.8890 C.2   204  GLY204      0.2280
    141  O        -15.5920  -21.3370  -27.9310 O.2   204  GLY204     -0.2866
    142  N        -17.8800  -23.1010  -29.4110 N.3   208  LEU208     -0.1245
    143  CA       -17.5990  -24.0170  -30.5090 C.3   208  LEU208      0.1561
    144  C        -18.5000  -25.2430  -30.4330 C.2   208  LEU208      0.2260
    145  O        -18.9330  -25.7720  -31.4570 O.2   208  LEU208     -0.2867
    146  CB       -16.1280  -24.4370  -30.5000 C.3   208  LEU208      0.0270
    147  CG       -15.1860  -23.6310  -31.3980 C.3   208  LEU208      0.0019
    148  CD1      -15.1490  -22.1600  -31.0050 C.3   208  LEU208      0.0001
    149  CD2      -13.7940  -24.2270  -31.3660 C.3   208  LEU208      0.0001
    150  N        -17.5160  -27.6630  -39.1440 N.3   219  LEU219     -0.1245
    151  CA       -16.1260  -27.3480  -38.8320 C.3   219  LEU219      0.1561
    152  C        -15.1870  -28.4540  -39.3080 C.2   219  LEU219      0.2260
    153  O        -15.6330  -29.4990  -39.7820 O.2   219  LEU219     -0.2867
    154  CB       -15.9520  -27.1180  -37.3300 C.3   219  LEU219      0.0270
    155  CG       -16.6280  -25.8940  -36.7640 C.3   219  LEU219      0.0019
    156  CD1      -18.0860  -25.8960  -36.7030 C.3   219  LEU219      0.0001
    157  CD2      -16.2220  -25.7320  -35.2600 C.3   219  LEU219      0.0001
    158  N        -10.6510  -30.1530  -36.0220 N.3   223  LEU223     -0.1245
    159  CA       -11.2260  -29.2250  -35.0580 C.3   223  LEU223      0.1561
    160  C        -12.2970  -29.9070  -34.2070 C.2   223  LEU223      0.2260
    161  O        -12.4370  -29.6130  -33.0190 O.2   223  LEU223     -0.2867
    162  CB       -11.8100  -28.0100  -35.7820 C.3   223  LEU223      0.0270
    163  CG       -11.9470  -26.7210  -34.9730 C.3   223  LEU223      0.0019
    164  CD1      -10.6240  -26.3660  -34.3240 C.3   223  LEU223      0.0001
    165  CD2      -12.4220  -25.5850  -35.8640 C.3   223  LEU223      0.0001
@<TRIPOS>BOND
     1    30    29    1
     2    24    25    1
     3    25    28    1
     4    25    26    1
     5    28    29    1
     6     9    10    1
     7     1     2    1
     8    29    31    1
     9    19    20    2
    10    19    18    1
    11   153   152    2
    12     3     2    1
    13     3     4    2
    14    26    27    2
    15    26    32   am
    16   152   151    1
    17    21    23    1
    18    21    18    1
    19    21    22    1
    20   150   151    1
    21    17    18    1
    22    17    11   am
    23     2     5    1
    24    37    38    1
    25    10    11    1
    26    10    13    1
    27   151   154    1
    28   105   106    2
    29   105   104    1
    30    11    12    2
    31    32    33    1
    32     5     6    1
    33    42    41    1
    34    42    43    1
    35    38    41    1
    36    38    39    1
    37    16    14    1
    38    14    13    1
    39    14    15    1
    40   107   104    1
    41   107   108    1
    42   104   103    1
    43    34    33    1
    44    34    35    2
    45   154   155    1
    46    33    36    1
    47    45    43   ar
    48     6     7    1
    49    43    44   ar
    50    39    40    2
    51   155   156    1
    52   155   157    1
    53   108   110   ar
    54   108   109   ar
    55   102   100    1
    56   110   112   ar
    57   158   159    1
    58   100    99    2
    59   100   101    1
    60   165   163    1
    61    99    98    1
    62   109   111   ar
    63     7     8    1
    64   162   159    1
    65   162   163    1
    66    98    97    1
    67   112   113   ar
    68    97    96    1
    69   159   160    1
    70   163   164    1
    71    96    93    1
    72   111   113   ar
    73    95    94    2
    74   160   161    2
    75    91    89    1
    76    93    94    1
    77    93    92    1
    78    75    73    1
    79    74    73    1
    80    89    88    1
    81    89    90    1
    82   121   120    1
    83    73    72    1
    84   119   118    1
    85   119   120    1
    86    85    88    1
    87    85    84    1
    88    85    86    1
    89    87    86    2
    90   118   115    1
    91    72    69    1
    92   145   144    2
    93   147   149    1
    94   147   148    1
    95   147   146    1
    96    58    56   ar
    97    58    59   ar
    98    71    70    2
    99    69    70    1
   100    69    68    1
   101    56    53   ar
   102    59    57   ar
   103    70    76   am
   104   143   146    1
   105   143   144    1
   106   143   142    1
   107   115   114    1
   108   115   116    1
   109    53    55   ar
   110    53    51   ar
   111    57    55   ar
   112   116   117    2
   113    49    48    2
   114   136   135    1
   115    55    54   ar
   116    50    51    1
   117    50    47    1
   118    76    77    1
   119    66    65    1
   120    51    52   ar
   121    77    78    1
   122    77    80    1
   123    48    47    1
   124    48    60   am
   125    79    78    2
   126    47    46    1
   127    54    52   ar
   128   135   134    1
   129   135   137    1
   130   134   131    1
   131    61    60    1
   132    61    64    1
   133    61    62    1
   134    81    80    1
   135    81    82    1
   136    63    62    2
   137   141   140    2
   138    65    64    1
   139    65    67    1
   140   128   126    1
   141   129   127    1
   142   126   127    1
   143   126   123    1
   144    83    82    1
   145   124   125    2
   146   124   123    1
   147   133   132    2
   148   132   131    1
   149   131   130    1
   150   123   122    1
   151   140   139    1
   152   139   138    1
