@<TRIPOS>MOLECULE
tmp/5eh0A00.pdb
 187 174 0 0 0
SMALL
GASTEIGER

@<TRIPOS>ATOM
      1  N          6.3480  -35.5420   -1.0200 N.3    14  LYS14      -0.1245
      2  CA         6.3400  -36.9380   -1.4670 C.3    14  LYS14       0.1561
      3  C          6.5150  -37.0530   -2.9770 C.2    14  LYS14       0.2260
      4  O          6.3430  -36.0700   -3.7010 O.2    14  LYS14      -0.2867
      5  CB         5.0510  -37.6710   -1.0200 C.3    14  LYS14       0.0271
      6  CG         3.7500  -37.0840   -1.5640 C.3    14  LYS14       0.0035
      7  CD         2.5920  -38.0680   -1.3700 C.3    14  LYS14       0.0206
      8  CE         2.1690  -38.7180   -2.6860 C.3    14  LYS14       0.1093
      9  NZ         1.1830  -39.8050   -2.4260 N.3    14  LYS14      -0.1314
     10  N          5.0040  -38.4790   -6.3520 N.3    16  ILE16      -0.1231
     11  CA         3.7130  -38.8500   -6.9240 C.3    16  ILE16       0.1692
     12  C          3.8320  -39.9470   -7.9750 C.2    16  ILE16       0.2592
     13  O          3.0800  -40.9110   -7.9670 O.2    16  ILE16      -0.2718
     14  CB         3.0430  -37.6370   -7.5890 C.3    16  ILE16       0.0266
     15  CG1        2.8140  -36.5270   -6.5710 C.3    16  ILE16       0.0019
     16  CG2        1.7330  -38.0360   -8.2460 C.3    16  ILE16       0.0020
     17  CD1        2.2860  -35.2510   -7.1820 C.3    16  ILE16       0.0001
     18  N          4.7480  -39.7610   -8.9160 N.am   17  GLY17      -0.1957
     19  CA         4.9130  -40.7140   -9.9930 C.3    17  GLY17       0.1869
     20  C          6.3380  -41.0450  -10.3710 C.2    17  GLY17       0.2309
     21  O          7.2600  -40.2670  -10.1360 O.2    17  GLY17      -0.2863
     22  N          7.9050  -37.0750  -10.5630 N.3    24  VAL24      -0.1245
     23  CA         6.9590  -35.9940  -10.2220 C.3    24  VAL24       0.1561
     24  C          6.8660  -35.9470   -8.6840 C.2    24  VAL24       0.2260
     25  O          6.5550  -36.9580   -8.0490 O.2    24  VAL24      -0.2867
     26  CB         5.5450  -36.0950  -10.8800 C.3    24  VAL24       0.0252
     27  CG1        4.6810  -34.8780  -10.5310 C.3    24  VAL24       0.0019
     28  CG2        5.6410  -36.2370  -12.3920 C.3    24  VAL24       0.0019
     29  N          5.3890  -33.8980   -5.1500 N.3    26  GLN26      -0.1245
     30  CA         4.4570  -32.9830   -4.5140 C.3    26  GLN26       0.1566
     31  C          5.3430  -32.1510   -3.5760 C.2    26  GLN26       0.2260
     32  O          6.0450  -32.7180   -2.7390 O.2    26  GLN26      -0.2867
     33  CB         3.4000  -33.7520   -3.7370 C.3    26  GLN26       0.0367
     34  CG         2.3310  -32.8580   -3.1600 C.3    26  GLN26       0.0905
     35  CD         1.3160  -33.6630   -2.4120 C.2    26  GLN26       0.2608
     36  OE1        1.6440  -34.4780   -1.5530 O.2    26  GLN26      -0.2717
     37  NE2        0.0600  -33.4850   -2.7600 N.am   26  GLN26      -0.0878
     38  N          3.5490  -29.1810   -7.9960 N.3    36  ALA36      -0.1245
     39  CA         4.0440  -30.4530   -8.4850 C.3    36  ALA36       0.1562
     40  C          5.2850  -30.0980   -9.2720 C.2    36  ALA36       0.2260
     41  O          5.2320  -29.2190  -10.1340 O.2    36  ALA36      -0.2867
     42  CB         3.0160  -31.1250   -9.3900 C.3    36  ALA36       0.0290
     43  N          8.0460  -31.5580  -11.7970 N.3    38  LYS38      -0.1245
     44  CA         8.4370  -32.6480  -12.6720 C.3    38  LYS38       0.1561
     45  C          9.9390  -32.4870  -12.9010 C.2    38  LYS38       0.2260
     46  O         10.4090  -31.3950  -13.2260 O.2    38  LYS38      -0.2867
     47  CB         7.6540  -32.6200  -13.9970 C.3    38  LYS38       0.0271
     48  CG         7.9310  -33.8030  -14.9070 C.3    38  LYS38       0.0035
     49  CD         6.9710  -33.7880  -16.0630 C.3    38  LYS38       0.0206
     50  CE         7.2150  -34.8920  -17.0500 C.3    38  LYS38       0.1093
     51  NZ         6.1550  -34.9050  -18.0930 N.3    38  LYS38      -0.1314
     52  N         -2.7700  -27.8860  -17.8830 N.3    71  ILE71      -0.1245
     53  CA        -2.1230  -27.7290  -16.5890 C.3    71  ILE71       0.1561
     54  C         -1.2520  -26.4870  -16.5070 C.2    71  ILE71       0.2260
     55  O         -0.5480  -26.1520  -17.4490 O.2    71  ILE71      -0.2867
     56  CB        -1.2670  -28.9640  -16.2660 C.3    71  ILE71       0.0252
     57  CG1       -0.7660  -28.9170  -14.8270 C.3    71  ILE71       0.0019
     58  CG2       -0.1060  -29.0770  -17.2370 C.3    71  ILE71       0.0019
     59  CD1       -0.1000  -30.1970  -14.3860 C.3    71  ILE71       0.0001
     60  N          4.7100  -26.9130  -11.6850 N.3    87  MET87      -0.1230
     61  CA         3.3380  -26.9960  -12.1490 C.3    87  MET87       0.1702
     62  C          2.3650  -27.0020  -10.9910 C.2    87  MET87       0.2592
     63  O          2.7550  -27.2060   -9.8270 O.2    87  MET87      -0.2718
     64  CB         3.1410  -28.2610  -12.9980 C.3    87  MET87       0.0401
     65  CG         4.0230  -28.2790  -14.2480 C.3    87  MET87       0.0596
     66  SD         3.9400  -29.8060  -15.2180 S.3    87  MET87      -0.1393
     67  CE         4.7230  -30.8840  -14.1150 C.3    87  MET87       0.0692
     68  N          1.0930  -26.7950  -11.2900 N.am   88  GLU88      -0.1966
     69  CA         0.0900  -26.8190  -10.2520 C.3    88  GLU88       0.1733
     70  C         -0.0550  -28.2750   -9.8730 C.2    88  GLU88       0.2616
     71  O          0.2340  -29.1550  -10.6730 O.2    88  GLU88      -0.2715
     72  CB        -1.2350  -26.2550  -10.7520 C.3    88  GLU88       0.0429
     73  CG        -1.9120  -27.0800  -11.8270 C.3    88  GLU88       0.1163
     74  CD        -3.1730  -26.4250  -12.3450 C.2    88  GLU88       0.3649
     75  OE1       -3.4560  -26.5510  -13.5470 O.co2  88  GLU88      -0.2457
     76  OE2       -3.8770  -25.7760  -11.5530 O.co2  88  GLU88      -0.2457
     77  N         -0.4920  -28.5360   -8.6520 N.am   89  CYS89      -0.1954
     78  CA        -0.6550  -29.9040   -8.2000 C.3    89  CYS89       0.1843
     79  C         -2.1200  -30.2980   -8.2340 C.2    89  CYS89       0.2626
     80  O         -2.9700  -29.5650   -7.7500 O.2    89  CYS89      -0.2714
     81  CB        -0.1050  -30.0500   -6.7840 C.3    89  CYS89       0.0997
     82  SG        -0.0050  -31.7460   -6.1910 S.3    89  CYS89      -0.0797
     83  N         -2.4210  -31.4540   -8.8090 N.am   90  GLY90      -0.1940
     84  CA        -3.8070  -31.9010   -8.8600 C.3    90  GLY90       0.2014
     85  C         -4.1070  -32.8650   -7.7400 C.2    90  GLY90       0.2639
     86  O         -3.2020  -33.2660   -7.0040 O.2    90  GLY90      -0.2714
     87  N         -5.3760  -33.2430   -7.5990 N.am   91  ASN91      -0.1958
     88  CA        -5.8280  -34.1610   -6.5540 C.3    91  ASN91       0.1819
     89  C         -5.3640  -35.5820   -6.8580 C.2    91  ASN91       0.2621
     90  O         -4.8000  -36.2510   -5.9920 O.2    91  ASN91      -0.2715
     91  CB        -7.3580  -34.1300   -6.4480 C.3    91  ASN91       0.1195
     92  CG        -7.9140  -32.7940   -6.0400 C.2    91  ASN91       0.2630
     93  OD1       -8.1310  -31.9050   -6.8720 O.2    91  ASN91      -0.2716
     94  ND2       -8.1910  -32.6350   -4.7450 N.am   91  ASN91      -0.0877
     95  N         -5.6450  -36.0070   -8.0920 N.am   92  ILE92      -0.1963
     96  CA        -5.2870  -37.3160   -8.6390 C.3    92  ILE92       0.1727
     97  C         -5.4020  -37.3190  -10.1800 C.2    92  ILE92       0.2616
     98  O         -6.0540  -36.4480  -10.7400 O.2    92  ILE92      -0.2715
     99  CB        -6.1930  -38.4100   -8.0480 C.3    92  ILE92       0.0290
    100  CG1       -5.8580  -39.7720   -8.6420 C.3    92  ILE92       0.0022
    101  CG2       -7.6530  -38.0780   -8.2910 C.3    92  ILE92       0.0023
    102  CD1       -6.7350  -40.8810   -8.1180 C.3    92  ILE92       0.0001
    103  N         -4.7910  -38.2880  -10.8650 N.am   93  ASP93      -0.1971
    104  CA        -4.9110  -38.3850  -12.3120 C.3    93  ASP93       0.1709
    105  C         -6.2070  -39.1560  -12.6240 C.2    93  ASP93       0.2293
    106  O         -6.7030  -39.8760  -11.7500 O.2    93  ASP93      -0.2864
    107  CB        -3.6770  -39.0590  -12.9340 C.3    93  ASP93       0.1436
    108  CG        -3.5490  -40.5200  -12.5740 C.2    93  ASP93       0.3671
    109  OD1       -3.1160  -40.8120  -11.4410 O.co2  93  ASP93      -0.2456
    110  OD2       -3.8750  -41.3710  -13.4300 O.co2  93  ASP93      -0.2456
    111  N         -6.1630  -43.3050  -12.1800 N.3    96  SER96      -0.1217
    112  CA        -6.2030  -43.7270  -10.7820 C.3    96  SER96       0.1889
    113  C         -7.5980  -43.5050  -10.2070 C.2    96  SER96       0.2288
    114  O         -8.0930  -44.3440   -9.4490 O.2    96  SER96      -0.2866
    115  CB        -5.1740  -42.9540   -9.9700 C.3    96  SER96       0.2089
    116  OG        -3.8670  -43.1850  -10.4690 O.3    96  SER96      -0.2183
    117  N        -10.0840  -46.2360  -11.6260 N.3    99  LYS99      -0.1227
    118  CA        -9.8250  -47.5490  -11.0190 C.3    99  LYS99       0.1736
    119  C        -10.4690  -47.6060   -9.6270 C.2    99  LYS99       0.2595
    120  O        -11.1080  -48.6070   -9.2980 O.2    99  LYS99      -0.2718
    121  CB        -8.3110  -47.8420  -10.9460 C.3    99  LYS99       0.0541
    122  CG        -7.6760  -48.0970  -12.2980 C.2    99  LYS99      -0.0272
    123  CD        -6.1760  -48.3270  -12.3060 C.2    99  LYS99      -0.0103
    124  CE        -5.4550  -48.2180  -10.9830 C.3    99  LYS99       0.1350
    125  NZ        -4.1610  -47.4790  -11.1170 N.3    99  LYS99      -0.1262
    126  N        -10.3420  -46.5120   -8.8330 N.am  100  LYS100     -0.1980
    127  CA       -10.9240  -46.3790   -7.4880 C.3   100  LYS100      0.1596
    128  C        -12.4560  -46.2830   -7.5300 C.2   100  LYS100      0.2287
    129  O        -13.1170  -46.7990   -6.6320 O.2   100  LYS100     -0.2864
    130  CB       -10.3480  -45.1530   -6.7450 C.3   100  LYS100      0.0298
    131  CG        -8.9270  -45.3410   -6.2460 C.3   100  LYS100      0.0038
    132  CD        -8.8670  -46.4610   -5.2260 C.3   100  LYS100      0.0206
    133  CE        -7.4790  -46.6170   -4.6450 C.3   100  LYS100      0.1093
    134  NZ        -6.5280  -47.1160   -5.6660 N.3   100  LYS100     -0.1314
    135  N         -4.6270  -41.3690  -18.0720 N.3   136  ALA136     -0.1245
    136  CA        -3.4220  -40.9160  -17.3670 C.3   136  ALA136      0.1562
    137  C         -2.8730  -39.5570  -17.8460 C.2   136  ALA136      0.2260
    138  O         -2.0260  -38.9850  -17.1600 O.2   136  ALA136     -0.2867
    139  CB        -2.3400  -41.9750  -17.4460 C.3   136  ALA136      0.0290
    140  N         -5.5010  -34.7160  -15.5400 N.3   139  LEU139     -0.1245
    141  CA        -5.3830  -34.4550  -14.1140 C.3   139  LEU139      0.1561
    142  C         -6.6570  -33.8050  -13.5850 C.2   139  LEU139      0.2260
    143  O         -7.1560  -32.8590  -14.2030 O.2   139  LEU139     -0.2867
    144  CB        -4.1680  -33.5360  -13.8620 C.3   139  LEU139      0.0270
    145  CG        -3.7970  -33.1810  -12.4150 C.3   139  LEU139      0.0019
    146  CD1       -3.3250  -34.4080  -11.6100 C.3   139  LEU139      0.0001
    147  CD2       -2.7510  -32.0880  -12.3970 C.3   139  LEU139      0.0001
    148  N         -2.3740  -32.9300  -18.9490 N.3   148  ILE148     -0.1245
    149  CA        -0.9830  -32.9200  -18.5030 C.3   148  ILE148      0.1561
    150  C          0.1520  -32.8220  -19.5340 C.2   148  ILE148      0.2260
    151  O          1.1120  -32.0940  -19.3240 O.2   148  ILE148     -0.2867
    152  CB        -0.7070  -34.1270  -17.5850 C.3   148  ILE148      0.0252
    153  CG1       -1.7010  -34.1480  -16.4300 C.3   148  ILE148      0.0019
    154  CG2        0.7060  -34.0820  -17.0380 C.3   148  ILE148      0.0019
    155  CD1       -1.6210  -35.3950  -15.5840 C.3   148  ILE148      0.0001
    156  N          4.6760  -41.3670  -17.9250 N.3   156  MET156     -0.1230
    157  CA         4.9970  -42.0540  -16.6490 C.3   156  MET156      0.1702
    158  C          3.8450  -42.8990  -16.0340 C.2   156  MET156      0.2592
    159  O          2.7480  -42.9620  -16.5970 O.2   156  MET156     -0.2718
    160  CB         5.4520  -41.0300  -15.5860 C.3   156  MET156      0.0401
    161  CG         6.5930  -40.1300  -16.0010 C.3   156  MET156      0.0596
    162  SD         6.5600  -38.5930  -15.0620 S.3   156  MET156     -0.1393
    163  CE         7.1870  -39.1510  -13.5620 C.3   156  MET156      0.0692
    164  N          4.1100  -43.5040  -14.8380 N.am  157  GLN157     -0.1966
    165  CA         3.1960  -44.3290  -14.0310 C.3   157  GLN157      0.1718
    166  C          3.2560  -43.9250  -12.5250 C.2   157  GLN157      0.2458
    167  O          4.3380  -43.5580  -12.0570 O.2   157  GLN157     -0.2730
    168  CB         3.5310  -45.8210  -14.2020 C.3   157  GLN157      0.0407
    169  CG         4.9380  -46.1830  -13.7860 C.3   157  GLN157      0.0908
    170  CD         5.2960  -47.6270  -14.0840 C.2   157  GLN157      0.2608
    171  OE1        4.4330  -48.4430  -14.4130 O.2   157  GLN157     -0.2717
    172  NE2        6.5750  -47.9490  -13.9700 N.am  157  GLN157     -0.0878
    173  N          2.1360  -43.9940  -11.7460 N.am  158  PRO158     -0.2716
    174  CA         2.1890  -43.5670  -10.3270 C.3   158  PRO158      0.1536
    175  C          2.9140  -44.5130   -9.3540 C.2   158  PRO158      0.2598
    176  O          3.1570  -45.6790   -9.6750 O.2   158  PRO158     -0.2715
    177  CB         0.7070  -43.3880   -9.9380 C.3   158  PRO158      0.0310
    178  CG        -0.0790  -43.5540  -11.2000 C.3   158  PRO158      0.0237
    179  CD         0.7620  -44.3760  -12.1250 C.3   158  PRO158      0.0939
    180  N          3.2530  -43.9920   -8.1500 N.am  159  ASP159     -0.1972
    181  CA         3.9460  -44.7130   -7.0770 C.3   159  ASP159      0.1709
    182  C          3.0320  -44.9210   -5.8540 C.2   159  ASP159      0.2293
    183  O          3.1750  -44.2690   -4.8150 O.2   159  ASP159     -0.2864
    184  CB         5.2580  -43.9930   -6.6850 C.3   159  ASP159      0.1436
    185  CG         6.2910  -43.8120   -7.7890 C.2   159  ASP159      0.3671
    186  OD1        6.1380  -44.4390   -8.8640 O.co2 159  ASP159     -0.2456
    187  OD2        7.2650  -43.0630   -7.5690 O.co2 159  ASP159     -0.2456
@<TRIPOS>BOND
     1   150   151    2
     2   150   149    1
     3   148   149    1
     4   149   152    1
     5    51    50    1
     6   135   136    1
     7   156   157    1
     8    52    53    1
     9   137   136    1
    10   137   138    2
    11   152   154    1
    12   152   153    1
    13    55    54    2
    14   139   136    1
    15    58    56    1
    16    50    49    1
    17   157   158    1
    18   157   160    1
    19   159   158    2
    20    53    54    1
    21    53    56    1
    22   153   155    1
    23    56    57    1
    24    49    48    1
    25   158   164   am
    26   161   160    1
    27   161   162    1
    28   140   141    1
    29    66    65    1
    30    66    67    1
    31   162   163    1
    32    48    47    1
    33   164   165    1
    34    57    59    1
    35   171   170    2
    36    65    64    1
    37   143   142    2
    38   168   165    1
    39   168   169    1
    40   141   144    1
    41   141   142    1
    42   170   172   am
    43   170   169    1
    44   165   166    1
    45    47    44    1
    46   144   145    1
    47    75    74   ar
    48   110   108   ar
    49    46    45    2
    50    64    61    1
    51   107   108    1
    52   107   104    1
    53    45    44    1
    54    44    43    1
    55   105   104    1
    56   105   106    2
    57   108   109   ar
    58   166   167    2
    59   166   173   am
    60   145   147    1
    61   145   146    1
    62    28    26    1
    63    74    73    1
    64    74    76   ar
    65   104   103    1
    66   123   122    2
    67   123   124    1
    68   122   121    1
    69   111   112    1
    70    61    60    1
    71    61    62    1
    72   179   173    1
    73   179   178    1
    74    73    72    1
    75   173   174    1
    76   117   118    1
    77    68    62   am
    78    68    69    1
    79   178   177    1
    80   125   124    1
    81   118   121    1
    82   118   119    1
    83    62    63    2
    84    26    27    1
    85    26    23    1
    86   103    97   am
    87   112   113    1
    88   112   115    1
    89    72    69    1
    90    98    97    2
    91    71    70    2
    92    22    23    1
    93   116   115    1
    94    20    21    2
    95    20    19    1
    96   174   177    1
    97   174   175    1
    98    69    70    1
    99    23    24    1
   100   113   114    2
   101    97    96    1
   102    41    40    2
   103    19    18    1
   104    70    77   am
   105   176   175    2
   106   119   120    2
   107   119   126   am
   108    42    39    1
   109   175   180   am
   110    40    39    1
   111    18    12   am
   112   186   185   ar
   113    84    83    1
   114    84    85    1
   115   126   127    1
   116    83    79   am
   117    24    25    2
   118    77    78    1
   119   100   102    1
   120   100    99    1
   121    96    95    1
   122    96    99    1
   123    39    38    1
   124   101    99    1
   125    16    14    1
   126    79    78    1
   127    79    80    2
   128    78    81    1
   129   180   181    1
   130    95    89   am
   131    12    13    2
   132    12    11    1
   133   185   187   ar
   134   185   184    1
   135    85    87   am
   136    85    86    2
   137    87    88    1
   138    14    11    1
   139    14    15    1
   140   128   127    1
   141   128   129    2
   142   127   130    1
   143    17    15    1
   144   181   184    1
   145   181   182    1
   146    11    10    1
   147    93    92    2
   148    89    88    1
   149    89    90    2
   150    81    82    1
   151   130   131    1
   152    88    91    1
   153    91    92    1
   154   131   132    1
   155    92    94   am
   156   182   183    2
   157   134   133    1
   158   132   133    1
   159    29    30    1
   160    30    33    1
   161    30    31    1
   162    33    34    1
   163     4     3    2
   164    31    32    2
   165    34    35    1
   166     3     2    1
   167    37    35   am
   168     8     9    1
   169     8     7    1
   170    35    36    2
   171     6     7    1
   172     6     5    1
   173     2     5    1
   174     2     1    1
