@<TRIPOS>MOLECULE
tmp/5eh8A00.pdb
 116 114 0 0 0
SMALL
GASTEIGER

@<TRIPOS>ATOM
      1  N          8.7040    6.8260   11.5440 N.3    90  GLN90      -0.1245
      2  CA         9.0060    5.7140   10.6600 C.3    90  GLN90       0.1566
      3  C          8.7170    4.4020   11.3440 C.2    90  GLN90       0.2260
      4  O          8.6570    4.3730   12.5730 O.2    90  GLN90      -0.2867
      5  CB        10.4790    5.7000   10.1930 C.3    90  GLN90       0.0367
      6  CG        11.4800    5.7080   11.3270 C.3    90  GLN90       0.0905
      7  CD        12.2330    4.3840   11.4610 C.2    90  GLN90       0.2608
      8  OE1       11.6500    3.3410   11.5320 O.2    90  GLN90      -0.2717
      9  NE2       13.5130    4.4590   11.5550 N.am   90  GLN90      -0.0878
     10  N         10.1390    0.1090   11.0190 N.3    92  HIS92      -0.1241
     11  CA        11.0300   -0.8580   10.3890 C.3    92  HIS92       0.1621
     12  C         10.9170   -2.1400   11.2050 C.2    92  HIS92       0.2264
     13  O         10.2550   -2.1990   12.2810 O.2    92  HIS92      -0.2867
     14  CB        12.4760   -0.3610   10.3910 C.3    92  HIS92       0.0745
     15  CG        13.0200   -0.1390   11.7600 C.ar   92  HIS92       0.0817
     16  ND1       12.8560    1.0490   12.4510 N.ar   92  HIS92      -0.2268
     17  CD2       13.6240   -1.0010   12.6190 C.ar   92  HIS92       0.1154
     18  CE1       13.3750    0.9160   13.6660 C.ar   92  HIS92       0.1986
     19  NE2       13.8470   -0.3170   13.7990 N.ar   92  HIS92      -0.2212
     20  N          9.2780   -2.1640   14.8890 N.3   117  HIS117     -0.1241
     21  CA         9.5110   -0.9670   15.7010 C.3   117  HIS117      0.1621
     22  C          8.8310    0.2060   15.0360 C.2   117  HIS117      0.2264
     23  O          9.1950    0.5950   13.8990 O.2   117  HIS117     -0.2867
     24  CB        11.0070   -0.6860   15.8070 C.3   117  HIS117      0.0745
     25  CG        11.6960   -1.6710   16.6900 C.ar  117  HIS117      0.0817
     26  ND1       13.0540   -1.9220   16.6680 N.ar  117  HIS117     -0.2268
     27  CD2       11.1660   -2.5250   17.5950 C.ar  117  HIS117      0.1154
     28  CE1       13.3360   -2.8400   17.5690 C.ar  117  HIS117      0.1986
     29  NE2       12.2040   -3.2210   18.1460 N.ar  117  HIS117     -0.2212
     30  N          8.5950    4.0170   15.4090 N.3   119  VAL119     -0.1245
     31  CA         9.4100    5.0200   16.0720 C.3   119  VAL119      0.1561
     32  C          8.7030    6.3720   16.1200 C.2   119  VAL119      0.2260
     33  O          8.2500    6.8840   15.0840 O.2   119  VAL119     -0.2867
     34  CB        10.7510    5.1820   15.3430 C.3   119  VAL119      0.0252
     35  CG1       11.6470    6.2240   16.0200 C.3   119  VAL119      0.0019
     36  CG2       11.4910    3.8120   15.1980 C.3   119  VAL119      0.0019
     37  N         13.0340   15.5420   15.0500 N.3   128  PHE128     -0.1227
     38  CA        13.5460   14.2460   15.4160 C.3   128  PHE128      0.1736
     39  C         15.0220   14.2880   15.8100 C.2   128  PHE128      0.2596
     40  O         15.4300   13.6310   16.7650 O.2   128  PHE128     -0.2718
     41  CB        13.3340   13.2860   14.2420 C.3   128  PHE128      0.0547
     42  CG        13.8810   11.9230   14.4680 C.ar  128  PHE128     -0.0202
     43  CD1       13.1930   11.0000   15.2280 C.ar  128  PHE128     -0.0042
     44  CD2       15.0770   11.5390   13.8900 C.ar  128  PHE128     -0.0042
     45  CE1       13.6990    9.7230   15.4170 C.ar  128  PHE128     -0.0003
     46  CE2       15.5750   10.2640   14.0880 C.ar  128  PHE128     -0.0003
     47  CZ        14.8790    9.3700   14.8420 C.ar  128  PHE128     -0.0000
     48  N         15.8370   15.0240   15.0700 N.am  129  GLY129     -0.1957
     49  CA        17.2430   15.1690   15.4030 C.3   129  GLY129      0.1869
     50  C         17.4940   15.7230   16.7870 C.2   129  GLY129      0.2309
     51  O         18.4410   15.3220   17.4480 O.2   129  GLY129     -0.2863
     52  N         16.3880   12.9250   19.5940 N.3   132  VAL132     -0.1245
     53  CA        17.2550   11.7950   19.9240 C.3   132  VAL132      0.1561
     54  C         18.3620   12.1930   20.9060 C.2   132  VAL132      0.2260
     55  O         19.0500   11.3140   21.4420 O.2   132  VAL132     -0.2867
     56  CB        17.8960   11.1480   18.6550 C.3   132  VAL132      0.0252
     57  CG1       16.8510   10.5640   17.7220 C.3   132  VAL132      0.0019
     58  CG2       18.8060   12.0930   17.8920 C.3   132  VAL132      0.0019
     59  N         18.1690    3.4380   21.3480 N.3   195  LEU195     -0.1231
     60  CA        18.1580    2.9060   19.9890 C.3   195  LEU195      0.1693
     61  C         18.8570    1.5590   19.9850 C.2   195  LEU195      0.2593
     62  O         19.8560    1.3560   20.6860 O.2   195  LEU195     -0.2718
     63  CB        18.8710    3.8580   19.0430 C.3   195  LEU195      0.0284
     64  CG        18.4520    5.3120   19.0290 C.3   195  LEU195      0.0019
     65  CD1       19.3150    6.1060   18.0430 C.3   195  LEU195      0.0001
     66  CD2       16.9910    5.4100   18.6390 C.3   195  LEU195      0.0001
     67  N         18.4020    0.6630   19.1180 N.am  196  THR196     -0.1939
     68  CA        19.0720   -0.6250   19.0440 C.3   196  THR196      0.2028
     69  C         20.0670   -0.7440   17.8860 C.2   196  THR196      0.2643
     70  O         20.6940   -1.7900   17.7160 O.2   196  THR196     -0.2714
     71  CB        18.0750   -1.7820   18.9590 C.3   196  THR196      0.1808
     72  OG1       17.3820   -1.7480   17.7050 O.3   196  THR196     -0.2208
     73  CG2       17.1060   -1.7520   20.1540 C.3   196  THR196      0.0379
     74  N         20.2200    0.3140   17.1110 N.am  197  THR197     -0.1937
     75  CA        21.2970    0.4170   16.1180 C.3   197  THR197      0.2013
     76  C         22.1350    1.6310   16.4500 C.2   197  THR197      0.2484
     77  O         21.6510    2.5570   17.0980 O.2   197  THR197     -0.2729
     78  CB        20.7740    0.5670   14.6750 C.3   197  THR197      0.1807
     79  OG1       20.1030    1.8310   14.5180 O.3   197  THR197     -0.2208
     80  CG2       19.8140   -0.5360   14.3450 C.3   197  THR197      0.0379
     81  N         23.3770    1.6800   15.9920 N.am  198  PRO198     -0.2715
     82  CA        24.1270    2.9240   16.0700 C.3   198  PRO198      0.1521
     83  C         23.2570    4.0730   15.5720 C.2   198  PRO198      0.2440
     84  O         22.5930    3.9390   14.5210 O.2   198  PRO198     -0.2731
     85  CB        25.3040    2.6490   15.1310 C.3   198  PRO198      0.0310
     86  CG        25.5410    1.1770   15.3250 C.3   198  PRO198      0.0237
     87  CD        24.1200    0.6130   15.3070 C.3   198  PRO198      0.0939
     88  N         23.2990    5.2060   16.2710 N.am  199  PRO199     -0.2727
     89  CA        24.2340    5.5830   17.3340 C.3   199  PRO199      0.1402
     90  C         23.8940    5.1240   18.7640 C.2   199  PRO199      0.2269
     91  O         24.5920    5.5690   19.6860 O.2   199  PRO199     -0.2865
     92  CB        24.2470    7.1240   17.2420 C.3   199  PRO199      0.0296
     93  CG        22.8440    7.4400   16.7740 C.3   199  PRO199      0.0237
     94  CD        22.4980    6.3520   15.7960 C.3   199  PRO199      0.0939
     95  N         21.7530    5.7610   20.9430 N.3   201  LEU201     -0.1245
     96  CA        21.4810    6.8420   21.8970 C.3   201  LEU201      0.1561
     97  C         20.4040    6.4390   22.8970 C.2   201  LEU201      0.2260
     98  O         19.4420    5.7740   22.5590 O.2   201  LEU201     -0.2867
     99  CB        21.0420    8.0900   21.1510 C.3   201  LEU201      0.0270
    100  CG        22.1240    8.6830   20.2420 C.3   201  LEU201      0.0019
    101  CD1       21.5370    9.7750   19.3320 C.3   201  LEU201      0.0001
    102  CD2       23.2850    9.2320   21.0730 C.3   201  LEU201      0.0001
    103  N         10.6830    2.6110   25.7970 N.3   206  TRP206     -0.1241
    104  CA        10.2430    1.4110   25.0690 C.3   206  TRP206      0.1605
    105  C          8.8680    1.0050   25.5370 C.2   206  TRP206      0.2264
    106  O          8.6150    0.9390   26.7460 O.2   206  TRP206     -0.2867
    107  CB        11.2100    0.2420   25.2590 C.3   206  TRP206      0.0550
    108  CG        12.3540    0.3550   24.2960 C.ar  206  TRP206      0.0003
    109  CD1       13.5890    0.9180   24.5140 C.ar  206  TRP206      0.0946
    110  CD2       12.3250   -0.0460   22.9330 C.ar  206  TRP206      0.0152
    111  NE1       14.3100    0.8960   23.3520 N.ar  206  TRP206     -0.2442
    112  CE2       13.5650    0.2910   22.3740 C.ar  206  TRP206      0.0810
    113  CE3       11.3570   -0.6670   22.1310 C.ar  206  TRP206      0.0012
    114  CZ2       13.8740    0.0280   21.0320 C.ar  206  TRP206      0.0191
    115  CZ3       11.6450   -0.9330   20.8080 C.ar  206  TRP206      0.0001
    116  CH2       12.9010   -0.5980   20.2660 C.ar  206  TRP206      0.0015
@<TRIPOS>BOND
     1     5     2    1
     2     5     6    1
     3    11    14    1
     4    11    10    1
     5    11    12    1
     6    14    15    1
     7     2     3    1
     8     2     1    1
     9    12    13    2
    10     6     7    1
    11     3     4    2
    12     7     8    2
    13     7     9   am
    14    15    16   ar
    15    15    17   ar
    16    16    18   ar
    17    17    19   ar
    18    18    19   ar
    19    44    46   ar
    20    44    42   ar
    21    23    22    2
    22    46    47   ar
    23    41    42    1
    24    41    38    1
    25    80    78    1
    26    42    43   ar
    27    79    78    1
    28    84    83    2
    29    78    75    1
    30    47    45   ar
    31    20    21    1
    32    22    21    1
    33    37    38    1
    34    48    49    1
    35    48    39   am
    36    33    32    2
    37    85    86    1
    38    85    82    1
    39    36    34    1
    40    43    45   ar
    41    87    86    1
    42    87    81    1
    43    34    35    1
    44    34    31    1
    45    49    50    1
    46    30    31    1
    47    38    39    1
    48    83    82    1
    49    83    88   am
    50    21    24    1
    51    94    88    1
    52    94    93    1
    53    24    25    1
    54    39    40    2
    55    81    82    1
    56    81    76   am
    57    31    32    1
    58    75    76    1
    59    75    74    1
    60    88    89    1
    61    76    77    2
    62    26    25   ar
    63    26    28   ar
    64    25    27   ar
    65    93    92    1
    66    50    51    2
    67    74    69   am
    68    92    89    1
    69    89    90    1
    70    28    29   ar
    71    27    29   ar
    72    72    71    1
    73    70    69    2
    74    57    56    1
    75    69    68    1
    76    58    56    1
    77    65    64    1
    78    66    64    1
    79    56    53    1
    80    90    91    2
    81    71    68    1
    82    71    73    1
    83    64    63    1
    84    63    60    1
    85    68    67    1
    86    67    61   am
    87   101   100    1
    88    52    53    1
    89    53    54    1
    90    61    60    1
    91    61    62    2
    92    60    59    1
    93   100   102    1
    94   100    99    1
    95   116   115   ar
    96   116   114   ar
    97   115   113   ar
    98    54    55    2
    99    95    96    1
   100   114   112   ar
   101    99    96    1
   102    96    97    1
   103   113   110   ar
   104   112   110   ar
   105   112   111   ar
   106    98    97    2
   107   110   108   ar
   108   111   109   ar
   109   108   109   ar
   110   108   107    1
   111   104   107    1
   112   104   105    1
   113   104   103    1
   114   105   106    2
