@<TRIPOS>MOLECULE
tmp/5eh9A00.pdb
 119 119 0 0 0
SMALL
GASTEIGER

@<TRIPOS>ATOM
      1  N        -18.0050  -19.8790   14.5580 N.3    66  LEU66      -0.1231
      2  CA       -17.2110  -19.4910   15.7050 C.3    66  LEU66       0.1693
      3  C        -18.0740  -18.7860   16.7890 C.2    66  LEU66       0.2592
      4  O        -17.9060  -19.0250   17.9980 O.2    66  LEU66      -0.2718
      5  CB       -16.0770  -18.5490   15.2260 C.3    66  LEU66       0.0284
      6  CG       -15.2330  -17.9530   16.3170 C.3    66  LEU66       0.0019
      7  CD1      -14.6120  -19.0140   17.2170 C.3    66  LEU66       0.0001
      8  CD2      -14.1790  -17.0320   15.7330 C.3    66  LEU66       0.0001
      9  N        -19.0040  -17.9230   16.3500 N.am   67  PHE67      -0.1976
     10  CA       -19.7890  -17.0880   17.2520 C.3    67  PHE67       0.1639
     11  C        -21.1550  -17.6960   17.6070 C.2    67  PHE67       0.2290
     12  O        -21.9900  -17.0250   18.2070 O.2    67  PHE67      -0.2864
     13  CB       -19.9020  -15.6230   16.7180 C.3    67  PHE67       0.0560
     14  CG       -18.5480  -14.9540   16.6200 C.ar   67  PHE67      -0.0200
     15  CD1      -17.8240  -14.6460   17.7530 C.ar   67  PHE67      -0.0042
     16  CD2      -18.0380  -14.6460   15.4240 C.ar   67  PHE67      -0.0042
     17  CE1      -16.5660  -14.0980   17.6460 C.ar   67  PHE67      -0.0003
     18  CE2      -16.7650  -14.0690   15.2830 C.ar   67  PHE67      -0.0003
     19  CZ       -16.0590  -13.7870   16.4090 C.ar   67  PHE67      -0.0000
     20  N        -23.1560  -17.1690   21.1910 N.3    70  THR70      -0.1203
     21  CA       -22.8030  -15.8340   21.7110 C.3    70  THR70       0.1994
     22  C        -23.8250  -14.8060   21.2460 C.2    70  THR70       0.2618
     23  O        -24.7890  -15.1300   20.5280 O.2    70  THR70      -0.2717
     24  CB       -21.4050  -15.3370   21.2420 C.3    70  THR70       0.1784
     25  OG1      -21.5400  -14.7800   19.9410 O.3    70  THR70      -0.2211
     26  CG2      -20.3700  -16.4650   21.2240 C.3    70  THR70       0.0376
     27  N        -23.5950  -13.5650   21.6640 N.am   71  PHE71      -0.1961
     28  CA       -24.4970  -12.4430   21.3690 C.3    71  PHE71       0.1771
     29  C        -24.4720  -11.9920   19.9100 C.2    71  PHE71       0.2619
     30  O        -25.2740  -11.1410   19.5280 O.2    71  PHE71      -0.2715
     31  CB       -24.1990  -11.2470   22.3250 C.3    71  PHE71       0.0574
     32  CG       -22.9360  -10.4070   21.9770 C.ar   71  PHE71      -0.0200
     33  CD1      -21.6380  -10.8400   22.3290 C.ar   71  PHE71      -0.0042
     34  CD2      -23.0540   -9.1500   21.3620 C.ar   71  PHE71      -0.0042
     35  CE1      -20.5110  -10.0760   22.0370 C.ar   71  PHE71      -0.0003
     36  CE2      -21.9150   -8.3720   21.0700 C.ar   71  PHE71      -0.0003
     37  CZ       -20.6490   -8.8430   21.4060 C.ar   71  PHE71      -0.0000
     38  N        -23.5320  -12.5250   19.1080 N.am   72  VAL72      -0.1977
     39  CA       -23.4380  -12.1390   17.7210 C.3    72  VAL72       0.1596
     40  C        -23.7470  -13.3330   16.7890 C.2    72  VAL72       0.2287
     41  O        -23.5380  -13.2610   15.5580 O.2    72  VAL72      -0.2864
     42  CB       -22.0930  -11.4580   17.4120 C.3    72  VAL72       0.0276
     43  CG1      -22.0520  -10.1220   18.1080 C.3    72  VAL72       0.0022
     44  CG2      -20.8850  -12.3120   17.8240 C.3    72  VAL72       0.0022
     45  N        -22.0680  -12.6260   12.5570 N.3    76  ILE76      -0.1245
     46  CA       -20.6380  -12.5410   12.1640 C.3    76  ILE76       0.1561
     47  C        -20.2090  -13.9460   11.9000 C.2    76  ILE76       0.2260
     48  O        -20.2960  -14.7570   12.7970 O.2    76  ILE76      -0.2867
     49  CB       -19.7830  -11.9450   13.2790 C.3    76  ILE76       0.0252
     50  CG1      -20.3330  -10.5760   13.6810 C.3    76  ILE76       0.0019
     51  CG2      -18.3310  -11.8880   12.7990 C.3    76  ILE76       0.0019
     52  CD1      -19.4930   -9.8380   14.7310 C.3    76  ILE76       0.0001
     53  N        -10.4000   -5.6920   17.5190 N.3   109  HIS109     -0.1226
     54  CA       -11.4240   -6.5870   16.9760 C.3   109  HIS109      0.1752
     55  C        -10.7820   -7.8240   16.4220 C.2   109  HIS109      0.2596
     56  O         -9.6770   -7.8320   15.9220 O.2   109  HIS109     -0.2718
     57  CB       -12.3000   -5.8980   15.9610 C.3   109  HIS109      0.0759
     58  CG       -13.2420   -4.9020   16.5900 C.ar  109  HIS109      0.0818
     59  ND1      -14.0030   -4.0140   15.8250 N.ar  109  HIS109     -0.2268
     60  CD2      -13.5730   -4.6620   17.8710 C.ar  109  HIS109      0.1154
     61  CE1      -14.7450   -3.2680   16.6430 C.ar  109  HIS109      0.1986
     62  NE2      -14.4680   -3.6090   17.8720 N.ar  109  HIS109     -0.2212
     63  N        -11.5520   -8.9110   16.4120 N.am  110  PHE110     -0.1962
     64  CA       -11.0150  -10.2470   16.0270 C.3   110  PHE110      0.1771
     65  C        -10.4770  -10.3340   14.6540 C.2   110  PHE110      0.2619
     66  O         -9.5990  -11.1680   14.3590 O.2   110  PHE110     -0.2715
     67  CB       -12.0150  -11.3570   16.3420 C.3   110  PHE110      0.0574
     68  CG       -12.9310  -11.6390   15.2100 C.ar  110  PHE110     -0.0200
     69  CD1      -13.9240  -10.7540   14.8230 C.ar  110  PHE110     -0.0042
     70  CD2      -12.7370  -12.7350   14.4810 C.ar  110  PHE110     -0.0042
     71  CE1      -14.6900  -11.0020   13.7030 C.ar  110  PHE110     -0.0003
     72  CE2      -13.6080  -13.0740   13.4310 C.ar  110  PHE110     -0.0003
     73  CZ       -14.5350  -12.1570   13.0030 C.ar  110  PHE110     -0.0000
     74  N        -11.0610   -9.5030   13.7280 N.am  111  ASP111     -0.1971
     75  CA       -10.6110   -9.4480   12.3800 C.3   111  ASP111      0.1709
     76  C         -9.4070   -8.5770   12.0670 C.2   111  ASP111      0.2293
     77  O         -8.9500   -8.5260   10.9490 O.2   111  ASP111     -0.2864
     78  CB       -11.7890   -9.1060   11.4160 C.3   111  ASP111      0.1436
     79  CG       -12.4510   -7.7400   11.7390 C.2   111  ASP111      0.3671
     80  OD1      -12.7330   -7.5360   12.9560 O.co2 111  ASP111     -0.2456
     81  OD2      -12.6990   -6.9630   10.7900 O.co2 111  ASP111     -0.2456
     82  N        -17.1570   -7.2790   26.0470 N.3   138  GLU138     -0.1231
     83  CA       -17.3990   -8.6300   25.6270 C.3   138  GLU138      0.1699
     84  C        -17.1590   -8.8500   24.1430 C.2   138  GLU138      0.2592
     85  O        -17.0220   -9.9900   23.7170 O.2   138  GLU138     -0.2718
     86  CB       -18.8250   -9.0180   25.9920 C.3   138  GLU138      0.0402
     87  CG       -19.8870   -8.2740   25.2170 C.3   138  GLU138      0.1161
     88  CD       -21.2690   -8.7700   25.5630 C.2   138  GLU138      0.3649
     89  OE1      -21.4000   -9.9620   25.9130 O.co2 138  GLU138     -0.2457
     90  OE2      -22.2210   -7.9730   25.4870 O.co2 138  GLU138     -0.2457
     91  N        -17.1310   -7.7980   23.3300 N.am  139  GLU139     -0.1966
     92  CA       -16.8070   -8.0140   21.8870 C.3   139  GLU139      0.1733
     93  C        -15.3540   -8.4060   21.6830 C.2   139  GLU139      0.2616
     94  O        -14.9310   -8.6050   20.5100 O.2   139  GLU139     -0.2715
     95  CB       -17.1850   -6.8670   20.9050 C.3   139  GLU139      0.0429
     96  CG       -16.4460   -5.5300   20.9470 C.3   139  GLU139      0.1163
     97  CD       -16.9590   -4.6010   22.0790 C.2   139  GLU139      0.3649
     98  OE1      -17.6930   -5.0780   23.0160 O.co2 139  GLU139     -0.2457
     99  OE2      -16.6980   -3.3430   22.0970 O.co2 139  GLU139     -0.2457
    100  N        -14.5570   -8.5160   22.7660 N.am  140  TYR140     -0.1960
    101  CA       -13.1060   -8.8280   22.5560 C.3   140  TYR140      0.1771
    102  C        -12.8190  -10.2660   22.9150 C.2   140  TYR140      0.2619
    103  O        -13.1520  -10.7380   23.9670 O.2   140  TYR140     -0.2715
    104  CB       -12.1970   -7.8660   23.3300 C.3   140  TYR140      0.0574
    105  CG       -12.2030   -6.4350   22.7530 C.ar  140  TYR140     -0.0198
    106  CD1      -11.4630   -6.1380   21.7000 C.ar  140  TYR140     -0.0009
    107  CD2      -13.1160   -5.4780   23.2320 C.ar  140  TYR140     -0.0009
    108  CE1      -11.4580   -4.8660   21.1630 C.ar  140  TYR140      0.0417
    109  CE2      -13.1690   -4.2160   22.6940 C.ar  140  TYR140      0.0417
    110  CZ       -12.3390   -3.9270   21.6590 C.ar  140  TYR140      0.1957
    111  OH       -12.3850   -2.6450   21.1540 O.3   140  TYR140     -0.2866
    112  N        -12.1540  -10.9010   22.0080 N.am  141  MET141     -0.1977
    113  CA       -11.7040  -12.2540   22.1530 C.3   141  MET141      0.1605
    114  C        -10.3890  -12.3230   22.8990 C.2   141  MET141      0.2287
    115  O         -9.5120  -11.4580   22.7090 O.2   141  MET141     -0.2864
    116  CB       -11.5480  -12.9410   20.7490 C.3   141  MET141      0.0413
    117  CG       -12.8540  -12.9660   19.9720 C.3   141  MET141      0.0598
    118  SD       -12.6810  -14.0110   18.5150 S.3   141  MET141     -0.1393
    119  CE       -12.6200  -15.6400   19.1680 C.3   141  MET141      0.0692
@<TRIPOS>BOND
     1    81    79   ar
     2    77    76    2
     3    78    79    1
     4    78    75    1
     5    79    80   ar
     6    47    46    1
     7    47    48    2
     8    76    75    1
     9    46    45    1
    10    46    49    1
    11    75    74    1
    12    51    49    1
    13    73    72   ar
    14    73    71   ar
    15    49    50    1
    16    72    70   ar
    17    50    52    1
    18    71    69   ar
    19    74    65   am
    20    66    65    2
    21    70    68   ar
    22     1     2    1
    23    65    64    1
    24    69    68   ar
    25    68    67    1
    26     5     2    1
    27     5     6    1
    28    18    16   ar
    29    18    19   ar
    30    16    14   ar
    31    41    40    2
    32     2     3    1
    33     8     6    1
    34    59    58   ar
    35    59    61   ar
    36    56    55    2
    37    57    58    1
    38    57    54    1
    39    64    67    1
    40    64    63    1
    41     6     7    1
    42     9     3   am
    43     9    10    1
    44    19    17   ar
    45    63    55   am
    46    55    54    1
    47    58    60   ar
    48    14    13    1
    49    14    15   ar
    50    61    62   ar
    51    13    10    1
    52    40    39    1
    53     3     4    2
    54    54    53    1
    55    10    11    1
    56    42    39    1
    57    42    44    1
    58    42    43    1
    59    11    12    2
    60    17    15   ar
    61    39    38    1
    62    60    62   ar
    63   118   119    1
    64   118   117    1
    65    38    29   am
    66    30    29    2
    67    29    28    1
    68    25    24    1
    69   117   116    1
    70    94    93    2
    71    23    22    2
    72   116   113    1
    73    95    96    1
    74    95    92    1
    75    96    97    1
    76    36    34   ar
    77    36    37   ar
    78   111   110    1
    79   108   110   ar
    80   108   106   ar
    81    20    21    1
    82    26    24    1
    83    24    21    1
    84    22    27   am
    85    22    21    1
    86    34    32   ar
    87    28    27    1
    88    28    31    1
    89    37    35   ar
    90   110   109   ar
    91    93    92    1
    92    93   100   am
    93   106   105   ar
    94    92    91    1
    95    32    31    1
    96    32    33   ar
    97   112   113    1
    98   112   102   am
    99    35    33   ar
   100    97    99   ar
   101    97    98   ar
   102   113   114    1
   103   101   100    1
   104   101   102    1
   105   101   104    1
   106   109   107   ar
   107   115   114    2
   108   105   107   ar
   109   105   104    1
   110   102   103    2
   111    91    84   am
   112    85    84    2
   113    84    83    1
   114    87    88    1
   115    87    86    1
   116    90    88   ar
   117    88    89   ar
   118    83    86    1
   119    83    82    1
