@<TRIPOS>MOLECULE
tmp/5ehcA00.pdb
 152 148 0 0 0
SMALL
GASTEIGER

@<TRIPOS>ATOM
      1  N          6.2610   -2.9030  -13.3550 N.3    22  PHE22      -0.1241
      2  CA         6.6930   -2.8450  -11.9650 C.3    22  PHE22       0.1605
      3  C          7.8810   -1.8930  -11.8810 C.2    22  PHE22       0.2264
      4  O          8.8940   -2.0960  -12.5630 O.2    22  PHE22      -0.2867
      5  CB         7.0320   -4.2370  -11.4210 C.3    22  PHE22       0.0534
      6  CG         7.3610   -4.2470   -9.9420 C.ar   22  PHE22      -0.0203
      7  CD1        6.3500   -4.3250   -8.9870 C.ar   22  PHE22      -0.0042
      8  CD2        8.6810   -4.1690   -9.5070 C.ar   22  PHE22      -0.0042
      9  CE1        6.6500   -4.3240   -7.6270 C.ar   22  PHE22      -0.0003
     10  CE2        8.9850   -4.1660   -8.1480 C.ar   22  PHE22      -0.0003
     11  CZ         7.9650   -4.2440   -7.2070 C.ar   22  PHE22      -0.0000
     12  N          5.0660   -3.1730   -2.6770 N.3    30  TRP30      -0.1227
     13  CA         4.9750   -3.9680   -3.9040 C.3    30  TRP30       0.1737
     14  C          3.6780   -3.6700   -4.6430 C.2    30  TRP30       0.2595
     15  O          3.6800   -3.4190   -5.8550 O.2    30  TRP30      -0.2718
     16  CB         5.0710   -5.4650   -3.6010 C.3    30  TRP30       0.0564
     17  CG         5.3840   -6.3190   -4.8330 C.ar   30  TRP30       0.0003
     18  CD1        6.6290   -6.6020   -5.3320 C.ar   30  TRP30       0.0946
     19  CD2        4.4470   -6.9950   -5.7030 C.ar   30  TRP30       0.0152
     20  NE1        6.5270   -7.4100   -6.4420 N.ar   30  TRP30      -0.2442
     21  CE2        5.2040   -7.6630   -6.6920 C.ar   30  TRP30       0.0810
     22  CE3        3.0470   -7.1020   -5.7370 C.ar   30  TRP30       0.0012
     23  CZ2        4.6130   -8.4260   -7.7070 C.ar   30  TRP30       0.0191
     24  CZ3        2.4590   -7.8620   -6.7460 C.ar   30  TRP30       0.0001
     25  CH2        3.2450   -8.5090   -7.7200 C.ar   30  TRP30       0.0015
     26  N          2.5590   -3.6860   -3.9180 N.am   31  GLN31      -0.1979
     27  CA         1.2680   -3.3960   -4.5270 C.3    31  GLN31       0.1601
     28  C          1.2890   -2.0650   -5.2700 C.2    31  GLN31       0.2287
     29  O          0.7450   -1.9570   -6.3730 O.2    31  GLN31      -0.2864
     30  CB         0.1820   -3.4050   -3.4450 C.3    31  GLN31       0.0394
     31  CG        -1.1850   -3.8520   -3.9290 C.3    31  GLN31       0.0908
     32  CD        -1.2560   -5.3480   -4.1920 C.2    31  GLN31       0.2608
     33  OE1       -0.3990   -6.1220   -3.7490 O.2    31  GLN31      -0.2717
     34  NE2       -2.2810   -5.7600   -4.9280 N.am   31  GLN31      -0.0878
     35  N         15.4570   -4.2330  -11.2590 N.3    62  GLY62      -0.1225
     36  CA        14.3330   -4.3970  -10.3520 C.3    62  GLY62       0.1811
     37  C         12.9660   -4.2240  -10.9730 C.2    62  GLY62       0.2280
     38  O         11.9600   -4.3710  -10.2690 O.2    62  GLY62      -0.2866
     39  N          9.8180   -4.8910  -13.9100 N.3    64  ASP64      -0.1239
     40  CA         9.2190   -6.0030  -14.5970 C.3    64  ASP64       0.1674
     41  C          8.1720   -5.5190  -15.5650 C.2    64  ASP64       0.2266
     42  O          7.4900   -4.5200  -15.3350 O.2    64  ASP64      -0.2867
     43  CB         8.5950   -6.9770  -13.5940 C.3    64  ASP64       0.1410
     44  CG         9.4590   -7.1810  -12.3650 C.2    64  ASP64       0.3668
     45  OD1       10.7010   -7.1720  -12.5010 O.co2  64  ASP64      -0.2456
     46  OD2        8.8970   -7.3510  -11.2630 O.co2  64  ASP64      -0.2456
     47  N         -0.4120  -10.9060   -9.9370 N.3    75  MET75      -0.1230
     48  CA         0.0130  -11.2640   -8.6010 C.3    75  MET75       0.1702
     49  C         -0.5900  -12.6220   -8.2880 C.2    75  MET75       0.2592
     50  O         -1.6330  -12.9930   -8.8330 O.2    75  MET75      -0.2718
     51  CB        -0.4140  -10.2240   -7.5810 C.3    75  MET75       0.0401
     52  CG        -1.8900  -10.0470   -7.4170 C.3    75  MET75       0.0596
     53  SD        -2.1420   -8.5650   -6.4390 S.3    75  MET75      -0.1393
     54  CE        -1.7370   -7.3230   -7.6480 C.3    75  MET75       0.0692
     55  N          0.0880  -13.3750   -7.4270 N.am   76  TRP76      -0.1962
     56  CA        -0.2660  -14.7820   -7.2940 C.3    76  TRP76       0.1771
     57  C         -1.5590  -14.9710   -6.5060 C.2    76  TRP76       0.2619
     58  O         -2.2860  -15.9440   -6.7420 O.2    76  TRP76      -0.2715
     59  CB         0.9010  -15.5510   -6.6680 C.3    76  TRP76       0.0590
     60  CG         0.9860  -15.4960   -5.1760 C.ar   76  TRP76       0.0006
     61  CD1        1.6180  -14.5560   -4.4250 C.ar   76  TRP76       0.0946
     62  CD2        0.4380  -16.4460   -4.2530 C.ar   76  TRP76       0.0152
     63  NE1        1.4860  -14.8490   -3.0870 N.ar   76  TRP76      -0.2442
     64  CE2        0.7700  -16.0050   -2.9530 C.ar   76  TRP76       0.0810
     65  CE3       -0.3080  -17.6220   -4.4000 C.ar   76  TRP76       0.0012
     66  CZ2        0.3860  -16.6990   -1.8080 C.ar   76  TRP76       0.0191
     67  CZ3       -0.6860  -18.3120   -3.2640 C.ar   76  TRP76       0.0001
     68  CH2       -0.3420  -17.8490   -1.9830 C.ar   76  TRP76       0.0015
     69  N         -1.8730  -14.0090   -5.6440 N.am   77  GLU77      -0.1977
     70  CA        -3.0890  -14.0480   -4.8370 C.3    77  GLU77       0.1602
     71  C         -4.3850  -13.7940   -5.6180 C.2    77  GLU77       0.2287
     72  O         -5.4640  -13.7610   -5.0270 O.2    77  GLU77      -0.2864
     73  CB        -2.9680  -13.0930   -3.6470 C.3    77  GLU77       0.0415
     74  CG        -2.7660  -11.6380   -4.0370 C.3    77  GLU77       0.1163
     75  CD        -1.3300  -11.1820   -3.8650 C.2    77  GLU77       0.3649
     76  OE1       -0.4130  -11.9830   -4.1450 O.co2  77  GLU77      -0.2457
     77  OE2       -1.1180  -10.0230   -3.4500 O.co2  77  GLU77      -0.2457
     78  N          4.2560  -21.3650  -12.2650 N.3    86  ARG86      -0.1245
     79  CA         4.9160  -20.7200  -13.3790 C.3    86  ARG86       0.1563
     80  C          6.0400  -21.5980  -13.9060 C.2    86  ARG86       0.2260
     81  O          6.7820  -22.2070  -13.1290 O.2    86  ARG86      -0.2867
     82  CB         5.4580  -19.3590  -12.9440 C.3    86  ARG86       0.0307
     83  CG         6.3690  -19.4180  -11.7300 C.3    86  ARG86       0.0489
     84  CD         7.0000  -18.0510  -11.4450 C.3    86  ARG86       0.2205
     85  NE         7.5940  -17.9870  -10.1110 N.pl3  86  ARG86      -0.0865
     86  CZ         8.2910  -16.9620   -9.6350 C.cat  86  ARG86       0.5346
     87  NH1        8.4830  -15.8810  -10.3790 N.pl3  86  ARG86       0.1354
     88  NH2        8.7870  -17.0100   -8.3980 N.pl3  86  ARG86       0.1354
     89  N         11.4200  -10.5370  -15.3520 N.3   129  ASN129     -0.1240
     90  CA        12.0810   -9.8290  -14.2600 C.3   129  ASN129      0.1653
     91  C         13.4660   -9.3960  -14.7260 C.2   129  ASN129      0.2266
     92  O         14.2850  -10.2400  -15.0980 O.2   129  ASN129     -0.2867
     93  CB        12.2210  -10.7040  -13.0140 C.3   129  ASN129      0.1155
     94  CG        10.9150  -11.2220  -12.5130 C.2   129  ASN129      0.2627
     95  OD1       10.6790  -12.4300  -12.4860 O.2   129  ASN129     -0.2716
     96  ND2       10.0540  -10.3250  -12.0960 N.am  129  ASN129     -0.0877
     97  N         16.8340   -8.2890  -13.4600 N.3   131  ARG131     -0.1245
     98  CA        17.5990   -8.3550  -12.2180 C.3   131  ARG131      0.1563
     99  C         19.0950   -8.3860  -12.5010 C.2   131  ARG131      0.2260
    100  O         19.5500   -8.9620  -13.4970 O.2   131  ARG131     -0.2867
    101  CB        17.2230   -9.5900  -11.3930 C.3   131  ARG131      0.0307
    102  CG        15.7560   -9.6800  -11.0660 C.3   131  ARG131      0.0489
    103  CD        15.3310   -8.5350  -10.1580 C.3   131  ARG131      0.2205
    104  NE        13.9340   -8.6560   -9.7480 N.pl3 131  ARG131     -0.0865
    105  CZ        12.9160   -8.1020  -10.3940 C.cat 131  ARG131      0.5346
    106  NH1       13.1350   -7.3680  -11.4780 N.pl3 131  ARG131      0.1354
    107  NH2       11.6790   -8.2830   -9.9490 N.pl3 131  ARG131      0.1354
    108  N         14.8580  -13.1980  -15.3480 N.3   136  LYS136     -0.1245
    109  CA        13.9690  -14.3560  -15.3360 C.3   136  LYS136      0.1561
    110  C         12.7380  -14.0660  -16.1760 C.2   136  LYS136      0.2260
    111  O         12.2190  -12.9470  -16.1540 O.2   136  LYS136     -0.2867
    112  CB        13.5860  -14.7390  -13.8950 C.3   136  LYS136      0.0271
    113  CG        14.8330  -15.0820  -13.0590 C.3   136  LYS136      0.0035
    114  CD        14.5440  -15.4260  -11.6160 C.3   136  LYS136      0.0206
    115  CE        14.4420  -14.1980  -10.7620 C.3   136  LYS136      0.1093
    116  NZ        14.2170  -14.6130   -9.3450 N.3   136  LYS136     -0.1314
    117  N          2.7280  -17.9900  -16.4370 N.3   140  TRP140     -0.1241
    118  CA         1.9180  -18.3790  -15.2950 C.3   140  TRP140      0.1605
    119  C          0.7140  -19.2050  -15.7320 C.2   140  TRP140      0.2264
    120  O          0.0460  -18.8810  -16.7220 O.2   140  TRP140     -0.2867
    121  CB         1.4420  -17.1450  -14.5290 C.3   140  TRP140      0.0550
    122  CG         2.5190  -16.4010  -13.8170 C.ar  140  TRP140      0.0003
    123  CD1        3.8460  -16.2920  -14.1740 C.ar  140  TRP140      0.0946
    124  CD2        2.3660  -15.6370  -12.6250 C.ar  140  TRP140      0.0152
    125  NE1        4.5180  -15.5100  -13.2680 N.ar  140  TRP140     -0.2442
    126  CE2        3.6340  -15.0940  -12.3070 C.ar  140  TRP140      0.0810
    127  CE3        1.2790  -15.3580  -11.7910 C.ar  140  TRP140      0.0012
    128  CZ2        3.8400  -14.2890  -11.1820 C.ar  140  TRP140      0.0191
    129  CZ3        1.4830  -14.5610  -10.6770 C.ar  140  TRP140      0.0001
    130  CH2        2.7530  -14.0370  -10.3790 C.ar  140  TRP140      0.0015
    131  N          3.0530  -21.4690   -7.0260 N.3   174  HIS174     -0.1241
    132  CA         3.0220  -20.2160   -6.2710 C.3   174  HIS174      0.1621
    133  C          2.8640  -20.4630   -4.7680 C.2   174  HIS174      0.2264
    134  O          3.4750  -19.7670   -3.9490 O.2   174  HIS174     -0.2867
    135  CB         1.8890  -19.3250   -6.7640 C.3   174  HIS174      0.0745
    136  CG         1.9880  -18.9370   -8.2030 C.ar  174  HIS174      0.0817
    137  ND1        0.8760  -18.7980   -9.0110 N.ar  174  HIS174     -0.2268
    138  CD2        3.0560  -18.6120   -8.9690 C.ar  174  HIS174      0.1154
    139  CE1        1.2570  -18.4140  -10.2150 C.ar  174  HIS174      0.1986
    140  NE2        2.5750  -18.2970  -10.2180 N.ar  174  HIS174     -0.2212
    141  N          6.2430  -21.4690   -3.4510 N.3   177  THR177     -0.1203
    142  CA         7.0770  -20.2730   -3.3950 C.3   177  THR177      0.1994
    143  C          6.7020  -19.3960   -2.2040 C.2   177  THR177      0.2617
    144  O          7.5800  -18.9460   -1.4570 O.2   177  THR177     -0.2717
    145  CB         6.9630  -19.4750   -4.6900 C.3   177  THR177      0.1784
    146  OG1        7.1950  -20.3290   -5.8210 O.3   177  THR177     -0.2211
    147  CG2        7.9770  -18.3530   -4.6890 C.3   177  THR177      0.0376
    148  N          5.4110  -19.1380   -2.0140 N.am  178  ALA178     -0.1979
    149  CA         4.9460  -18.4580   -0.8070 C.3   178  ALA178      0.1597
    150  C          4.9220  -19.4290    0.3790 C.2   178  ALA178      0.2287
    151  O          5.7760  -19.3810    1.2560 O.2   178  ALA178     -0.2864
    152  CB         3.5530  -17.8460   -1.0330 C.3   178  ALA178      0.0319
@<TRIPOS>BOND
     1   120   119    2
     2   117   118    1
     3   110   111    2
     4   110   109    1
     5   119   118    1
     6    41    42    2
     7    41    40    1
     8    89    90    1
     9   108   109    1
    10   109   112    1
    11   118   121    1
    12    92    91    2
    13    91    90    1
    14    40    39    1
    15    40    43    1
    16   121   122    1
    17    90    93    1
    18   123   122   ar
    19   123   125   ar
    20    80    79    1
    21    80    81    2
    22   112   113    1
    23   122   124   ar
    24    43    44    1
    25   100    99    2
    26    97    98    1
    27    79    82    1
    28    79    78    1
    29     1     2    1
    30   125   126   ar
    31   113   114    1
    32    93    94    1
    33    82    83    1
    34   124   126   ar
    35   124   127   ar
    36     4     3    2
    37    94    95    2
    38    94    96   am
    39    99    98    1
    40    45    44   ar
    41    44    46   ar
    42   126   128   ar
    43    98   101    1
    44     2     3    1
    45     2     5    1
    46   127   129   ar
    47    83    84    1
    48   114   115    1
    49   106   105    1
    50    84    85    1
    51     5     6    1
    52   101   102    1
    53    35    36    1
    54   128   130   ar
    55   102   103    1
    56    37    36    1
    57    37    38    2
    58   115   116    1
    59   129   130   ar
    60   105   107    1
    61   105   104    2
    62    87    86    1
    63   140   139   ar
    64   140   138   ar
    65   139   137   ar
    66   103   104    1
    67    85    86    2
    68     6     8   ar
    69     6     7   ar
    70    47    48    1
    71    86    88    1
    72     8    10   ar
    73   137   136   ar
    74     7     9   ar
    75   138   136   ar
    76    50    49    2
    77    48    49    1
    78    48    51    1
    79    49    55   am
    80   136   135    1
    81    10    11   ar
    82    25    23   ar
    83    25    24   ar
    84    23    21   ar
    85    54    53    1
    86     9    11   ar
    87    51    52    1
    88    55    56    1
    89    52    53    1
    90    56    59    1
    91    56    57    1
    92   131   132    1
    93   135   132    1
    94    24    22   ar
    95    58    57    2
    96    21    20   ar
    97    21    19   ar
    98    59    60    1
    99    57    69   am
   100    20    18   ar
   101    29    28    2
   102   132   133    1
   103    15    14    2
   104   146   145    1
   105    22    19   ar
   106    19    17   ar
   107    69    70    1
   108    71    72    2
   109    71    70    1
   110    18    17   ar
   111    28    27    1
   112    60    61   ar
   113    60    62   ar
   114    34    32   am
   115    70    73    1
   116    17    16    1
   117   133   134    2
   118   145   147    1
   119   145   142    1
   120    14    26   am
   121    14    13    1
   122    27    26    1
   123    27    30    1
   124    61    63   ar
   125    65    62   ar
   126    65    67   ar
   127    62    64   ar
   128    32    31    1
   129    32    33    2
   130    76    75   ar
   131    74    75    1
   132    74    73    1
   133    31    30    1
   134    13    16    1
   135    13    12    1
   136    75    77   ar
   137   141   142    1
   138   142   143    1
   139    67    68   ar
   140    63    64   ar
   141    64    66   ar
   142   143   148   am
   143   143   144    2
   144   148   149    1
   145    68    66   ar
   146   152   149    1
   147   149   150    1
   148   150   151    2
