@<TRIPOS>MOLECULE
tmp/5eheA02.pdb
 174 167 0 0 0
SMALL
GASTEIGER

@<TRIPOS>ATOM
      1  N         12.2500    3.8060    1.9350 N.3    57  LEU57      -0.1245
      2  CA        13.6600    3.9230    1.6990 C.3    57  LEU57       0.1561
      3  C         14.4930    2.7710    2.2200 C.2    57  LEU57       0.2260
      4  O         14.2870    2.3750    3.3810 O.2    57  LEU57      -0.2867
      5  CB        14.1370    5.2630    2.4080 C.3    57  LEU57       0.0270
      6  CG        15.5990    5.5490    2.3170 C.3    57  LEU57       0.0019
      7  CD1       16.1080    5.7950    0.8880 C.3    57  LEU57       0.0001
      8  CD2       16.1390    6.6300    3.2840 C.3    57  LEU57       0.0001
      9  N         17.9530    2.2000    3.5770 N.3    59  ASN59      -0.1296
     10  CA        19.0730    3.0540    4.0290 C.3    59  ASN59       0.1339
     11  C         20.3340    2.2700    4.2760 C.3    59  ASN59       0.2014
     12  O         21.3340    2.8040    4.8950 O.3    59  ASN59      -0.2188
     13  CB        18.7150    3.8760    5.2650 C.3    59  ASN59       0.1102
     14  CG        18.3920    3.0080    6.4800 C.2    59  ASN59       0.2623
     15  OD1       18.7030    1.8220    6.5420 O.2    59  ASN59      -0.2716
     16  ND2       17.7390    3.6430    7.4520 N.am   59  ASN59      -0.0877
     17  N         12.9110    2.2340    5.8030 N.3    64  ASN64      -0.1240
     18  CA        12.0690    3.1370    6.5540 C.3    64  ASN64       0.1653
     19  C         10.8370    3.5500    5.7700 C.2    64  ASN64       0.2266
     20  O         10.9960    3.9780    4.6190 O.2    64  ASN64      -0.2867
     21  CB        12.8300    4.4340    6.8800 C.3    64  ASN64       0.1155
     22  CG        13.8630    4.2710    7.9500 C.2    64  ASN64       0.2627
     23  OD1       14.0840    3.1910    8.4930 O.2    64  ASN64      -0.2716
     24  ND2       14.5940    5.3800    8.2170 N.am   64  ASN64      -0.0877
     25  N          8.6690    6.6280    5.6750 N.3    66  GLU66      -0.1245
     26  CA         8.6040    8.0360    6.1800 C.3    66  GLU66       0.1567
     27  C          7.2990    8.7230    6.0590 C.2    66  GLU66       0.2260
     28  O          6.5060    8.4760    5.0790 O.2    66  GLU66      -0.2867
     29  CB         9.4450    8.8430    5.3120 C.3    66  GLU66       0.0388
     30  CG        10.8250    8.3660    5.4090 C.3    66  GLU66       0.1160
     31  CD        11.6440    8.8580    4.2320 C.2    66  GLU66       0.3649
     32  OE1       11.0450    9.4700    3.3210 O.co2  66  GLU66      -0.2457
     33  OE2       12.8720    8.6420    4.2120 O.co2  66  GLU66      -0.2457
     34  N          7.3480   10.0960   12.7260 N.3    88  ILE88      -0.1231
     35  CA         8.2530   10.4400   11.6350 C.3    88  ILE88       0.1692
     36  C          8.5280    9.2670   10.6810 C.2    88  ILE88       0.2591
     37  O          8.5340    9.4500    9.4430 O.2    88  ILE88      -0.2718
     38  CB         9.5660   11.1570   12.1590 C.3    88  ILE88       0.0266
     39  CG1       10.5060   11.4680   10.9610 C.3    88  ILE88       0.0019
     40  CG2       10.3490   10.3240   13.1330 C.3    88  ILE88       0.0020
     41  CD1       11.6640   12.3880   11.3430 C.3    88  ILE88       0.0001
     42  N          8.6920    8.0440   11.2070 N.am   89  GLN89      -0.1979
     43  CA         8.9870    6.8930   10.3280 C.3    89  GLN89       0.1601
     44  C          8.8550    5.6230   11.0980 C.2    89  GLN89       0.2287
     45  O          9.0150    5.6190   12.2640 O.2    89  GLN89      -0.2864
     46  CB        10.4300    6.8850    9.8700 C.3    89  GLN89       0.0394
     47  CG        11.4310    7.0170   11.0050 C.3    89  GLN89       0.0908
     48  CD        12.2190    5.7580   11.3350 C.2    89  GLN89       0.2608
     49  OE1       11.8620    4.5820   11.0150 O.2    89  GLN89      -0.2717
     50  NE2       13.3050    5.9920   11.9540 N.am   89  GLN89      -0.0878
     51  N         10.1650    1.3180   10.8490 N.3    91  HIS91      -0.1241
     52  CA        11.0340    0.3650   10.2830 C.3    91  HIS91       0.1621
     53  C         10.9950   -0.8770   11.1150 C.2    91  HIS91       0.2264
     54  O         10.2760   -0.9280   12.1220 O.2    91  HIS91      -0.2867
     55  CB        12.5190    0.8490   10.1930 C.3    91  HIS91       0.0745
     56  CG        13.0910    1.1470   11.5760 C.ar   91  HIS91       0.0817
     57  ND1       12.8730    2.3740   12.1880 N.ar   91  HIS91      -0.2268
     58  CD2       13.7230    0.3230   12.5240 C.ar   91  HIS91       0.1154
     59  CE1       13.3780    2.3050   13.3910 C.ar   91  HIS91       0.1986
     60  NE2       13.8830    1.0790   13.6360 N.ar   91  HIS91      -0.2212
     61  N         13.2630   -4.6440   12.3670 N.3    93  HIS93      -0.1241
     62  CA        14.4730   -5.4440   12.5930 C.3    93  HIS93       0.1621
     63  C         14.0550   -6.8680   12.4230 C.2    93  HIS93       0.2264
     64  O         13.0140   -7.2570   12.9780 O.2    93  HIS93      -0.2867
     65  CB        15.1000   -5.2090   13.9620 C.3    93  HIS93       0.0745
     66  CG        15.3980   -3.7600   14.2270 C.ar   93  HIS93       0.0817
     67  ND1       16.6630   -3.2530   14.0510 N.ar   93  HIS93      -0.2268
     68  CD2       14.5780   -2.7140   14.6100 C.ar   93  HIS93       0.1154
     69  CE1       16.6250   -1.9110   14.4260 C.ar   93  HIS93       0.1986
     70  NE2       15.3300   -1.5940   14.7060 N.ar   93  HIS93      -0.2212
     71  N          9.3480   -0.7990   14.8420 N.3   116  HIS116     -0.1241
     72  CA         9.5620    0.4250   15.6210 C.3   116  HIS116      0.1621
     73  C          8.8630    1.5820   14.9240 C.2   116  HIS116      0.2264
     74  O          9.2830    1.9210   13.7780 O.2   116  HIS116     -0.2867
     75  CB        11.0820    0.6820   15.6900 C.3   116  HIS116      0.0745
     76  CG        11.7600   -0.2800   16.5860 C.ar  116  HIS116      0.0817
     77  ND1       13.1420   -0.4520   16.5570 N.ar  116  HIS116     -0.2268
     78  CD2       11.2760   -1.0570   17.6000 C.ar  116  HIS116      0.1154
     79  CE1       13.4620   -1.3890   17.4390 C.ar  116  HIS116      0.1986
     80  NE2       12.3150   -1.7810   18.1010 N.ar  116  HIS116     -0.2212
     81  N          8.5720    5.3490   15.1770 N.3   118  VAL118     -0.1245
     82  CA         9.4020    6.3820   15.8100 C.3   118  VAL118      0.1561
     83  C          8.7110    7.6950   15.8920 C.2   118  VAL118      0.2260
     84  O          8.2610    8.2020   14.8340 O.2   118  VAL118     -0.2867
     85  CB        10.7610    6.4640   15.1110 C.3   118  VAL118      0.0252
     86  CG1       11.6600    7.5570   15.7880 C.3   118  VAL118      0.0019
     87  CG2       11.4880    5.1130   14.9360 C.3   118  VAL118      0.0019
     88  N         12.9360   16.4600   14.6860 N.3   127  PHE127     -0.1227
     89  CA        13.5950   15.2250   15.0980 C.3   127  PHE127      0.1736
     90  C         15.0290   15.4780   15.4720 C.2   127  PHE127      0.2596
     91  O         15.5260   14.8860   16.4670 O.2   127  PHE127     -0.2718
     92  CB        13.4870   14.1750   13.9470 C.3   127  PHE127      0.0547
     93  CG        14.1140   12.8100   14.2570 C.ar  127  PHE127     -0.0202
     94  CD1       13.4030   11.8330   14.9530 C.ar  127  PHE127     -0.0042
     95  CD2       15.4550   12.5320   13.8810 C.ar  127  PHE127     -0.0042
     96  CE1       14.0090   10.6610   15.2440 C.ar  127  PHE127     -0.0003
     97  CE2       16.0560   11.3310   14.1770 C.ar  127  PHE127     -0.0003
     98  CZ        15.3130   10.4150   14.8720 C.ar  127  PHE127     -0.0000
     99  N         15.7320   16.3180   14.6710 N.am  128  GLY128     -0.1957
    100  CA        17.1730   16.4050   14.9760 C.3   128  GLY128      0.1869
    101  C         17.4480   17.0690   16.3290 C.2   128  GLY128      0.2309
    102  O         18.4290   16.7480   17.0080 O.2   128  GLY128     -0.2863
    103  N         16.4310   14.3680   19.3650 N.3   131  VAL131     -0.1245
    104  CA        17.3300   13.2300   19.7680 C.3   131  VAL131      0.1561
    105  C         18.4260   13.6830   20.7190 C.2   131  VAL131      0.2260
    106  O         19.1000   12.8810   21.3310 O.2   131  VAL131     -0.2867
    107  CB        18.0240   12.4880   18.5830 C.3   131  VAL131      0.0252
    108  CG1       16.9850   11.7170   17.7660 C.3   131  VAL131      0.0019
    109  CG2       18.9000   13.3760   17.6960 C.3   131  VAL131      0.0019
    110  N          9.3270    5.6120   21.1340 N.3   139  VAL139     -0.1245
    111  CA         9.3570    4.5790   20.1120 C.3   139  VAL139      0.1561
    112  C          8.3700    3.5140   20.5860 C.2   139  VAL139      0.2260
    113  O          8.4610    2.9610   21.6940 O.2   139  VAL139     -0.2867
    114  CB        10.7530    3.9820   19.8040 C.3   139  VAL139      0.0252
    115  CG1       10.5720    2.9970   18.6330 C.3   139  VAL139      0.0019
    116  CG2       11.6650    5.1030   19.3390 C.3   139  VAL139      0.0019
    117  N         18.3130    4.9470   21.2160 N.3   194  LEU194     -0.1231
    118  CA        18.2220    4.4110   19.8210 C.3   194  LEU194      0.1693
    119  C         19.0000    3.1310   19.8540 C.2   194  LEU194      0.2593
    120  O         20.0190    2.9580   20.6010 O.2   194  LEU194     -0.2718
    121  CB        18.8760    5.3950   18.8480 C.3   194  LEU194      0.0284
    122  CG        18.4200    6.8150   18.8270 C.3   194  LEU194      0.0019
    123  CD1       19.2580    7.7890   17.9940 C.3   194  LEU194      0.0001
    124  CD2       16.9960    6.8610   18.4230 C.3   194  LEU194      0.0001
    125  N         18.5740    2.1360   19.0990 N.am  195  THR195     -0.1939
    126  CA        19.2410    0.8540   19.0520 C.3   195  THR195      0.2028
    127  C         20.2250    0.7760   17.8660 C.2   195  THR195      0.2643
    128  O         20.8570   -0.2730   17.7290 O.2   195  THR195     -0.2714
    129  CB        18.2220   -0.2830   18.9220 C.3   195  THR195      0.1808
    130  OG1       17.5770   -0.2170   17.6140 O.3   195  THR195     -0.2208
    131  CG2       17.2430   -0.3650   20.1250 C.3   195  THR195      0.0379
    132  N         20.3650    1.8450   17.0580 N.am  196  THR196     -0.1937
    133  CA        21.4950    1.9320   16.0420 C.3   196  THR196      0.2013
    134  C         22.2880    3.1630   16.3840 C.2   196  THR196      0.2484
    135  O         21.7930    4.1030   16.9740 O.2   196  THR196     -0.2729
    136  CB        20.9820    2.1100   14.5800 C.3   196  THR196      0.1807
    137  OG1       20.1210    3.2140   14.4910 O.3   196  THR196     -0.2208
    138  CG2       20.0810    0.9030   14.2110 C.3   196  THR196      0.0379
    139  N         23.5440    3.1830   15.9310 N.am  197  PRO197     -0.2715
    140  CA        24.2910    4.4320   16.0790 C.3   197  PRO197      0.1521
    141  C         23.4380    5.5540   15.5360 C.2   197  PRO197      0.2440
    142  O         22.8190    5.4670   14.4330 O.2   197  PRO197     -0.2731
    143  CB        25.5150    4.1320   15.1410 C.3   197  PRO197      0.0310
    144  CG        25.7470    2.7080   15.3470 C.3   197  PRO197      0.0237
    145  CD        24.3020    2.1390   15.2220 C.3   197  PRO197      0.0939
    146  N         23.4390    6.7220   16.1950 N.am  198  PRO198     -0.2727
    147  CA        24.3760    7.1480   17.2510 C.3   198  PRO198      0.1402
    148  C         24.0620    6.6990   18.7070 C.2   198  PRO198      0.2269
    149  O         24.6610    7.1240   19.6950 O.2   198  PRO198     -0.2865
    150  CB        24.3140    8.6780   17.1640 C.3   198  PRO198      0.0296
    151  CG        22.9720    9.0000   16.6110 C.3   198  PRO198      0.0237
    152  CD        22.6790    7.8550   15.6240 C.3   198  PRO198      0.0939
    153  N         21.7980    7.3210   20.8150 N.3   200  LEU200     -0.1245
    154  CA        21.5860    8.4140   21.7920 C.3   200  LEU200      0.1561
    155  C         20.4900    8.0460   22.8010 C.2   200  LEU200      0.2260
    156  O         19.5090    7.3030   22.4890 O.2   200  LEU200     -0.2867
    157  CB        21.1530    9.6460   21.0430 C.3   200  LEU200      0.0270
    158  CG        22.2260   10.2380   20.0820 C.3   200  LEU200      0.0019
    159  CD1       21.6350   11.3660   19.2060 C.3   200  LEU200      0.0001
    160  CD2       23.3470   10.8600   20.9600 C.3   200  LEU200      0.0001
    161  N         10.7830    4.1390   25.6820 N.3   205  TRP205     -0.1241
    162  CA        10.3260    2.9350   24.9630 C.3   205  TRP205      0.1605
    163  C          8.9650    2.5220   25.4580 C.2   205  TRP205      0.2264
    164  O          8.7580    2.4390   26.6900 O.2   205  TRP205     -0.2867
    165  CB        11.3610    1.7400   25.2320 C.3   205  TRP205      0.0550
    166  CG        12.4950    1.8270   24.2450 C.ar  205  TRP205      0.0003
    167  CD1       13.7540    2.4210   24.4110 C.ar  205  TRP205      0.0946
    168  CD2       12.4070    1.4390   22.8620 C.ar  205  TRP205      0.0152
    169  NE1       14.4260    2.4170   23.2230 N.ar  205  TRP205     -0.2442
    170  CE2       13.6960    1.7680   22.2530 C.ar  205  TRP205      0.0810
    171  CE3       11.4250    0.7760   22.0750 C.ar  205  TRP205      0.0012
    172  CZ2       13.9750    1.5810   20.9170 C.ar  205  TRP205      0.0191
    173  CZ3       11.7320    0.5220   20.7420 C.ar  205  TRP205      0.0001
    174  CH2       12.9940    0.9000   20.1520 C.ar  205  TRP205      0.0015
@<TRIPOS>BOND
     1     7     6    1
     2     2     1    1
     3     2     3    1
     4     2     5    1
     5     3     4    2
     6     6     5    1
     7     6     8    1
     8    32    31   ar
     9     9    10    1
    10    10    11    1
    11    10    13    1
    12    33    31   ar
    13    31    30    1
    14    11    12    1
    15    20    19    2
    16    28    27    2
    17    13    14    1
    18    29    30    1
    19    29    26    1
    20    25    26    1
    21    19    18    1
    22    17    18    1
    23    27    26    1
    24    14    15    2
    25    14    16   am
    26    18    21    1
    27    21    22    1
    28    22    24   am
    29    22    23    2
    30    37    36    2
    31    46    43    1
    32    46    47    1
    33    55    52    1
    34    55    56    1
    35    52    51    1
    36    52    53    1
    37    43    44    1
    38    43    42    1
    39    36    42   am
    40    36    35    1
    41    39    41    1
    42    39    38    1
    43    47    48    1
    44    49    48    2
    45    44    45    2
    46    53    54    2
    47    48    50   am
    48    56    57   ar
    49    56    58   ar
    50    35    38    1
    51    35    34    1
    52    38    40    1
    53    57    59   ar
    54    61    62    1
    55    63    62    1
    56    63    64    2
    57    58    60   ar
    58    62    65    1
    59    59    60   ar
    60    74    73    2
    61    95    97   ar
    62    95    93   ar
    63    92    93    1
    64    92    89    1
    65    65    66    1
    66    67    66   ar
    67    67    69   ar
    68    97    98   ar
    69   138   136    1
    70    66    68   ar
    71    93    94   ar
    72    69    70   ar
    73   142   141    2
    74   137   136    1
    75   136   133    1
    76    68    70   ar
    77    99   100    1
    78    99    90   am
    79    88    89    1
    80    84    83    2
    81    71    72    1
    82    98    96   ar
    83    73    72    1
    84    87    85    1
    85    94    96   ar
    86   100   101    1
    87    89    90    1
    88    85    86    1
    89    85    82    1
    90   143   144    1
    91   143   140    1
    92    81    82    1
    93   145   144    1
    94   145   139    1
    95    90    91    2
    96   141   140    1
    97   141   146   am
    98    72    75    1
    99   152   146    1
   100   152   151    1
   101    75    76    1
   102    82    83    1
   103   139   140    1
   104   139   134   am
   105   133   134    1
   106   133   132    1
   107   146   147    1
   108   101   102    2
   109   134   135    2
   110    77    76   ar
   111    77    79   ar
   112    76    78   ar
   113   151   150    1
   114   132   127   am
   115   150   147    1
   116   147   148    1
   117    79    80   ar
   118    78    80   ar
   119   130   129    1
   120   109   107    1
   121   128   127    2
   122   108   107    1
   123   127   126    1
   124   123   122    1
   125   124   122    1
   126   107   104    1
   127   115   114    1
   128   148   149    2
   129   122   121    1
   130   121   118    1
   131   129   126    1
   132   129   131    1
   133   126   125    1
   134   125   119   am
   135   159   158    1
   136   116   114    1
   137   103   104    1
   138   104   105    1
   139   114   111    1
   140   118   119    1
   141   118   117    1
   142   119   120    2
   143   158   160    1
   144   158   157    1
   145   111   112    1
   146   111   110    1
   147   174   173   ar
   148   174   172   ar
   149   112   113    2
   150   105   106    2
   151   173   171   ar
   152   153   154    1
   153   172   170   ar
   154   157   154    1
   155   154   155    1
   156   171   168   ar
   157   170   168   ar
   158   170   169   ar
   159   156   155    2
   160   168   166   ar
   161   169   167   ar
   162   166   167   ar
   163   166   165    1
   164   162   165    1
   165   162   163    1
   166   162   161    1
   167   163   164    2
