@<TRIPOS>MOLECULE
tmp/5eheA01.pdb
 88 89 0 0 0
SMALL
GASTEIGER

@<TRIPOS>ATOM
      1  N         27.3260   -5.0210   16.2740 N.3    10  PRO10      -0.2102
      2  CA        27.0670   -4.4000   17.5630 C.3    10  PRO10       0.1504
      3  C         28.1740   -4.3990   18.5600 C.2    10  PRO10       0.2575
      4  O         28.3700   -3.3910   19.2510 O.2    10  PRO10      -0.2718
      5  CB        25.8780   -5.2530   18.1040 C.3    10  PRO10       0.0282
      6  CG        25.1570   -5.5760   16.8620 C.3    10  PRO10       0.0208
      7  CD        26.1710   -5.7980   15.7610 C.3    10  PRO10       0.0893
      8  N         28.9340   -5.4850   18.6340 N.am   11  GLU11      -0.1980
      9  CA        30.0300   -5.5520   19.5680 C.3    11  GLU11       0.1602
     10  C         31.1970   -4.5590   19.2380 C.2    11  GLU11       0.2287
     11  O         32.0390   -4.3550   20.0980 O.2    11  GLU11      -0.2864
     12  CB        30.5820   -7.0040   19.5970 C.3    11  GLU11       0.0415
     13  CG        31.2030   -7.3710   18.2440 C.3    11  GLU11       0.1163
     14  CD        30.3450   -8.0450   17.1730 C.2    11  GLU11       0.3649
     15  OE1       29.0950   -7.8010   17.0350 O.co2  11  GLU11      -0.2457
     16  OE2       30.9980   -8.8220   16.3840 O.co2  11  GLU11      -0.2457
     17  N         30.4840   -1.3240   17.9360 N.3    13  TRP13      -0.1227
     18  CA        29.9910    0.0300   17.9460 C.3    13  TRP13       0.1737
     19  C         30.5550    0.9980   18.9020 C.2    13  TRP13       0.2592
     20  O         30.6190    2.2000   18.5900 O.2    13  TRP13      -0.2718
     21  CB        28.4300   -0.0090   18.0810 C.3    13  TRP13       0.0564
     22  CG        27.7320   -0.6870   16.9160 C.ar   13  TRP13       0.0003
     23  CD1       28.2800   -1.1520   15.7150 C.ar   13  TRP13       0.0946
     24  CD2       26.3080   -0.9910   16.8230 C.ar   13  TRP13       0.0152
     25  NE1       27.3060   -1.7020   14.9130 N.ar   13  TRP13      -0.2442
     26  CE2       26.0990   -1.6380   15.5240 C.ar   13  TRP13       0.0810
     27  CE3       25.2250   -0.7990   17.6600 C.ar   13  TRP13       0.0012
     28  CZ2       24.8440   -2.0580   15.1120 C.ar   13  TRP13       0.0191
     29  CZ3       23.9680   -1.2210   17.2380 C.ar   13  TRP13       0.0001
     30  CH2       23.7810   -1.8400   15.9980 C.ar   13  TRP13       0.0015
     31  N         30.9940    0.5300   20.0600 N.am   14  HIS14      -0.2029
     32  CA        31.4380    1.4000   21.1210 C.3    14  HIS14       0.1342
     33  C         32.7220    2.1310   20.7100 C.3    14  HIS14       0.2040
     34  O         32.9400    3.1980   21.3240 O.3    14  HIS14      -0.2185
     35  CB        31.6940    0.6830   22.4250 C.3    14  HIS14       0.0718
     36  CG        32.9080   -0.2430   22.3520 C.ar   14  HIS14       0.0817
     37  ND1       34.0780    0.1180   22.9020 N.ar   14  HIS14      -0.2268
     38  CD2       33.0970   -1.4480   21.7490 C.ar   14  HIS14       0.1154
     39  CE1       35.0150   -0.8150   22.6210 C.ar   14  HIS14       0.1986
     40  NE2       34.4540   -1.7730   21.9320 N.ar   14  HIS14      -0.2212
     41  N         27.6110    3.5680   23.4750 N.3    20  ALA20      -0.1231
     42  CA        27.1490    2.1290   23.3990 C.3    20  ALA20       0.1694
     43  C         27.2500    1.3920   24.7550 C.2    20  ALA20       0.2591
     44  O         26.5440    0.3750   24.9900 O.2    20  ALA20      -0.2718
     45  CB        27.9880    1.3330   22.3530 C.3    20  ALA20       0.0304
     46  N         28.1460    1.8300   25.6610 N.am   21  LYS21      -0.1980
     47  CA        28.2940    1.1660   26.9630 C.3    21  LYS21       0.1596
     48  C         27.7170    2.1060   28.0100 C.2    21  LYS21       0.2287
     49  O         28.0730    2.0400   29.2080 O.2    21  LYS21      -0.2864
     50  CB        29.7920    0.8860   27.3060 C.3    21  LYS21       0.0298
     51  CG        30.4120   -0.0500   26.3410 C.3    21  LYS21       0.0038
     52  CD        31.9100   -0.1900   26.7280 C.3    21  LYS21       0.0206
     53  CE        32.5840   -1.2140   25.7840 C.3    21  LYS21       0.1093
     54  NZ        32.3040   -2.5780   26.3420 N.3    21  LYS21      -0.1314
     55  N         20.1600   -5.4100   17.1590 N.3   242  ARG242     -0.1231
     56  CA        21.1280   -5.3290   18.2800 C.3   242  ARG242      0.1679
     57  C         20.6760   -6.1990   19.4370 C.2   242  ARG242      0.2434
     58  O         19.4940   -6.2130   19.7590 O.2   242  ARG242     -0.2733
     59  CB        21.1140   -3.8410   18.7990 C.3   242  ARG242      0.0321
     60  CG        22.2450   -3.5960   19.7970 C.3   242  ARG242      0.0489
     61  CD        22.1810   -2.2210   20.4590 C.3   242  ARG242      0.2205
     62  NE        23.4710   -1.9960   21.2160 N.pl3 242  ARG242     -0.0865
     63  CZ        23.6710   -0.9570   22.0300 C.cat 242  ARG242      0.5346
     64  NH1       22.6810   -0.0850   22.3480 N.pl3 242  ARG242      0.1354
     65  NH2       24.8980   -0.7260   22.5430 N.pl3 242  ARG242      0.1354
     66  N         21.4920   -7.0410   20.0690 N.am  243  PRO243     -0.2729
     67  CA        21.0720   -7.8520   21.1870 C.3   243  PRO243      0.1401
     68  C         20.7740   -7.0600   22.4890 C.2   243  PRO243      0.2269
     69  O         21.1860   -5.8560   22.6350 O.2   243  PRO243     -0.2865
     70  CB        22.3400   -8.7380   21.4800 C.3   243  PRO243      0.0296
     71  CG        23.2210   -8.5550   20.2800 C.3   243  PRO243      0.0237
     72  CD        22.9250   -7.1920   19.7020 C.3   243  PRO243      0.0939
     73  N         20.8600   -5.3690   26.0250 N.3   245  GLN245     -0.1231
     74  CA        21.9460   -4.6480   26.7500 C.3   245  GLN245      0.1683
     75  C         21.6120   -4.6860   28.2250 C.2   245  GLN245      0.2434
     76  O         20.4440   -4.9160   28.6360 O.2   245  GLN245     -0.2733
     77  CB        22.0020   -3.2450   26.2420 C.3   245  GLN245      0.0380
     78  CG        22.3320   -3.1410   24.7320 C.3   245  GLN245      0.0905
     79  CD        23.6650   -3.7940   24.3520 C.2   245  GLN245      0.2608
     80  OE1       24.7120   -3.4910   25.0140 O.2   245  GLN245     -0.2717
     81  NE2       23.6680   -4.7190   23.3800 N.am  245  GLN245     -0.0878
     82  N         22.6310   -4.4230   29.0980 N.am  246  PRO246     -0.2729
     83  CA        22.3450   -4.5160   30.5390 C.3   246  PRO246      0.1401
     84  C         21.3190   -3.4560   30.9990 C.2   246  PRO246      0.2269
     85  O         21.3340   -2.2900   30.5480 O.2   246  PRO246     -0.2865
     86  CB        23.7160   -4.2010   31.1670 C.3   246  PRO246      0.0296
     87  CG        24.6810   -4.6210   30.1440 C.3   246  PRO246      0.0237
     88  CD        24.0450   -4.1710   28.8120 C.3   246  PRO246      0.0939
@<TRIPOS>BOND
     1    25    26   ar
     2    25    23   ar
     3    28    26   ar
     4    28    30   ar
     5    26    24   ar
     6    23    22   ar
     7     7     1    1
     8     7     6    1
     9    30    29   ar
    10     1     2    1
    11    16    14   ar
    12    24    22   ar
    13    24    27   ar
    14     6     5    1
    15    22    21    1
    16    15    14   ar
    17    55    56    1
    18    14    13    1
    19    29    27   ar
    20     2     5    1
    21     2     3    1
    22    17    18    1
    23    18    21    1
    24    18    19    1
    25    13    12    1
    26    56    59    1
    27    56    57    1
    28     3     8   am
    29     3     4    2
    30    20    19    2
    31     8     9    1
    32    59    60    1
    33    19    31   am
    34    10     9    1
    35    10    11    2
    36    57    58    2
    37    57    66   am
    38     9    12    1
    39    72    66    1
    40    72    71    1
    41    60    61    1
    42    31    32    1
    43    66    67    1
    44    71    70    1
    45    61    62    1
    46    33    32    1
    47    33    34    1
    48    32    35    1
    49    67    70    1
    50    67    68    1
    51    62    63    2
    52    38    40   ar
    53    38    36   ar
    54    40    39   ar
    55    63    64    1
    56    63    65    1
    57    36    35    1
    58    36    37   ar
    59    45    42    1
    60    68    69    2
    61    39    37   ar
    62    81    79   am
    63    42    41    1
    64    42    43    1
    65    79    78    1
    66    79    80    2
    67    78    77    1
    68    43    44    2
    69    43    46   am
    70    46    47    1
    71    53    54    1
    72    53    52    1
    73    73    74    1
    74    77    74    1
    75    51    52    1
    76    51    50    1
    77    74    75    1
    78    47    50    1
    79    47    48    1
    80    48    49    2
    81    75    76    2
    82    75    82   am
    83    88    82    1
    84    88    87    1
    85    82    83    1
    86    87    86    1
    87    83    84    1
    88    83    86    1
    89    85    84    2
