@<TRIPOS>MOLECULE
tmp/5ehfA01.pdb
 100 92 0 0 0
SMALL
GASTEIGER

@<TRIPOS>ATOM
      1  N          6.2250   28.0080   12.4200 N.3   321  ALA321     -0.1231
      2  CA         7.3050   27.7100   13.2950 C.3   321  ALA321      0.1694
      3  C          7.0980   28.3860   14.6450 C.2   321  ALA321      0.2592
      4  O          6.7730   29.5760   14.7090 O.2   321  ALA321     -0.2718
      5  CB         8.6130   28.1610   12.6550 C.3   321  ALA321      0.0304
      6  N          7.2650   27.6330   15.7290 N.am  322  GLY322     -0.1957
      7  CA         7.0650   28.1670   17.1060 C.3   322  GLY322      0.1869
      8  C          5.6020   28.1330   17.5390 C.2   322  GLY322      0.2309
      9  O          5.2620   28.5270   18.6510 O.2   322  GLY322     -0.2863
     10  N          8.4990   25.1900   23.0680 N.3   327  VAL327     -0.1245
     11  CA         9.2670   25.0910   21.8300 C.3   327  VAL327      0.1561
     12  C         10.7330   25.1070   22.1490 C.2   327  VAL327      0.2260
     13  O         11.2020   25.9550   22.9230 O.2   327  VAL327     -0.2867
     14  CB         8.9060   26.2820   20.8980 C.3   327  VAL327      0.0252
     15  CG1        9.6220   26.1710   19.5690 C.3   327  VAL327      0.0019
     16  CG2        7.3960   26.3740   20.6790 C.3   327  VAL327      0.0019
     17  N         14.8080   24.2660   20.5830 N.3   329  ASN329     -0.1240
     18  CA        15.8360   23.8200   19.6690 C.3   329  ASN329      0.1653
     19  C         16.8860   22.9680   20.4300 C.2   329  ASN329      0.2266
     20  O         17.6370   23.4650   21.2820 O.2   329  ASN329     -0.2867
     21  CB        16.4640   25.0400   19.0320 C.3   329  ASN329      0.1155
     22  CG        17.3150   24.7040   17.8410 C.2   329  ASN329      0.2627
     23  OD1       16.8570   24.0490   16.8670 O.2   329  ASN329     -0.2716
     24  ND2       18.5510   25.2140   17.8590 N.am  329  ASN329     -0.0877
     25  N          7.0650   21.3440   20.4750 N.3   383  GLU383     -0.1245
     26  CA         7.7820   21.3720   19.1770 C.3   383  GLU383      0.1567
     27  C          9.2630   21.3590   19.4150 C.2   383  GLU383      0.2260
     28  O          9.8150   22.2160   20.1110 O.2   383  GLU383     -0.2867
     29  CB         7.3910   22.6370   18.3300 C.3   383  GLU383      0.0388
     30  CG         8.1890   22.7230   17.0200 C.3   383  GLU383      0.1160
     31  CD         7.6100   23.8130   16.1020 C.2   383  GLU383      0.3649
     32  OE1        7.9280   25.0030   16.3270 O.co2 383  GLU383     -0.2457
     33  OE2        6.7810   23.4790   15.2480 O.co2 383  GLU383     -0.2457
     34  N         13.0170   21.2870   17.4750 N.3   385  SER385     -0.1217
     35  CA        13.8680   21.2410   16.2870 C.3   385  SER385      0.1889
     36  C         15.1600   20.5810   16.7260 C.2   385  SER385      0.2288
     37  O         15.6320   20.7480   17.8650 O.2   385  SER385     -0.2866
     38  CB        14.1070   22.6580   15.7060 C.3   385  SER385      0.2089
     39  OG        14.4670   23.5340   16.7700 O.3   385  SER385     -0.2183
     40  N         18.5810   20.2270   14.9070 N.3   387  PRO387     -0.2102
     41  CA        19.4390   20.4090   13.7090 C.3   387  PRO387      0.1504
     42  C         20.5510   19.3610   13.6320 C.2   387  PRO387      0.2576
     43  O         21.1740   19.0010   14.6540 O.2   387  PRO387     -0.2718
     44  CB        19.9700   21.8760   13.8270 C.3   387  PRO387      0.0282
     45  CG        19.6320   22.3030   15.2100 C.3   387  PRO387      0.0208
     46  CD        18.4840   21.4560   15.7180 C.3   387  PRO387      0.0893
     47  N         20.7340   18.8420   12.4220 N.am  388  GLY388     -0.1957
     48  CA        21.6890   17.8200   12.1370 C.3   388  GLY388      0.1869
     49  C         23.0430   18.4460   12.1870 C.2   388  GLY388      0.2309
     50  O         23.1730   19.6590   12.1950 O.2   388  GLY388     -0.2863
     51  N          9.2340   18.5630    9.4640 N.3   408  ARG408     -0.1245
     52  CA        10.3070   18.7620    8.5060 C.3   408  ARG408      0.1563
     53  C         11.2920   17.6040    8.6550 C.2   408  ARG408      0.2260
     54  O         11.7320   17.2900    9.7710 O.2   408  ARG408     -0.2867
     55  CB        11.0480   20.0830    8.8050 C.3   408  ARG408      0.0307
     56  CG        12.2580   20.2420    7.8890 C.3   408  ARG408      0.0489
     57  CD        12.8360   21.6250    7.9460 C.3   408  ARG408      0.2205
     58  NE        13.9710   21.7310    7.0100 N.pl3 408  ARG408     -0.0865
     59  CZ        14.8470   22.7190    7.0810 C.cat 408  ARG408      0.5346
     60  NH1       14.6570   23.6960    7.9990 N.pl3 408  ARG408      0.1354
     61  NH2       15.8650   22.7710    6.2060 N.pl3 408  ARG408      0.1354
     62  N          8.3510   22.5490    5.4840 N.3   415  TYR415     -0.1241
     63  CA         7.6450   22.4000    6.7640 C.3   415  TYR415      0.1605
     64  C          6.2360   22.0020    6.4050 C.2   415  TYR415      0.2264
     65  O          5.5260   22.7920    5.7740 O.2   415  TYR415     -0.2867
     66  CB         7.6280   23.7260    7.5290 C.3   415  TYR415      0.0534
     67  CG         8.9390   24.0220    8.1540 C.ar  415  TYR415     -0.0201
     68  CD1        9.2120   23.6090    9.4700 C.ar  415  TYR415     -0.0009
     69  CD2        9.9710   24.6250    7.3990 C.ar  415  TYR415     -0.0009
     70  CE1       10.4280   23.8760   10.0560 C.ar  415  TYR415      0.0417
     71  CE2       11.1950   24.8640    7.9650 C.ar  415  TYR415      0.0417
     72  CZ        11.4260   24.4980    9.2900 C.ar  415  TYR415      0.1957
     73  OH        12.6690   24.7340    9.8520 O.3   415  TYR415     -0.2866
     74  N         22.8230   21.5950    8.1000 N.3   432  GLY432     -0.1210
     75  CA        21.9350   22.1190    7.0660 C.3   432  GLY432      0.1956
     76  C         20.5350   21.5270    7.2530 C.2   432  GLY432      0.2612
     77  O         19.5660   22.1130    6.8630 O.2   432  GLY432     -0.2717
     78  N         20.4390   20.3650    7.9060 N.am  433  ASP433     -0.1959
     79  CA        19.1170   19.7980    8.1670 C.3   433  ASP433      0.1840
     80  C         18.5540   20.3930    9.4620 C.2   433  ASP433      0.2622
     81  O         19.3050   20.7470   10.4180 O.2   433  ASP433     -0.2715
     82  CB        19.2330   18.2680    8.2310 C.3   433  ASP433      0.1450
     83  CG        19.5950   17.6790    6.9050 C.2   433  ASP433      0.3671
     84  OD1       19.0850   18.1760    5.8940 O.co2 433  ASP433     -0.2456
     85  OD2       20.4250   16.7630    6.8700 O.co2 433  ASP433     -0.2456
     86  N         17.2310   20.5190    9.5140 N.am  434  ASN434     -0.1972
     87  CA        16.6280   20.9550   10.7750 C.3   434  ASN434      0.1688
     88  C         15.3050   20.2420   11.0270 C.2   434  ASN434      0.2292
     89  O         14.2230   20.8660   11.0520 O.2   434  ASN434     -0.2864
     90  CB        16.3950   22.4860   10.7660 C.3   434  ASN434      0.1181
     91  CG        16.3610   23.0660   12.1640 C.2   434  ASN434      0.2629
     92  OD1       16.4030   22.3400   13.1850 O.2   434  ASN434     -0.2716
     93  ND2       16.2970   24.3910   12.2360 N.am  434  ASN434     -0.0877
     94  N         12.1770   18.7770   12.4710 N.3   436  THR436     -0.1218
     95  CA        11.3490   19.4500   13.4410 C.3   436  THR436      0.1862
     96  C         10.1170   18.6180   13.6420 C.2   436  THR436      0.2287
     97  O          9.4980   18.1960   12.6770 O.2   436  THR436     -0.2866
     98  CB        10.9800   20.8490   12.9000 C.3   436  THR436      0.1770
     99  OG1       12.2040   21.5880   12.7140 O.3   436  THR436     -0.2211
    100  CG2        9.9300   21.6350   13.8120 C.3   436  THR436      0.0375
@<TRIPOS>BOND
     1    62    63    1
     2    65    64    2
     3    84    83   ar
     4    61    59    1
     5    64    63    1
     6    63    66    1
     7    77    76    2
     8    85    83   ar
     9    83    82    1
    10    58    59    2
    11    58    57    1
    12    75    76    1
    13    75    74    1
    14    59    60    1
    15    76    78   am
    16    69    71   ar
    17    69    67   ar
    18    66    67    1
    19    56    57    1
    20    56    55    1
    21    78    79    1
    22    71    72   ar
    23    67    68   ar
    24    79    82    1
    25    79    80    1
    26    52    53    1
    27    52    55    1
    28    52    51    1
    29    53    54    2
    30    72    73    1
    31    72    70   ar
    32    80    86   am
    33    80    81    2
    34    68    70   ar
    35    86    87    1
    36    90    87    1
    37    90    91    1
    38    87    88    1
    39    88    89    2
    40    48    49    1
    41    48    47    1
    42    91    93   am
    43    91    92    2
    44    49    50    2
    45     1     2    1
    46    47    42   am
    47    94    95    1
    48     5     2    1
    49    97    96    2
    50    99    98    1
    51    98    95    1
    52    98   100    1
    53     2     3    1
    54    95    96    1
    55    42    41    1
    56    42    43    2
    57    41    44    1
    58    41    40    1
    59    44    45    1
    60     3     4    2
    61     3     6   am
    62    40    46    1
    63    45    46    1
    64    33    31   ar
    65    38    35    1
    66    38    39    1
    67     6     7    1
    68    31    32   ar
    69    31    30    1
    70    35    36    1
    71    35    34    1
    72    36    37    2
    73    23    22    2
    74    30    29    1
    75     7     8    1
    76     8     9    2
    77    22    24   am
    78    22    21    1
    79    29    26    1
    80    21    18    1
    81    26    27    1
    82    26    25    1
    83    27    28    2
    84    15    14    1
    85    18    19    1
    86    18    17    1
    87    19    20    2
    88    16    14    1
    89    14    11    1
    90    11    12    1
    91    11    10    1
    92    12    13    2
