@<TRIPOS>MOLECULE
tmp/5ehiA01.pdb
 93 88 0 0 0
SMALL
GASTEIGER

@<TRIPOS>ATOM
      1  N         49.5610   44.7120   -5.2760 N.3    58  TRP58      -0.1241
      2  CA        50.3800   44.5020   -4.1060 C.3    58  TRP58       0.1605
      3  C         50.7130   43.0410   -3.9090 C.2    58  TRP58       0.2264
      4  O         51.8870   42.6870   -3.6660 O.2    58  TRP58      -0.2867
      5  CB        49.6740   45.1360   -2.8840 C.3    58  TRP58       0.0550
      6  CG        50.5040   45.1850   -1.6410 C.ar   58  TRP58       0.0003
      7  CD1       51.3400   46.2020   -1.2790 C.ar   58  TRP58       0.0946
      8  CD2       50.7440   44.1070   -0.7110 C.ar   58  TRP58       0.0152
      9  NE1       52.0400   45.8510   -0.1420 N.ar   58  TRP58      -0.2442
     10  CE2       51.7220   44.5540    0.2020 C.ar   58  TRP58       0.0810
     11  CE3       50.1630   42.8430   -0.5040 C.ar   58  TRP58       0.0012
     12  CZ2       52.1220   43.7880    1.3110 C.ar   58  TRP58       0.0191
     13  CZ3       50.5960   42.0640    0.5660 C.ar   58  TRP58       0.0001
     14  CH2       51.5620   42.5450    1.4600 C.ar   58  TRP58       0.0015
     15  N         54.5380   40.8170   -5.1220 N.3    62  ARG62      -0.1245
     16  CA        55.1990   39.9990   -4.0890 C.3    62  ARG62       0.1563
     17  C         55.1370   38.5220   -4.4350 C.2    62  ARG62       0.2260
     18  O         55.4860   37.6880   -3.5980 O.2    62  ARG62      -0.2867
     19  CB        54.6190   40.2910   -2.6930 C.3    62  ARG62       0.0307
     20  CG        55.0860   41.6430   -2.2350 C.3    62  ARG62       0.0489
     21  CD        54.1660   42.3040   -1.2290 C.3    62  ARG62       0.2205
     22  NE        54.7020   43.6390   -0.9420 N.pl3  62  ARG62      -0.0865
     23  CZ        54.5870   44.7030   -1.7310 C.cat  62  ARG62       0.5346
     24  NH1       53.8650   44.6380   -2.8580 N.pl3  62  ARG62       0.1354
     25  NH2       55.1840   45.8430   -1.4010 N.pl3  62  ARG62       0.1354
     26  N         52.7450   36.5200   -4.5750 N.3    64  MET64      -0.1245
     27  CA        51.8130   35.7310   -3.7510 C.3    64  MET64       0.1570
     28  C         50.7340   35.0740   -4.5930 C.2    64  MET64       0.2261
     29  O         50.2370   34.0280   -4.2290 O.2    64  MET64      -0.2867
     30  CB        51.1850   36.6230   -2.6880 C.3    64  MET64       0.0387
     31  CG        52.2170   37.0840   -1.6890 C.3    64  MET64       0.0595
     32  SD        51.5210   38.3260   -0.6000 S.3    64  MET64      -0.1393
     33  CE        52.8150   38.5070    0.6030 C.3    64  MET64       0.0692
     34  N         46.9360   36.2310    3.9450 N.3   199  VAL199     -0.1231
     35  CA        47.7560   37.4420    4.0390 C.3   199  VAL199      0.1692
     36  C         46.8900   38.6810    4.2410 C.2   199  VAL199      0.2591
     37  O         45.8590   38.8590    3.5600 O.2   199  VAL199     -0.2718
     38  CB        48.5650   37.5840    2.7340 C.3   199  VAL199      0.0266
     39  CG1       49.4800   38.8150    2.7850 C.3   199  VAL199      0.0020
     40  CG2       49.4350   36.3380    2.5020 C.3   199  VAL199      0.0020
     41  N         47.3310   39.5750    5.1380 N.am  200  ARG200     -0.1980
     42  CA        46.7460   40.8700    5.3100 C.3   200  ARG200      0.1597
     43  C         47.3880   41.8750    4.3530 C.2   200  ARG200      0.2287
     44  O         48.6020   42.0820    4.3670 O.2   200  ARG200     -0.2864
     45  CB        46.8910   41.3150    6.7600 C.3   200  ARG200      0.0334
     46  CG        46.3370   42.6790    7.0560 C.3   200  ARG200      0.0492
     47  CD        44.8050   42.7280    7.0380 C.3   200  ARG200      0.2205
     48  NE        44.3790   44.0780    7.3750 N.pl3 200  ARG200     -0.0865
     49  CZ        43.1240   44.4000    7.6320 C.cat 200  ARG200      0.5346
     50  NH1       42.1610   43.4910    7.5200 N.pl3 200  ARG200      0.1354
     51  NH2       42.8040   45.6420    7.9420 N.pl3 200  ARG200      0.1354
     52  N         50.4570   31.2070   -3.3700 N.3   216  ASN216     -0.1225
     53  CA        51.9130   30.9730   -3.3140 C.3   216  ASN216      0.1785
     54  C         52.4340   31.4250   -1.9990 C.2   216  ASN216      0.2598
     55  O         52.8440   32.5810   -1.8130 O.2   216  ASN216     -0.2718
     56  CB        52.6200   31.6830   -4.4910 C.3   216  ASN216      0.1169
     57  CG        51.9450   31.4680   -5.8250 C.2   216  ASN216      0.2627
     58  OD1       51.2500   30.4500   -6.0680 O.2   216  ASN216     -0.2716
     59  ND2       52.1110   32.4010   -6.7280 N.am  216  ASN216     -0.0877
     60  N         52.4380   30.4930   -1.0690 N.am  217  GLY217     -0.1942
     61  CA        52.9570   30.7620    0.2640 C.3   217  GLY217      0.2014
     62  C         52.5470   29.6570    1.1910 C.2   217  GLY217      0.2639
     63  O         51.7170   28.8190    0.8410 O.2   217  GLY217     -0.2714
     64  N         53.1190   29.6580    2.3820 N.am  218  THR218     -0.1950
     65  CA        52.8460   28.6570    3.3760 C.3   218  THR218      0.1897
     66  C         52.8150   29.3990    4.6840 C.2   218  THR218      0.2313
     67  O         53.2610   30.5440    4.7840 O.2   218  THR218     -0.2863
     68  CB        53.9410   27.5420    3.3880 C.3   218  THR218      0.1794
     69  OG1       55.2020   28.1190    3.7000 O.3   218  THR218     -0.2208
     70  CG2       54.0260   26.7440    2.0830 C.3   218  THR218      0.0378
     71  N         47.6560   37.8370   14.5950 N.3   227  MET227     -0.1230
     72  CA        48.5120   38.9940   14.4510 C.3   227  MET227      0.1702
     73  C         47.7020   40.2010   13.8860 C.2   227  MET227      0.2592
     74  O         47.8580   41.3340   14.3710 O.2   227  MET227     -0.2718
     75  CB        49.6840   38.6000   13.5590 C.3   227  MET227      0.0401
     76  CG        50.6320   39.6930   13.2130 C.3   227  MET227      0.0596
     77  SD        52.1390   39.1400   12.3470 S.3   227  MET227     -0.1393
     78  CE        51.4980   37.9060   11.1980 C.3   227  MET227      0.0692
     79  N         46.7930   39.9500   12.9490 N.am  228  VAL228     -0.1980
     80  CA        45.9510   41.0070   12.4160 C.3   228  VAL228      0.1595
     81  C         44.9910   41.5080   13.5100 C.2   228  VAL228      0.2287
     82  O         44.7920   42.7150   13.6630 O.2   228  VAL228     -0.2864
     83  CB        45.1780   40.5250   11.1680 C.3   228  VAL228      0.0276
     84  CG1       44.1290   41.5660   10.7680 C.3   228  VAL228      0.0022
     85  CG2       46.1410   40.2890   10.0180 C.3   228  VAL228      0.0022
     86  N         46.8920   43.7500   15.7370 N.3   231  LEU231     -0.1245
     87  CA        47.2340   44.9770   15.0370 C.3   231  LEU231      0.1561
     88  C         46.0320   45.9280   15.0330 C.2   231  LEU231      0.2260
     89  O         46.1670   47.1160   15.3890 O.2   231  LEU231     -0.2867
     90  CB        47.6210   44.6360   13.5950 C.3   231  LEU231      0.0270
     91  CG        47.8320   45.8590   12.6930 C.3   231  LEU231      0.0019
     92  CD1       49.2850   46.3340   12.7510 C.3   231  LEU231      0.0001
     93  CD2       47.3920   45.5560   11.2650 C.3   231  LEU231      0.0001
@<TRIPOS>BOND
     1    59    57   am
     2    58    57    2
     3    57    56    1
     4     1     2    1
     5    15    16    1
     6    28    29    2
     7    28    27    1
     8    26    27    1
     9    56    53    1
    10    17    16    1
    11    17    18    2
    12     2     3    1
    13     2     5    1
    14    16    19    1
    15     3     4    2
    16    27    30    1
    17    52    53    1
    18    53    54    1
    19     5     6    1
    20    24    23    1
    21    19    20    1
    22    30    31    1
    23    20    21    1
    24    54    55    2
    25    54    60   am
    26    23    25    1
    27    23    22    2
    28    31    32    1
    29     6     7   ar
    30     6     8   ar
    31     7     9   ar
    32    21    22    1
    33    60    61    1
    34     8    11   ar
    35     8    10   ar
    36    32    33    1
    37    11    13   ar
    38     9    10   ar
    39    10    12   ar
    40    61    62    1
    41    13    14   ar
    42    63    62    2
    43    62    64   am
    44    12    14   ar
    45    70    68    1
    46    64    65    1
    47    40    38    1
    48    38    39    1
    49    38    35    1
    50    65    68    1
    51    65    66    1
    52    68    69    1
    53    37    36    2
    54    34    35    1
    55    35    36    1
    56    36    41   am
    57    43    44    2
    58    43    42    1
    59    66    67    2
    60    41    42    1
    61    42    45    1
    62    45    46    1
    63    47    46    1
    64    47    48    1
    65    48    49    2
    66    50    49    1
    67    49    51    1
    68    85    83    1
    69    84    83    1
    70    83    80    1
    71    78    77    1
    72    93    91    1
    73    77    76    1
    74    80    79    1
    75    80    81    1
    76    91    92    1
    77    91    90    1
    78    79    73   am
    79    76    75    1
    80    81    82    2
    81    75    72    1
    82    90    87    1
    83    73    74    2
    84    73    72    1
    85    72    71    1
    86    88    87    1
    87    88    89    2
    88    87    86    1
