@<TRIPOS>MOLECULE
tmp/5ehlA00.pdb
 128 117 0 0 0
SMALL
GASTEIGER

@<TRIPOS>ATOM
      1  N          5.3160  -38.7630   -6.5030 N.3    17  ILE17      -0.1231
      2  CA         4.0950  -39.2670   -7.1160 C.3    17  ILE17       0.1692
      3  C          4.3760  -39.9850   -8.4300 C.2    17  ILE17       0.2592
      4  O          3.6830  -40.9290   -8.7960 O.2    17  ILE17      -0.2718
      5  CB         3.1400  -38.1140   -7.4550 C.3    17  ILE17       0.0266
      6  CG1        3.2250  -37.0100   -6.4030 C.3    17  ILE17       0.0019
      7  CG2        1.7180  -38.6300   -7.6160 C.3    17  ILE17       0.0020
      8  CD1        2.5710  -35.7200   -6.8400 C.3    17  ILE17       0.0001
      9  N          5.4000  -39.5200   -9.1350 N.am   18  GLY18      -0.1957
     10  CA         5.7940  -40.0760  -10.4220 C.3    18  GLY18       0.1869
     11  C          7.1390  -40.7580  -10.4930 C.2    18  GLY18       0.2309
     12  O          8.0950  -40.3680   -9.8140 O.2    18  GLY18      -0.2863
     13  N          8.1950  -37.1750  -10.3420 N.3    25  VAL25      -0.1245
     14  CA         7.2640  -36.0990   -9.9830 C.3    25  VAL25       0.1561
     15  C          7.2310  -35.9680   -8.4630 C.2    25  VAL25       0.2260
     16  O          6.9970  -36.9500   -7.7680 O.2    25  VAL25      -0.2867
     17  CB         5.8390  -36.2670  -10.5710 C.3    25  VAL25       0.0252
     18  CG1        4.9840  -35.0320  -10.2980 C.3    25  VAL25       0.0019
     19  CG2        5.8830  -36.5730  -12.0650 C.3    25  VAL25       0.0019
     20  N          5.8120  -33.8880   -4.9540 N.3    27  GLN27      -0.1245
     21  CA         4.8330  -32.9980   -4.3720 C.3    27  GLN27       0.1566
     22  C          5.6970  -32.0910   -3.5220 C.2    27  GLN27       0.2260
     23  O          6.4120  -32.5610   -2.6430 O.2    27  GLN27      -0.2867
     24  CB         3.8690  -33.7910   -3.5020 C.3    27  GLN27       0.0367
     25  CG         2.5710  -33.0780   -3.1820 C.3    27  GLN27       0.0905
     26  CD         1.6510  -33.9280   -2.3350 C.2    27  GLN27       0.2608
     27  OE1        2.1020  -34.6740   -1.4690 O.2    27  GLN27      -0.2717
     28  NE2        0.3540  -33.8200   -2.5800 N.am   27  GLN27      -0.0878
     29  N          3.6690  -29.2900   -7.9660 N.3    37  ALA37      -0.1245
     30  CA         4.2460  -30.5300   -8.4430 C.3    37  ALA37       0.1562
     31  C          5.4600  -30.1410   -9.2720 C.2    37  ALA37       0.2260
     32  O          5.3600  -29.2710  -10.1420 O.2    37  ALA37      -0.2867
     33  CB         3.2530  -31.3120   -9.2810 C.3    37  ALA37       0.0290
     34  N          8.3130  -31.6240  -11.8170 N.3    39  LYS39      -0.1245
     35  CA         8.7330  -32.7340  -12.6760 C.3    39  LYS39       0.1561
     36  C         10.2330  -32.5860  -12.8450 C.2    39  LYS39       0.2260
     37  O         10.7180  -31.5340  -13.2840 O.2    39  LYS39      -0.2867
     38  CB         8.0320  -32.7260  -14.0550 C.3    39  LYS39       0.0271
     39  CG         8.1890  -34.0260  -14.8340 C.3    39  LYS39       0.0035
     40  CD         7.5180  -33.9470  -16.2010 C.3    39  LYS39       0.0206
     41  CE         7.6360  -35.2610  -16.9710 C.3    39  LYS39       0.1093
     42  NZ         6.8580  -36.3450  -16.3180 N.3    39  LYS39      -0.1314
     43  N         -2.6030  -27.9210  -18.0290 N.3    72  ILE72      -0.1245
     44  CA        -1.8620  -27.8040  -16.7820 C.3    72  ILE72       0.1561
     45  C         -0.9510  -26.5820  -16.7550 C.2    72  ILE72       0.2260
     46  O         -0.3060  -26.2580  -17.7460 O.2    72  ILE72      -0.2867
     47  CB        -1.0130  -29.0670  -16.5460 C.3    72  ILE72       0.0252
     48  CG1       -0.5780  -29.1650  -15.0860 C.3    72  ILE72       0.0019
     49  CG2        0.1780  -29.0980  -17.4900 C.3    72  ILE72       0.0019
     50  CD1       -1.6990  -29.5510  -14.1500 C.3    72  ILE72       0.0001
     51  N          4.9140  -27.0420  -11.6670 N.3    88  MET88      -0.1230
     52  CA         3.5870  -27.1370  -12.2610 C.3    88  MET88       0.1702
     53  C          2.5220  -27.3240  -11.1940 C.2    88  MET88       0.2592
     54  O          2.8250  -27.7240  -10.0760 O.2    88  MET88      -0.2718
     55  CB         3.5420  -28.2870  -13.2670 C.3    88  MET88       0.0401
     56  CG         4.4570  -28.0860  -14.4630 C.3    88  MET88       0.0596
     57  SD         4.4730  -29.4740  -15.6070 S.3    88  MET88      -0.1393
     58  CE         5.4580  -30.6470  -14.6920 C.3    88  MET88       0.0692
     59  N          1.2760  -27.0190  -11.5310 N.am   89  GLU89      -0.1966
     60  CA         0.1920  -27.1620  -10.5690 C.3    89  GLU89       0.1733
     61  C         -0.0600  -28.6100  -10.1500 C.2    89  GLU89       0.2616
     62  O          0.0320  -29.5380  -10.9450 O.2    89  GLU89      -0.2715
     63  CB        -1.0950  -26.4930  -11.0620 C.3    89  GLU89       0.0429
     64  CG        -1.7950  -27.1900  -12.2130 C.3    89  GLU89       0.1163
     65  CD        -3.0670  -26.4790  -12.6290 C.2    89  GLU89       0.3649
     66  OE1       -3.3590  -26.4380  -13.8380 O.co2  89  GLU89      -0.2457
     67  OE2       -3.7730  -25.9520  -11.7490 O.co2  89  GLU89      -0.2457
     68  N         -0.3750  -28.7650   -8.8720 N.am   90  CYS90      -0.1954
     69  CA        -0.6610  -30.0370   -8.2340 C.3    90  CYS90       0.1843
     70  C         -2.0920  -30.4660   -8.5350 C.2    90  CYS90       0.2626
     71  O         -2.9920  -29.6270   -8.6420 O.2    90  CYS90      -0.2714
     72  CB        -0.4240  -29.9210   -6.7360 C.3    90  CYS90       0.0997
     73  SG         0.1510  -31.4500   -5.9700 S.3    90  CYS90      -0.0797
     74  N         -2.2890  -31.7660   -8.6690 N.am   91  GLY91      -0.1940
     75  CA        -3.6000  -32.3600   -8.9030 C.3    91  GLY91       0.2014
     76  C         -3.9590  -33.3500   -7.8150 C.2    91  GLY91       0.2639
     77  O         -3.1020  -33.7440   -7.0180 O.2    91  GLY91      -0.2714
     78  N         -5.2200  -33.7610   -7.7720 N.am   92  ASN92      -0.1958
     79  CA        -5.6670  -34.7240   -6.7760 C.3    92  ASN92       0.1819
     80  C         -5.2790  -36.1600   -7.1790 C.2    92  ASN92       0.2621
     81  O         -4.6290  -36.8750   -6.4090 O.2    92  ASN92      -0.2715
     82  CB        -7.1750  -34.5720   -6.5030 C.3    92  ASN92       0.1195
     83  CG        -7.5570  -33.2240   -5.9240 C.2    92  ASN92       0.2630
     84  OD1       -7.1790  -32.1520   -6.4260 O.2    92  ASN92      -0.2716
     85  ND2       -8.3050  -33.2500   -4.8320 N.am   92  ASN92      -0.0877
     86  N         -5.6290  -36.5450   -8.4100 N.am   93  ILE93      -0.1963
     87  CA        -5.3910  -37.8650   -9.0010 C.3    93  ILE93       0.1727
     88  C         -5.4450  -37.7400  -10.5310 C.2    93  ILE93       0.2616
     89  O         -6.1630  -36.8760  -11.0530 O.2    93  ILE93      -0.2715
     90  CB        -6.4720  -38.8840   -8.4760 C.3    93  ILE93       0.0290
     91  CG1       -6.1000  -40.3420   -8.8080 C.3    93  ILE93       0.0022
     92  CG2       -7.8950  -38.5300   -8.9650 C.3    93  ILE93       0.0023
     93  CD1       -6.9790  -41.3540   -8.2380 C.3    93  ILE93       0.0001
     94  N         -4.7170  -38.6190  -11.2440 N.am   94  ASP94      -0.1971
     95  CA        -4.7750  -38.6880  -12.7020 C.3    94  ASP94       0.1709
     96  C         -6.0940  -39.4170  -13.0390 C.2    94  ASP94       0.2293
     97  O         -6.6070  -40.1510  -12.1980 O.2    94  ASP94      -0.2864
     98  CB        -3.5380  -39.4070  -13.2900 C.3    94  ASP94       0.1436
     99  CG        -3.4350  -40.8770  -12.9380 C.2    94  ASP94       0.3671
    100  OD1       -2.8210  -41.1970  -11.8910 O.co2  94  ASP94      -0.2456
    101  OD2       -4.0000  -41.7080  -13.6880 O.co2  94  ASP94      -0.2456
    102  N         -6.0370  -43.5630  -12.7660 N.3    97  SER97      -0.1217
    103  CA        -6.0710  -44.0790  -11.3960 C.3    97  SER97       0.1889
    104  C         -7.4560  -43.8600  -10.7780 C.2    97  SER97       0.2288
    105  O         -7.8660  -44.6270   -9.9110 O.2    97  SER97      -0.2866
    106  CB        -4.9890  -43.4170  -10.5510 C.3    97  SER97       0.2089
    107  OG        -3.6860  -43.6450  -11.0650 O.3    97  SER97      -0.2183
    108  N         -4.3550  -41.3180  -18.5720 N.3   137  ALA137     -0.1245
    109  CA        -3.1720  -40.8870  -17.8340 C.3   137  ALA137      0.1562
    110  C         -2.7720  -39.4490  -18.1620 C.2   137  ALA137      0.2260
    111  O         -2.2260  -38.7440  -17.3210 O.2   137  ALA137     -0.2867
    112  CB        -2.0160  -41.8340  -18.0980 C.3   137  ALA137      0.0290
    113  N         -5.2970  -34.9060  -15.6960 N.3   140  LEU140     -0.1245
    114  CA        -5.1920  -34.7760  -14.2380 C.3   140  LEU140      0.1561
    115  C         -6.4530  -34.1070  -13.6480 C.2   140  LEU140      0.2260
    116  O         -6.9430  -33.1480  -14.2440 O.2   140  LEU140     -0.2867
    117  CB        -3.9270  -33.9560  -13.9040 C.3   140  LEU140      0.0270
    118  CG        -3.4180  -33.9020  -12.4670 C.3   140  LEU140      0.0019
    119  CD1       -2.8830  -35.2520  -12.0190 C.3   140  LEU140      0.0001
    120  CD2       -2.3130  -32.8680  -12.3370 C.3   140  LEU140      0.0001
    121  N         -2.1600  -32.7910  -19.1730 N.3   149  ILE149     -0.1245
    122  CA        -0.8180  -32.6400  -18.6170 C.3   149  ILE149      0.1561
    123  C          0.2970  -32.6570  -19.6780 C.2   149  ILE149      0.2260
    124  O          1.3430  -32.0380  -19.4320 O.2   149  ILE149     -0.2867
    125  CB        -0.5370  -33.6310  -17.4510 C.3   149  ILE149      0.0252
    126  CG1       -0.5960  -35.1290  -17.8770 C.3   149  ILE149      0.0019
    127  CG2       -1.4840  -33.3290  -16.2980 C.3   149  ILE149      0.0019
    128  CD1       -0.0080  -36.1170  -16.8700 C.3   149  ILE149      0.0001
@<TRIPOS>BOND
     1   123   124    2
     2   123   122    1
     3   121   122    1
     4   122   125    1
     5   108   109    1
     6   110   109    1
     7   110   111    2
     8   112   109    1
     9    43    44    1
    10   126   125    1
    11   126   128    1
    12    46    45    2
    13    49    47    1
    14   125   127    1
    15    41    42    1
    16    41    40    1
    17    44    45    1
    18    44    47    1
    19    47    48    1
    20    40    39    1
    21   113   114    1
    22    57    58    1
    23    57    56    1
    24    48    50    1
    25    39    38    1
    26    56    55    1
    27   116   115    2
    28   114   117    1
    29   114   115    1
    30    38    35    1
    31   117   118    1
    32    66    65   ar
    33   101    99   ar
    34    98    99    1
    35    98    95    1
    36    37    36    2
    37    55    52    1
    38    96    95    1
    39    96    97    2
    40    99   100   ar
    41    36    35    1
    42   102   103    1
    43    95    94    1
    44    35    34    1
    45    65    64    1
    46    65    67   ar
    47   118   120    1
    48   118   119    1
    49    52    51    1
    50    52    53    1
    51    64    63    1
    52    19    17    1
    53    59    53   am
    54    59    60    1
    55   103   104    1
    56   103   106    1
    57    94    88   am
    58    53    54    2
    59   107   106    1
    60    63    60    1
    61    89    88    2
    62    62    61    2
    63   104   105    2
    64    17    18    1
    65    17    14    1
    66    60    61    1
    67    88    87    1
    68    11    10    1
    69    11    12    2
    70    10     9    1
    71    13    14    1
    72    61    68   am
    73    32    31    2
    74    14    15    1
    75    33    30    1
    76    31    30    1
    77     9     3   am
    78    87    90    1
    79    87    86    1
    80    92    90    1
    81    75    74    1
    82    75    76    1
    83    68    69    1
    84    91    90    1
    85    91    93    1
    86     4     3    2
    87    74    70   am
    88    71    70    2
    89    70    69    1
    90    15    16    2
    91    30    29    1
    92     3     2    1
    93    86    80   am
    94    69    72    1
    95    76    78   am
    96    76    77    2
    97    78    79    1
    98     7     5    1
    99     5     2    1
   100     5     6    1
   101    80    79    1
   102    80    81    2
   103     2     1    1
   104     8     6    1
   105    79    82    1
   106    72    73    1
   107    82    83    1
   108    84    83    2
   109    83    85   am
   110    20    21    1
   111    21    22    1
   112    21    24    1
   113    22    23    2
   114    24    25    1
   115    25    26    1
   116    28    26   am
   117    26    27    2
