@<TRIPOS>MOLECULE
tmp/5ehoA00.pdb
 196 183 0 0 0
SMALL
GASTEIGER

@<TRIPOS>ATOM
      1  N          6.4150  -34.7440   -0.9300 N.3    14  LYS14      -0.1245
      2  CA         6.4410  -36.1460   -1.3610 C.3    14  LYS14       0.1561
      3  C          6.6230  -36.2130   -2.8800 C.2    14  LYS14       0.2260
      4  O          6.4200  -35.2240   -3.5860 O.2    14  LYS14      -0.2867
      5  CB         5.1540  -36.9110   -0.9440 C.3    14  LYS14       0.0271
      6  CG         3.8650  -36.4140   -1.6100 C.3    14  LYS14       0.0035
      7  CD         2.6830  -37.3420   -1.3790 C.3    14  LYS14       0.0206
      8  CE         1.4980  -36.9290   -2.2270 C.3    14  LYS14       0.1093
      9  NZ         0.2130  -37.5340   -1.7660 N.3    14  LYS14      -0.1314
     10  N          5.1270  -37.4000   -6.1660 N.3    16  ILE16      -0.1231
     11  CA         3.8800  -37.8490   -6.7650 C.3    16  ILE16       0.1692
     12  C          4.0580  -39.0020   -7.7460 C.2    16  ILE16       0.2592
     13  O          3.2900  -39.9560   -7.7420 O.2    16  ILE16      -0.2718
     14  CB         3.1710  -36.6920   -7.4890 C.3    16  ILE16       0.0266
     15  CG1        2.8770  -35.5560   -6.5110 C.3    16  ILE16       0.0019
     16  CG2        1.8960  -37.1810   -8.1540 C.3    16  ILE16       0.0020
     17  CD1        2.4420  -34.2720   -7.1790 C.3    16  ILE16       0.0001
     18  N          5.0750  -38.9020   -8.5930 N.am   17  GLY17      -0.1957
     19  CA         5.3330  -39.9220   -9.5880 C.3    17  GLY17       0.1869
     20  C          6.7310  -39.9100  -10.1690 C.2    17  GLY17       0.2309
     21  O          7.4700  -38.9460  -10.0080 O.2    17  GLY17      -0.2863
     22  N          8.1230  -36.2900  -10.3790 N.3    24  VAL24      -0.1245
     23  CA         7.2050  -35.2120  -10.0350 C.3    24  VAL24       0.1561
     24  C          7.0950  -35.1350   -8.5180 C.2    24  VAL24       0.2260
     25  O          6.8510  -36.1370   -7.8600 O.2    24  VAL24      -0.2867
     26  CB         5.8090  -35.4230  -10.6430 C.3    24  VAL24       0.0252
     27  CG1        4.9850  -34.1530  -10.5220 C.3    24  VAL24       0.0019
     28  CG2        5.9230  -35.8360  -12.0970 C.3    24  VAL24       0.0019
     29  N          5.4920  -33.0560   -5.0110 N.3    26  GLN26      -0.1245
     30  CA         4.5360  -32.1260   -4.4510 C.3    26  GLN26       0.1566
     31  C          5.4410  -31.2620   -3.5950 C.2    26  GLN26       0.2260
     32  O          6.2100  -31.7810   -2.7960 O.2    26  GLN26      -0.2867
     33  CB         3.5120  -32.8520   -3.5930 C.3    26  GLN26       0.0367
     34  CG         2.3890  -31.9700   -3.0860 C.3    26  GLN26       0.0905
     35  CD         1.3230  -32.7610   -2.3590 C.2    26  GLN26       0.2608
     36  OE1        1.6100  -33.7720   -1.7260 O.2    26  GLN26      -0.2717
     37  NE2        0.0850  -32.3030   -2.4490 N.am   26  GLN26      -0.0878
     38  N          3.5910  -28.4160   -7.9340 N.3    36  ALA36      -0.1245
     39  CA         4.1130  -29.6930   -8.3760 C.3    36  ALA36       0.1562
     40  C          5.3630  -29.3240   -9.1500 C.2    36  ALA36       0.2260
     41  O          5.2910  -28.4790  -10.0370 O.2    36  ALA36      -0.2867
     42  CB         3.1180  -30.3650   -9.3070 C.3    36  ALA36       0.0290
     43  N          8.2200  -30.7940  -11.6500 N.3    38  LYS38      -0.1245
     44  CA         8.6490  -31.9020  -12.4780 C.3    38  LYS38       0.1561
     45  C         10.1910  -31.7840  -12.6450 C.2    38  LYS38       0.2260
     46  O         10.7020  -30.7620  -13.1030 O.2    38  LYS38      -0.2867
     47  CB         7.9340  -31.8970  -13.8370 C.3    38  LYS38       0.0271
     48  CG         8.1810  -33.1430  -14.6800 C.3    38  LYS38       0.0035
     49  CD         7.2800  -33.1850  -15.9050 C.3    38  LYS38       0.0206
     50  CE         7.6200  -34.3520  -16.7880 C.3    38  LYS38       0.1093
     51  NZ         6.5180  -34.6740  -17.7320 N.3    38  LYS38      -0.1314
     52  N         -2.6570  -27.3160  -17.8200 N.3    71  ILE71      -0.1245
     53  CA        -2.0030  -27.1240  -16.5350 C.3    71  ILE71       0.1561
     54  C         -1.1050  -25.8970  -16.5190 C.2    71  ILE71       0.2260
     55  O         -0.4070  -25.6140  -17.4870 O.2    71  ILE71      -0.2867
     56  CB        -1.1610  -28.3620  -16.1740 C.3    71  ILE71       0.0252
     57  CG1       -0.7040  -28.3050  -14.7190 C.3    71  ILE71       0.0019
     58  CG2        0.0310  -28.4880  -17.1080 C.3    71  ILE71       0.0019
     59  CD1        0.0670  -29.5270  -14.2820 C.3    71  ILE71       0.0001
     60  N          4.7910  -26.2420  -11.6200 N.3    87  MET87      -0.1230
     61  CA         3.4310  -26.2860  -12.1150 C.3    87  MET87       0.1702
     62  C          2.4240  -26.3580  -10.9890 C.2    87  MET87       0.2592
     63  O          2.7630  -26.6970   -9.8600 O.2    87  MET87      -0.2718
     64  CB         3.2490  -27.5140  -13.0040 C.3    87  MET87       0.0401
     65  CG         4.2660  -27.6380  -14.1210 C.3    87  MET87       0.0596
     66  SD         4.0930  -29.1770  -15.0320 S.3    87  MET87      -0.1393
     67  CE         4.8930  -30.3230  -13.9250 C.3    87  MET87       0.0692
     68  N          1.1800  -26.0270  -11.3010 N.am   88  GLU88      -0.1966
     69  CA         0.1320  -26.0990  -10.3110 C.3    88  GLU88       0.1733
     70  C         -0.0020  -27.5670   -9.9420 C.2    88  GLU88       0.2616
     71  O          0.1610  -28.4460  -10.7800 O.2    88  GLU88      -0.2715
     72  CB        -1.1870  -25.5530  -10.8590 C.3    88  GLU88       0.0429
     73  CG        -1.7960  -26.3760  -11.9790 C.3    88  GLU88       0.1163
     74  CD        -3.0830  -25.7770  -12.5100 C.2    88  GLU88       0.3649
     75  OE1       -3.3030  -25.8340  -13.7320 O.co2  88  GLU88      -0.2457
     76  OE2       -3.8720  -25.2440  -11.7100 O.co2  88  GLU88      -0.2457
     77  N         -0.2810  -27.8220   -8.6750 N.am   89  CYS89      -0.1954
     78  CA        -0.4360  -29.1550   -8.1680 C.3    89  CYS89       0.1843
     79  C         -1.9220  -29.5050   -8.1560 C.2    89  CYS89       0.2626
     80  O         -2.7340  -28.7790   -7.5660 O.2    89  CYS89      -0.2714
     81  CB         0.1640  -29.2410   -6.7690 C.3    89  CYS89       0.0997
     82  SG         0.1860  -30.9110   -6.0880 S.3    89  CYS89      -0.0797
     83  N         -2.2670  -30.6140   -8.7880 N.am   90  GLY90      -0.1940
     84  CA        -3.6480  -31.0900   -8.7750 C.3    90  GLY90       0.2014
     85  C         -3.8590  -32.0740   -7.6490 C.2    90  GLY90       0.2639
     86  O         -2.8920  -32.5140   -7.0200 O.2    90  GLY90      -0.2714
     87  N         -5.1200  -32.3920   -7.3840 N.am   91  ASN91      -0.1958
     88  CA        -5.4800  -33.3650   -6.3800 C.3    91  ASN91       0.1819
     89  C         -5.0780  -34.7690   -6.7610 C.2    91  ASN91       0.2621
     90  O         -4.5240  -35.4990   -5.9630 O.2    91  ASN91      -0.2715
     91  CB        -6.9870  -33.3750   -6.1930 C.3    91  ASN91       0.1195
     92  CG        -7.5110  -32.0950   -5.6170 C.2    91  ASN91       0.2630
     93  OD1       -7.5870  -31.0820   -6.2950 O.2    91  ASN91      -0.2716
     94  ND2       -7.8960  -32.1370   -4.3560 N.am   91  ASN91      -0.0877
     95  N         -5.3790  -35.1440   -7.9980 N.am   92  ILE92      -0.1963
     96  CA        -5.0730  -36.4700   -8.5020 C.3    92  ILE92       0.1727
     97  C         -5.2300  -36.5340  -10.0200 C.2    92  ILE92       0.2616
     98  O         -5.8940  -35.6980  -10.6000 O.2    92  ILE92      -0.2715
     99  CB        -6.0100  -37.5030   -7.8510 C.3    92  ILE92       0.0290
    100  CG1       -5.6320  -38.9210   -8.2510 C.3    92  ILE92       0.0022
    101  CG2       -7.4540  -37.2220   -8.2220 C.3    92  ILE92       0.0023
    102  CD1       -6.4480  -39.9740   -7.5480 C.3    92  ILE92       0.0001
    103  N         -4.6360  -37.5310  -10.6590 N.am   93  ASP93      -0.1971
    104  CA        -4.7890  -37.6890  -12.0940 C.3    93  ASP93       0.1709
    105  C         -6.0920  -38.4280  -12.3850 C.2    93  ASP93       0.2293
    106  O         -6.5610  -39.1900  -11.5540 O.2    93  ASP93      -0.2864
    107  CB        -3.5950  -38.3910  -12.7290 C.3    93  ASP93       0.1436
    108  CG        -3.4730  -39.8220  -12.3180 C.2    93  ASP93       0.3671
    109  OD1       -3.1260  -40.0640  -11.1630 O.co2  93  ASP93      -0.2456
    110  OD2       -3.6920  -40.7050  -13.1540 O.co2  93  ASP93      -0.2456
    111  N         -6.0000  -42.5190  -11.8810 N.3    96  SER96      -0.1217
    112  CA        -6.0150  -42.9580  -10.4840 C.3    96  SER96       0.1889
    113  C         -7.3720  -42.6890   -9.8760 C.2    96  SER96       0.2288
    114  O         -7.8430  -43.4820   -9.0610 O.2    96  SER96      -0.2866
    115  CB        -4.9270  -42.2460   -9.6920 C.3    96  SER96       0.2089
    116  OG        -3.6550  -42.4400  -10.2930 O.3    96  SER96      -0.2183
    117  N         -9.7650  -45.4750  -11.3890 N.3    99  LYS99      -0.1231
    118  CA        -9.4630  -46.7850  -10.7900 C.3    99  LYS99       0.1693
    119  C        -10.0680  -46.9150   -9.3750 C.2    99  LYS99       0.2591
    120  O        -10.4310  -48.0150   -8.9520 O.2    99  LYS99      -0.2718
    121  CB        -7.9460  -47.0290  -10.7480 C.3    99  LYS99       0.0285
    122  CG        -7.3430  -47.3760  -12.0860 C.3    99  LYS99       0.0035
    123  CD        -5.7970  -47.5830  -11.9850 C.3    99  LYS99       0.0206
    124  CE        -5.1790  -46.8340  -10.8020 C.3    99  LYS99       0.1093
    125  NZ        -4.2540  -45.6850  -11.1920 N.3    99  LYS99      -0.1314
    126  N        -10.1900  -45.7700   -8.6780 N.am  100  LYS100     -0.1980
    127  CA       -10.6810  -45.5820   -7.3130 C.3   100  LYS100      0.1596
    128  C        -12.2190  -45.4790   -7.2370 C.2   100  LYS100      0.2287
    129  O        -12.8270  -46.1500   -6.4050 O.2   100  LYS100     -0.2864
    130  CB       -10.0010  -44.3180   -6.7460 C.3   100  LYS100      0.0298
    131  CG       -10.2840  -43.9520   -5.3030 C.3   100  LYS100      0.0038
    132  CD        -9.6830  -42.5850   -4.9620 C.3   100  LYS100      0.0206
    133  CE        -8.2550  -42.6540   -4.4630 C.3   100  LYS100      0.1093
    134  NZ        -7.7410  -41.3170   -4.0680 N.3   100  LYS100     -0.1314
    135  N         -4.5280  -40.7020  -17.6220 N.3   136  ALA136     -0.1245
    136  CA        -3.3180  -40.2620  -16.9190 C.3   136  ALA136      0.1562
    137  C         -2.7540  -38.9210  -17.4260 C.2   136  ALA136      0.2260
    138  O         -1.9280  -38.3110  -16.7430 O.2   136  ALA136     -0.2867
    139  CB        -2.2520  -41.3420  -16.9990 C.3   136  ALA136      0.0290
    140  N         -5.3540  -34.1100  -15.2920 N.3   139  LEU139     -0.1245
    141  CA        -5.2220  -33.8160  -13.8750 C.3   139  LEU139      0.1561
    142  C         -6.5120  -33.1850  -13.3420 C.2   139  LEU139      0.2260
    143  O         -7.0700  -32.3100  -13.9940 O.2   139  LEU139     -0.2867
    144  CB        -4.0520  -32.8410  -13.6960 C.3   139  LEU139      0.0270
    145  CG        -3.6440  -32.4950  -12.2740 C.3   139  LEU139      0.0019
    146  CD1       -3.1630  -33.7350  -11.4960 C.3   139  LEU139      0.0001
    147  CD2       -2.6170  -31.4010  -12.2810 C.3   139  LEU139      0.0001
    148  N         -2.2460  -32.3120  -18.8290 N.3   148  ILE148     -0.1245
    149  CA        -0.9060  -32.2080  -18.2070 C.3   148  ILE148      0.1561
    150  C          0.1870  -32.0480  -19.2490 C.2   148  ILE148      0.2260
    151  O          1.1340  -31.2910  -19.0440 O.2   148  ILE148     -0.2867
    152  CB        -0.6120  -33.4520  -17.3050 C.3   148  ILE148      0.0252
    153  CG1       -1.6170  -33.5730  -16.1430 C.3   148  ILE148      0.0019
    154  CG2        0.8130  -33.4480  -16.7780 C.3   148  ILE148      0.0019
    155  CD1       -1.6740  -35.0050  -15.4640 C.3   148  ILE148      0.0001
    156  N          5.7920  -40.1030  -20.8600 N.3   155  GLN155     -0.1231
    157  CA         4.7480  -40.2060  -19.8360 C.3   155  GLN155      0.1698
    158  C          5.2570  -40.7100  -18.4850 C.2   155  GLN155      0.2592
    159  O          6.2810  -41.3830  -18.4080 O.2   155  GLN155     -0.2718
    160  CB         3.6170  -41.1140  -20.3260 C.3   155  GLN155      0.0381
    161  CG         2.4790  -41.3000  -19.3330 C.3   155  GLN155      0.0905
    162  CD         1.5710  -40.0900  -19.2520 C.2   155  GLN155      0.2608
    163  OE1        1.5760  -39.2410  -20.1400 O.2   155  GLN155     -0.2717
    164  NE2        0.7840  -40.0070  -18.1870 N.am  155  GLN155     -0.0878
    165  N          4.5260  -40.3790  -17.4240 N.am  156  MET156     -0.1965
    166  CA         4.8890  -40.7800  -16.0660 C.3   156  MET156      0.1736
    167  C          3.7370  -41.4690  -15.3310 C.2   156  MET156      0.2616
    168  O          2.5710  -41.2800  -15.6730 O.2   156  MET156     -0.2715
    169  CB         5.3660  -39.5700  -15.2640 C.3   156  MET156      0.0427
    170  CG         6.4600  -38.7670  -15.9450 C.3   156  MET156      0.0599
    171  SD         7.1940  -37.5380  -14.8540 S.3   156  MET156     -0.1393
    172  CE         7.9880  -38.5910  -13.6480 C.3   156  MET156      0.0692
    173  N          4.0790  -42.2690  -14.3230 N.am  157  GLN157     -0.1964
    174  CA         3.1000  -43.0090  -13.5270 C.3   157  GLN157      0.1718
    175  C          3.2750  -42.7000  -12.0430 C.2   157  GLN157      0.2458
    176  O          4.3570  -42.3070  -11.6180 O.2   157  GLN157     -0.2730
    177  CB         3.2460  -44.5100  -13.7660 C.3   157  GLN157      0.0407
    178  CG         3.0130  -44.8860  -15.2170 C.3   157  GLN157      0.0908
    179  CD         1.5690  -44.8040  -15.6470 C.2   157  GLN157      0.2608
    180  OE1        0.6470  -44.5620  -14.8710 O.2   157  GLN157     -0.2717
    181  NE2        1.3730  -45.0200  -16.9500 N.am  157  GLN157     -0.0878
    182  N          2.2160  -42.8620  -11.2540 N.am  158  PRO158     -0.2716
    183  CA         2.3160  -42.5510   -9.8110 C.3   158  PRO158      0.1536
    184  C          3.2090  -43.5110   -9.0140 C.2   158  PRO158      0.2598
    185  O          3.5750  -44.5800   -9.5080 O.2   158  PRO158     -0.2715
    186  CB         0.8560  -42.6170   -9.3250 C.3   158  PRO158      0.0310
    187  CG         0.0120  -42.6820  -10.5470 C.3   158  PRO158      0.0237
    188  CD         0.8550  -43.3220  -11.5970 C.3   158  PRO158      0.0939
    189  N          3.5530  -43.1250   -7.7700 N.am  159  ASP159     -0.1972
    190  CA         4.3690  -43.9320   -6.8540 C.3   159  ASP159      0.1709
    191  C          3.6090  -44.2350   -5.5660 C.2   159  ASP159      0.2293
    192  O          3.2820  -43.3190   -4.8120 O.2   159  ASP159     -0.2864
    193  CB         5.7030  -43.2370   -6.5320 C.3   159  ASP159      0.1436
    194  CG         6.5060  -42.7980   -7.7330 C.2   159  ASP159      0.3671
    195  OD1        6.5070  -43.5270   -8.7530 O.co2 159  ASP159     -0.2456
    196  OD2        7.1500  -41.7470   -7.6500 O.co2 159  ASP159     -0.2456
@<TRIPOS>BOND
     1   156   157    1
     2   160   157    1
     3   160   161    1
     4   163   162    2
     5   157   158    1
     6   161   162    1
     7   162   164   am
     8   150   151    2
     9   150   149    1
    10   148   149    1
    11   158   159    2
    12   158   165   am
    13   149   152    1
    14    52    53    1
    15    51    50    1
    16   135   136    1
    17    55    54    2
    18   137   136    1
    19   137   138    2
    20   165   166    1
    21   152   154    1
    22   152   153    1
    23    58    56    1
    24   139   136    1
    25   181   179   am
    26    50    49    1
    27    53    54    1
    28    53    56    1
    29    56    57    1
    30   153   155    1
    31   166   167    1
    32   166   169    1
    33   170   169    1
    34   170   171    1
    35    49    48    1
    36   168   167    2
    37   179   178    1
    38   179   180    2
    39   167   173   am
    40   140   141    1
    41   178   177    1
    42    66    65    1
    43    66    67    1
    44   171   172    1
    45    57    59    1
    46    48    47    1
    47   173   174    1
    48    65    64    1
    49   143   142    2
    50   141   144    1
    51   141   142    1
    52    47    44    1
    53   177   174    1
    54    75    74   ar
    55   144   145    1
    56   174   175    1
    57   110   108   ar
    58    46    45    2
    59    64    61    1
    60   107   108    1
    61   107   104    1
    62    45    44    1
    63    74    73    1
    64    74    76   ar
    65    44    43    1
    66   105   104    1
    67   105   106    2
    68   108   109   ar
    69   147   145    1
    70   145   146    1
    71    61    60    1
    72    61    62    1
    73    28    26    1
    74   104   103    1
    75   122   123    1
    76   122   121    1
    77   175   176    2
    78   175   182   am
    79   123   124    1
    80    73    72    1
    81   111   112    1
    82   188   182    1
    83   188   187    1
    84   117   118    1
    85    68    62   am
    86    68    69    1
    87   182   183    1
    88   125   124    1
    89    62    63    2
    90    72    69    1
    91   118   121    1
    92   118   119    1
    93    71    70    2
    94   103    97   am
    95    26    27    1
    96    26    23    1
    97    98    97    2
    98   187   186    1
    99   112   113    1
   100   112   115    1
   101    22    23    1
   102    69    70    1
   103   116   115    1
   104    20    21    2
   105    20    19    1
   106    41    40    2
   107    23    24    1
   108    97    96    1
   109    70    77   am
   110   113   114    2
   111   183   186    1
   112   183   184    1
   113    19    18    1
   114   185   184    2
   115   119   120    2
   116   119   126   am
   117    42    39    1
   118    40    39    1
   119   184   189   am
   120    83    84    1
   121    83    79   am
   122    84    85    1
   123   195   194   ar
   124   126   127    1
   125    77    78    1
   126    18    12   am
   127    24    25    2
   128    96    95    1
   129    96    99    1
   130    39    38    1
   131   100    99    1
   132   100   102    1
   133   101    99    1
   134    78    79    1
   135    78    81    1
   136    79    80    2
   137    16    14    1
   138    95    89   am
   139   189   190    1
   140    12    13    2
   141    12    11    1
   142   194   196   ar
   143   194   193    1
   144    85    87   am
   145    85    86    2
   146    14    11    1
   147    14    15    1
   148    87    88    1
   149   127   128    1
   150   127   130    1
   151   128   129    2
   152    17    15    1
   153   190   193    1
   154   190   191    1
   155    81    82    1
   156    11    10    1
   157    89    88    1
   158    89    90    2
   159   130   131    1
   160    88    91    1
   161    93    92    2
   162    91    92    1
   163    92    94   am
   164   191   192    2
   165   131   132    1
   166    29    30    1
   167   132   133    1
   168   133   134    1
   169    30    31    1
   170    30    33    1
   171    31    32    2
   172    33    34    1
   173     4     3    2
   174    34    35    1
   175     3     2    1
   176    37    35   am
   177    35    36    2
   178     8     9    1
   179     8     7    1
   180     6     7    1
   181     6     5    1
   182     2     5    1
   183     2     1    1
