@<TRIPOS>MOLECULE
tmp/5ehpB00.pdb
 157 149 0 0 0
SMALL
GASTEIGER

@<TRIPOS>ATOM
      1  N         10.8130  -29.3920   27.7640 N.3    98  THR98      -0.1218
      2  CA        11.1020  -28.0980   27.1140 C.3    98  THR98       0.1862
      3  C         12.2060  -27.2440   27.7810 C.2    98  THR98       0.2287
      4  O         12.7770  -26.3900   27.0970 O.2    98  THR98      -0.2866
      5  CB         9.8320  -27.2690   26.8950 C.3    98  THR98       0.1770
      6  OG1        9.1740  -27.0510   28.1400 O.3    98  THR98      -0.2211
      7  CG2        8.8760  -27.9090   25.8810 C.3    98  THR98       0.0375
      8  N         15.0150  -28.6170   29.0140 N.3   100  GLU100     -0.1231
      9  CA        16.2170  -29.4310   28.9060 C.3   100  GLU100      0.1699
     10  C         17.1120  -28.9000   27.7880 C.2   100  GLU100      0.2592
     11  O         16.6320  -28.6520   26.6770 O.2   100  GLU100     -0.2718
     12  CB        15.8440  -30.9070   28.6520 C.3   100  GLU100      0.0402
     13  CG        15.0670  -31.5380   29.8000 C.3   100  GLU100      0.1161
     14  CD        15.8870  -32.0340   30.9740 C.2   100  GLU100      0.3649
     15  OE1       17.0790  -31.6720   31.0840 O.co2 100  GLU100     -0.2457
     16  OE2       15.3300  -32.7990   31.7900 O.co2 100  GLU100     -0.2457
     17  N         18.4170  -28.7570   28.0760 N.am  101  ARG101     -0.1980
     18  CA        19.4580  -28.2870   27.1490 C.3   101  ARG101      0.1597
     19  C         19.5050  -29.1290   25.8520 C.2   101  ARG101      0.2287
     20  O         19.7550  -28.5890   24.7800 O.2   101  ARG101     -0.2864
     21  CB        20.8290  -28.3570   27.8150 C.3   101  ARG101      0.0334
     22  CG        21.1010  -27.3210   28.9240 C.3   101  ARG101      0.0492
     23  CD        22.4270  -27.6290   29.6190 C.3   101  ARG101      0.2205
     24  NE        22.3530  -28.9040   30.3410 N.pl3 101  ARG101     -0.0865
     25  CZ        23.3760  -29.7290   30.5540 C.cat 101  ARG101      0.5346
     26  NH1       23.1920  -30.8670   31.2060 N.pl3 101  ARG101      0.1354
     27  NH2       24.5890  -29.4220   30.1160 N.pl3 101  ARG101      0.1354
     28  N         16.8160  -30.9130   24.4960 N.3   103  PHE103     -0.1227
     29  CA        15.5430  -31.0350   23.7790 C.3   103  PHE103      0.1736
     30  C         15.3250  -29.9280   22.7370 C.2   103  PHE103      0.2595
     31  O         15.3050  -28.7450   23.0900 O.2   103  PHE103     -0.2718
     32  CB        14.3610  -31.1350   24.7500 C.3   103  PHE103      0.0547
     33  CG        13.0430  -31.4840   24.0910 C.ar  103  PHE103     -0.0202
     34  CD1       12.7370  -32.8020   23.7610 C.ar  103  PHE103     -0.0042
     35  CD2       12.1020  -30.4960   23.8090 C.ar  103  PHE103     -0.0042
     36  CE1       11.5190  -33.1230   23.1560 C.ar  103  PHE103     -0.0003
     37  CE2       10.8920  -30.8180   23.1950 C.ar  103  PHE103     -0.0003
     38  CZ        10.6070  -32.1300   22.8750 C.ar  103  PHE103     -0.0000
     39  N         15.1020  -30.3300   21.4650 N.am  104  HIS104     -0.1975
     40  CA        14.9240  -29.4100   20.3410 C.3   104  HIS104      0.1656
     41  C         13.5400  -29.3750   19.7110 C.2   104  HIS104      0.2291
     42  O         13.2900  -28.5020   18.8790 O.2   104  HIS104     -0.2864
     43  CB        15.9670  -29.7010   19.2560 C.3   104  HIS104      0.0771
     44  CG        17.3780  -29.3980   19.6500 C.ar  104  HIS104      0.0820
     45  ND1       18.1370  -28.4970   18.9380 N.ar  104  HIS104     -0.2267
     46  CD2       18.1400  -29.9260   20.6390 C.ar  104  HIS104      0.1154
     47  CE1       19.3260  -28.4930   19.5130 C.ar  104  HIS104      0.1986
     48  NE2       19.3720  -29.3300   20.5490 N.ar  104  HIS104     -0.2212
     49  N         24.1790  -30.8830   22.7820 N.3   190  LEU190     -0.1231
     50  CA        24.7590  -30.0830   21.7100 C.3   190  LEU190      0.1693
     51  C         24.6000  -28.5880   22.0850 C.2   190  LEU190      0.2592
     52  O         23.5160  -28.1760   22.4940 O.2   190  LEU190     -0.2718
     53  CB        24.0620  -30.3900   20.3680 C.3   190  LEU190      0.0284
     54  CG        24.4580  -29.5000   19.1880 C.3   190  LEU190      0.0019
     55  CD1       25.9010  -29.7250   18.7770 C.3   190  LEU190      0.0001
     56  CD2       23.5260  -29.6870   18.0520 C.3   190  LEU190      0.0001
     57  N         25.6820  -27.8080   21.9460 N.am  191  ASN191     -0.1960
     58  CA        25.6700  -26.3860   22.2950 C.3   191  ASN191      0.1819
     59  C         24.9250  -25.6010   21.2290 C.2   191  ASN191      0.2622
     60  O         25.3090  -25.6360   20.0550 O.2   191  ASN191     -0.2715
     61  CB        27.1010  -25.8610   22.4800 C.3   191  ASN191      0.1195
     62  CG        27.1650  -24.3940   22.8400 C.2   191  ASN191      0.2630
     63  OD1       26.6660  -23.5320   22.1210 O.2   191  ASN191     -0.2716
     64  ND2       27.8060  -24.0800   23.9450 N.am  191  ASN191     -0.0877
     65  N         23.8830  -24.8660   21.6390 N.am  192  THR192     -0.1937
     66  CA        23.1010  -24.0510   20.7010 C.3   192  THR192      0.2028
     67  C         23.1390  -22.5510   21.0620 C.2   192  THR192      0.2642
     68  O         22.6060  -21.7300   20.3070 O.2   192  THR192     -0.2714
     69  CB        21.6520  -24.5530   20.6370 C.3   192  THR192      0.1808
     70  OG1       21.0340  -24.3150   21.8920 O.3   192  THR192     -0.2208
     71  CG2       21.5470  -26.0340   20.2950 C.3   192  THR192      0.0379
     72  N         23.7490  -22.1960   22.2160 N.am  193  THR193     -0.1950
     73  CA        23.7420  -20.7990   22.7040 C.3   193  THR193      0.1897
     74  C         24.9940  -19.9930   22.3220 C.2   193  THR193      0.2313
     75  O         24.9080  -18.7580   22.2630 O.2   193  THR193     -0.2863
     76  CB        23.4960  -20.7710   24.2140 C.3   193  THR193      0.1794
     77  OG1       24.5140  -21.5490   24.8460 O.3   193  THR193     -0.2208
     78  CG2       22.1160  -21.2920   24.5830 C.3   193  THR193      0.0378
     79  N         11.4950  -16.9190   22.9780 N.3   211  GLY211     -0.1225
     80  CA        12.8090  -17.5520   22.9490 C.3   211  GLY211      0.1811
     81  C         13.6800  -17.1770   24.1390 C.2   211  GLY211      0.2280
     82  O         14.3270  -18.0580   24.7060 O.2   211  GLY211     -0.2866
     83  N         12.3240  -19.0610   27.3320 N.3   214  GLU214     -0.1231
     84  CA        12.6830  -20.4750   27.2260 C.3   214  GLU214      0.1699
     85  C         14.1580  -20.6980   27.5340 C.2   214  GLU214      0.2592
     86  O         14.4910  -21.6240   28.2720 O.2   214  GLU214     -0.2718
     87  CB        12.3690  -20.9910   25.8070 C.3   214  GLU214      0.0402
     88  CG        11.2370  -22.0010   25.7380 C.3   214  GLU214      0.1161
     89  CD        10.8030  -22.3340   24.3200 C.2   214  GLU214      0.3649
     90  OE1       11.6080  -22.9280   23.5650 O.co2 214  GLU214     -0.2457
     91  OE2        9.6590  -21.9790   23.9560 O.co2 214  GLU214     -0.2457
     92  N         15.0450  -19.8650   26.9480 N.am  215  GLU215     -0.1979
     93  CA        16.4920  -19.9900   27.1570 C.3   215  GLU215      0.1602
     94  C         16.8600  -19.7040   28.6060 C.2   215  GLU215      0.2287
     95  O         17.6830  -20.4180   29.1820 O.2   215  GLU215     -0.2864
     96  CB        17.2520  -19.0670   26.2130 C.3   215  GLU215      0.0415
     97  CG        18.7330  -19.4010   26.1610 C.3   215  GLU215      0.1163
     98  CD        19.5440  -18.5600   25.2070 C.2   215  GLU215      0.3649
     99  OE1       20.1700  -17.5800   25.6660 O.co2 215  GLU215     -0.2457
    100  OE2       19.5730  -18.8910   24.0020 O.co2 215  GLU215     -0.2457
    101  N         15.8330  -22.5970   30.8850 N.3   218  THR218     -0.1203
    102  CA        16.7580  -23.7300   30.7070 C.3   218  THR218      0.1994
    103  C         17.9960  -23.4720   31.5950 C.2   218  THR218      0.2617
    104  O         18.5280  -24.3920   32.2320 O.2   218  THR218     -0.2717
    105  CB        17.1240  -23.8950   29.2250 C.3   218  THR218      0.1784
    106  OG1       15.9200  -24.0780   28.4840 O.3   218  THR218     -0.2211
    107  CG2       18.0590  -25.0750   28.9790 C.3   218  THR218      0.0376
    108  N         18.4430  -22.1980   31.6540 N.am  219  LEU219     -0.1979
    109  CA        19.5800  -21.8510   32.5040 C.3   219  LEU219      0.1596
    110  C         19.1970  -22.0370   33.9990 C.2   219  LEU219      0.2287
    111  O         19.9800  -22.6000   34.7620 O.2   219  LEU219     -0.2864
    112  CB        20.0050  -20.4090   32.1910 C.3   219  LEU219      0.0297
    113  CG        21.0060  -19.7550   33.1220 C.3   219  LEU219      0.0022
    114  CD1       22.3500  -20.4600   33.0870 C.3   219  LEU219      0.0001
    115  CD2       21.1640  -18.3150   32.7550 C.3   219  LEU219      0.0001
    116  N         19.4190  -25.4930   35.5880 N.3   222  GLN222     -0.1245
    117  CA        20.7680  -25.9320   35.9840 C.3   222  GLN222      0.1566
    118  C         21.2230  -25.3480   37.3340 C.2   222  GLN222      0.2260
    119  O         22.3430  -25.6440   37.7910 O.2   222  GLN222     -0.2867
    120  CB        21.7930  -25.5630   34.8920 C.3   222  GLN222      0.0367
    121  CG        21.5270  -26.2450   33.5350 C.3   222  GLN222      0.0905
    122  CD        21.6330  -27.7510   33.6570 C.2   222  GLN222      0.2608
    123  OE1       22.6950  -28.3060   33.9370 O.2   222  GLN222     -0.2717
    124  NE2       20.5200  -28.4360   33.5410 N.am  222  GLN222     -0.0878
    125  N         28.7500  -16.5850   24.6760 N.3   435  ASP435     -0.1239
    126  CA        27.7360  -17.5370   25.1250 C.3   435  ASP435      0.1674
    127  C         27.1890  -17.0100   26.4570 C.2   435  ASP435      0.2266
    128  O         27.7960  -17.2500   27.5110 O.2   435  ASP435     -0.2867
    129  CB        28.3620  -18.9490   25.2540 C.3   435  ASP435      0.1410
    130  CG        27.3630  -20.0770   25.4720 C.2   435  ASP435      0.3668
    131  OD1       26.2490  -19.7970   25.9670 O.co2 435  ASP435     -0.2456
    132  OD2       27.7500  -21.2550   25.2900 O.co2 435  ASP435     -0.2456
    133  N         24.3420  -17.6220   28.4990 N.3   437  PRO437     -0.2102
    134  CA        24.0730  -18.5120   29.6490 C.3   437  PRO437      0.1504
    135  C         25.3060  -19.1980   30.2250 C.2   437  PRO437      0.2575
    136  O         25.3640  -19.3350   31.4400 O.2   437  PRO437     -0.2718
    137  CB        23.0330  -19.5070   29.1080 C.3   437  PRO437      0.0282
    138  CG        23.1980  -19.4650   27.6490 C.3   437  PRO437      0.0208
    139  CD        23.5950  -18.0700   27.3020 C.3   437  PRO437      0.0893
    140  N         26.3200  -19.5470   29.3930 N.am  438  LYS438     -0.1980
    141  CA        27.5570  -20.1380   29.9110 C.3   438  LYS438      0.1596
    142  C         28.2600  -19.1450   30.8590 C.2   438  LYS438      0.2287
    143  O         28.7110  -19.5430   31.9290 O.2   438  LYS438     -0.2864
    144  CB        28.5100  -20.5530   28.7830 C.3   438  LYS438      0.0298
    145  CG        29.7900  -21.2340   29.2970 C.3   438  LYS438      0.0038
    146  CD        30.6980  -21.6720   28.1640 C.3   438  LYS438      0.0206
    147  CE        31.8350  -22.5190   28.6820 C.3   438  LYS438      0.1093
    148  NZ        32.9900  -22.5410   27.7420 N.3   438  LYS438     -0.1314
    149  N         26.2190  -18.9070   34.0740 N.3   441  GLN441     -0.1245
    150  CA        26.4040  -20.0910   34.9180 C.3   441  GLN441      0.1566
    151  C         27.7480  -20.0570   35.6590 C.2   441  GLN441      0.2260
    152  O         27.7950  -20.4050   36.8330 O.2   441  GLN441     -0.2867
    153  CB        26.2670  -21.3920   34.1070 C.3   441  GLN441      0.0367
    154  CG        26.2580  -22.6550   34.9780 C.3   441  GLN441      0.0905
    155  CD        24.9400  -22.8900   35.7130 C.2   441  GLN441      0.2608
    156  OE1       24.0750  -22.0150   35.8240 O.2   441  GLN441     -0.2717
    157  NE2       24.7590  -24.0940   36.2410 N.am  441  GLN441     -0.0878
@<TRIPOS>BOND
     1    56    54    1
     2    55    54    1
     3    42    41    2
     4    45    47   ar
     5    45    44   ar
     6    54    53    1
     7    43    44    1
     8    43    40    1
     9    47    48   ar
    10    44    46   ar
    11    41    40    1
    12    60    59    2
    13    71    69    1
    14    68    67    2
    15    40    39    1
    16    53    50    1
    17    48    46   ar
    18    69    66    1
    19    69    70    1
    20    66    67    1
    21    66    65    1
    22    67    72   am
    23    59    65   am
    24    59    58    1
    25    39    30   am
    26    50    51    1
    27    50    49    1
    28    57    51   am
    29    57    58    1
    30    51    52    2
    31    63    62    2
    32    72    73    1
    33    75    74    2
    34    58    61    1
    35    74    73    1
    36    61    62    1
    37    73    76    1
    38    30    31    2
    39    30    29    1
    40    62    64   am
    41    38    36   ar
    42    38    37   ar
    43    80    79    1
    44    80    81    1
    45    36    34   ar
    46    37    35   ar
    47    90    89   ar
    48    34    33   ar
    49    29    28    1
    50    29    32    1
    51    35    33   ar
    52    91    89   ar
    53   100    98   ar
    54    33    32    1
    55    81    82    2
    56    76    78    1
    57    76    77    1
    58    89    88    1
    59   125   126    1
    60    20    19    2
    61   126   129    1
    62   126   127    1
    63    98    99   ar
    64    98    97    1
    65   129   130    1
    66   132   130   ar
    67   130   131   ar
    68    88    87    1
    69    87    84    1
    70    19    18    1
    71     7     5    1
    72    97    96    1
    73    96    93    1
    74   127   128    2
    75    11    10    2
    76     5     2    1
    77     5     6    1
    78    92    93    1
    79    92    85   am
    80     4     3    2
    81     2     1    1
    82     2     3    1
    83    18    21    1
    84    18    17    1
    85    93    94    1
    86    84    83    1
    87    84    85    1
    88   139   138    1
    89   139   133    1
    90    85    86    2
    91   138   137    1
    92   148   147    1
    93    10    17   am
    94    10     9    1
    95    21    22    1
    96   146   147    1
    97   146   145    1
    98   106   105    1
    99   133   134    1
   100    94    95    2
   101    12     9    1
   102    12    13    1
   103   144   145    1
   104   144   141    1
   105     9     8    1
   106    22    23    1
   107   107   105    1
   108   137   134    1
   109   105   102    1
   110   140   141    1
   111   140   135   am
   112    23    24    1
   113   134   135    1
   114    13    14    1
   115   141   142    1
   116    27    25    1
   117   135   136    2
   118    24    25    2
   119    25    26    1
   120   102   101    1
   121   102   103    1
   122   142   143    2
   123    14    15   ar
   124    14    16   ar
   125   103   108   am
   126   103   104    2
   127   108   109    1
   128   112   109    1
   129   112   113    1
   130   109   110    1
   131   115   113    1
   132   114   113    1
   133   121   122    1
   134   121   120    1
   135   124   122   am
   136   122   123    2
   137   110   111    2
   138   149   150    1
   139   153   150    1
   140   153   154    1
   141   120   117    1
   142   150   151    1
   143   154   155    1
   144   116   117    1
   145   151   152    2
   146   155   156    2
   147   155   157   am
   148   117   118    1
   149   118   119    2
