@<TRIPOS>MOLECULE
tmp/5ehpA00.pdb
 157 149 0 0 0
SMALL
GASTEIGER

@<TRIPOS>ATOM
      1  N         31.6130   46.6600    7.3480 N.3   104  THR104     -0.1218
      2  CA        31.5660   45.3400    6.6950 C.3   104  THR104      0.1862
      3  C         30.3290   44.4570    7.0320 C.2   104  THR104      0.2287
      4  O         30.0190   43.5670    6.2390 O.2   104  THR104     -0.2866
      5  CB        32.8730   44.5450    6.9040 C.3   104  THR104      0.1770
      6  OG1       33.2360   44.5640    8.2740 O.3   104  THR104     -0.2211
      7  CG2       34.0280   45.0710    6.0420 C.3   104  THR104      0.0375
      8  N         27.2360   45.7470    7.4560 N.3   106  GLU106     -0.1231
      9  CA        26.0490   46.5420    7.1510 C.3   106  GLU106      0.1699
     10  C         25.4280   45.9840    5.8990 C.2   106  GLU106      0.2592
     11  O         26.1560   45.6650    4.9580 O.2   106  GLU106     -0.2718
     12  CB        26.4060   48.0390    6.9830 C.3   106  GLU106      0.0402
     13  CG        26.8710   48.7050    8.2710 C.3   106  GLU106      0.1161
     14  CD        25.7780   49.1670    9.2250 C.2   106  GLU106      0.3649
     15  OE1       24.6020   48.7920    9.0300 O.co2 106  GLU106     -0.2457
     16  OE2       26.0960   49.9250   10.1660 O.co2 106  GLU106     -0.2457
     17  N         24.0740   45.8630    5.8830 N.am  107  ARG107     -0.1980
     18  CA        23.3110   45.3540    4.7380 C.3   107  ARG107      0.1597
     19  C         23.5730   46.1790    3.4790 C.2   107  ARG107      0.2287
     20  O         23.4740   45.6550    2.3820 O.2   107  ARG107     -0.2864
     21  CB        21.8010   45.3950    5.0470 C.3   107  ARG107      0.0334
     22  CG        21.3450   44.3810    6.1030 C.3   107  ARG107      0.0492
     23  CD        19.8540   44.4750    6.3820 C.3   107  ARG107      0.2205
     24  NE        19.0580   43.9560    5.2670 N.pl3 107  ARG107     -0.0865
     25  CZ        17.7900   43.5690    5.3640 C.cat 107  ARG107      0.5346
     26  NH1       17.1520   43.1070    4.3030 N.pl3 107  ARG107      0.1354
     27  NH2       17.1540   43.6400    6.5240 N.pl3 107  ARG107      0.1354
     28  N         26.5240   48.0440    2.7510 N.3   109  PHE109     -0.1227
     29  CA        27.9120   48.2440    2.3620 C.3   109  PHE109      0.1736
     30  C         28.3940   47.1700    1.3910 C.2   109  PHE109      0.2595
     31  O         28.4030   45.9940    1.7410 O.2   109  PHE109     -0.2718
     32  CB        28.8150   48.3410    3.6000 C.3   109  PHE109      0.0547
     33  CG        30.2530   48.6560    3.2870 C.ar  109  PHE109     -0.0202
     34  CD1       30.6360   49.9460    2.9190 C.ar  109  PHE109     -0.0042
     35  CD2       31.2240   47.6630    3.3230 C.ar  109  PHE109     -0.0042
     36  CE1       31.9620   50.2310    2.5800 C.ar  109  PHE109     -0.0003
     37  CE2       32.5570   47.9520    2.9950 C.ar  109  PHE109     -0.0003
     38  CZ        32.9190   49.2400    2.6440 C.ar  109  PHE109     -0.0000
     39  N         28.8250   47.5790    0.1880 N.am  110  HIS110     -0.1975
     40  CA        29.2710   46.6530   -0.8560 C.3   110  HIS110      0.1656
     41  C         30.7740   46.6250   -1.1190 C.2   110  HIS110      0.2291
     42  O         31.2230   45.7950   -1.9070 O.2   110  HIS110     -0.2864
     43  CB        28.5200   46.9420   -2.1630 C.3   110  HIS110      0.0771
     44  CG        27.0830   46.5290   -2.1460 C.ar  110  HIS110      0.0820
     45  ND1       26.5950   45.6080   -3.0480 N.ar  110  HIS110     -0.2267
     46  CD2       26.0720   46.9340   -1.3420 C.ar  110  HIS110      0.1154
     47  CE1       25.3120   45.4740   -2.7650 C.ar  110  HIS110      0.1986
     48  NE2       24.9510   46.2520   -1.7460 N.ar  110  HIS110     -0.2212
     49  N         19.8160   47.7910   -0.7430 N.3   199  LEU199     -0.1231
     50  CA        19.5160   46.9470   -1.8870 C.3   199  LEU199      0.1693
     51  C         19.5850   45.4600   -1.4590 C.2   199  LEU199      0.2592
     52  O         20.5270   45.0690   -0.7810 O.2   199  LEU199     -0.2718
     53  CB        20.4790   47.2260   -3.0460 C.3   199  LEU199      0.0284
     54  CG        20.3930   46.2620   -4.2250 C.3   199  LEU199      0.0019
     55  CD1       19.0990   46.4700   -5.0160 C.3   199  LEU199      0.0001
     56  CD2       21.6010   46.3790   -5.0950 C.3   199  LEU199      0.0001
     57  N         18.5870   44.6600   -1.8490 N.am  200  ASN200     -0.1960
     58  CA        18.5670   43.2320   -1.5280 C.3   200  ASN200      0.1819
     59  C         19.5880   42.4940   -2.4020 C.2   200  ASN200      0.2622
     60  O         19.5590   42.6460   -3.6150 O.2   200  ASN200     -0.2715
     61  CB        17.1590   42.6570   -1.7620 C.3   200  ASN200      0.1195
     62  CG        17.0260   41.1820   -1.4470 C.2   200  ASN200      0.2630
     63  OD1       17.7480   40.3390   -1.9860 O.2   200  ASN200     -0.2716
     64  ND2       16.0830   40.8420   -0.5820 N.am  200  ASN200     -0.0877
     65  N         20.4830   41.6910   -1.7940 N.am  201  THR201     -0.1937
     66  CA        21.4760   40.8970   -2.5430 C.3   201  THR201      0.2028
     67  C         21.3940   39.4080   -2.1560 C.2   201  THR201      0.2642
     68  O         22.0620   38.5750   -2.7690 O.2   201  THR201     -0.2714
     69  CB        22.9060   41.4320   -2.3120 C.3   201  THR201      0.1808
     70  OG1       23.2160   41.4120   -0.9150 O.3   201  THR201     -0.2208
     71  CG2       23.1140   42.8340   -2.8830 C.3   201  THR201      0.0379
     72  N         20.5960   39.0830   -1.1180 N.am  202  THR202     -0.1950
     73  CA        20.4890   37.7060   -0.5970 C.3   202  THR202      0.1897
     74  C         19.3820   36.8670   -1.2560 C.2   202  THR202      0.2313
     75  O         19.5030   35.6420   -1.3010 O.2   202  THR202     -0.2863
     76  CB        20.3600   37.7260    0.9190 C.3   202  THR202      0.1794
     77  OG1       19.2590   38.5510    1.2740 O.3   202  THR202     -0.2208
     78  CG2       21.6300   38.1900    1.6100 C.3   202  THR202      0.0378
     79  N         32.4080   33.8990    2.5960 N.3   223  GLY223     -0.1225
     80  CA        31.2300   34.7280    2.3410 C.3   223  GLY223      0.1811
     81  C         30.0780   34.3540    3.2590 C.2   223  GLY223      0.2280
     82  O         29.3080   35.2370    3.6530 O.2   223  GLY223     -0.2866
     83  N         30.5110   36.2900    6.4830 N.3   226  GLU226     -0.1231
     84  CA        30.1310   37.6970    6.3220 C.3   226  GLU226      0.1699
     85  C         28.6110   37.8690    6.2230 C.2   226  GLU226      0.2592
     86  O         28.0590   38.8130    6.7960 O.2   226  GLU226     -0.2718
     87  CB        30.8320   38.3100    5.0990 C.3   226  GLU226      0.0402
     88  CG        32.2890   38.6440    5.3690 C.3   226  GLU226      0.1161
     89  CD        32.9300   39.6960    4.4750 C.2   226  GLU226      0.3649
     90  OE1       32.4290   39.9420    3.3500 O.co2 226  GLU226     -0.2457
     91  OE2       33.9930   40.2190    4.8820 O.co2 226  GLU226     -0.2457
     92  N         27.9300   36.9510    5.5240 N.am  227  GLU227     -0.1979
     93  CA        26.4680   37.0500    5.3940 C.3   227  GLU227      0.1602
     94  C         25.8100   36.8220    6.7600 C.2   227  GLU227      0.2287
     95  O         24.9240   37.5920    7.1580 O.2   227  GLU227     -0.2864
     96  CB        25.9430   36.0660    4.3550 C.3   227  GLU227      0.0415
     97  CG        24.5430   36.4170    3.8920 C.3   227  GLU227      0.1163
     98  CD        23.9970   35.5270    2.8010 C.2   227  GLU227      0.3649
     99  OE1       23.3130   34.5390    3.1380 O.co2 227  GLU227     -0.2457
    100  OE2       24.2740   35.7920    1.6110 O.co2 227  GLU227     -0.2457
    101  N         26.1930   39.7700    9.1600 N.3   230  THR230     -0.1203
    102  CA        25.3110   40.8900    8.7630 C.3   230  THR230      0.1994
    103  C         23.8970   40.5850    9.3060 C.2   230  THR230      0.2617
    104  O         23.2320   41.4790    9.8220 O.2   230  THR230     -0.2717
    105  CB        25.3040   41.0570    7.2450 C.3   230  THR230      0.1784
    106  OG1       26.6490   41.2730    6.8390 O.3   230  THR230     -0.2211
    107  CG2       24.4150   42.2380    6.7790 C.3   230  THR230      0.0376
    108  N         23.4910   39.3060    9.2720 N.am  231  LEU231     -0.1979
    109  CA        22.2020   38.8890    9.8680 C.3   231  LEU231      0.1596
    110  C         22.2500   39.1050   11.4150 C.2   231  LEU231      0.2287
    111  O         21.3410   39.7140   11.9820 O.2   231  LEU231     -0.2864
    112  CB        21.9110   37.4080    9.4870 C.3   231  LEU231      0.0297
    113  CG        20.7250   36.7330   10.1760 C.3   231  LEU231      0.0022
    114  CD1       19.3840   37.3430    9.7010 C.3   231  LEU231      0.0001
    115  CD2       20.6980   35.2500    9.8540 C.3   231  LEU231      0.0001
    116  N         21.6140   42.5910   12.9360 N.3   234  GLN234     -0.1245
    117  CA        20.1890   42.9590   12.9740 C.3   234  GLN234      0.1566
    118  C         19.4100   42.3390   14.1450 C.2   234  GLN234      0.2260
    119  O         18.2020   42.5690   14.2540 O.2   234  GLN234     -0.2867
    120  CB        19.5150   42.5390   11.6650 C.3   234  GLN234      0.0367
    121  CG        20.0380   43.2690   10.4330 C.3   234  GLN234      0.0905
    122  CD        19.7870   44.7480   10.5480 C.2   234  GLN234      0.2608
    123  OE1       18.6420   45.1970   10.7150 O.2   234  GLN234     -0.2717
    124  NE2       20.8600   45.5180   10.5650 N.am  234  GLN234     -0.0878
    125  N         15.1500   33.4770    0.1760 N.3   458  ASP458     -0.1239
    126  CA        16.0320   34.4540    0.7970 C.3   458  ASP458      0.1674
    127  C         16.3090   33.9070    2.2250 C.2   458  ASP458      0.2266
    128  O         15.5070   34.1010    3.1230 O.2   458  ASP458     -0.2867
    129  CB        15.3560   35.8510    0.8000 C.3   458  ASP458      0.1410
    130  CG        16.2490   37.0200    1.1950 C.2   458  ASP458      0.3668
    131  OD1       17.2750   36.7880    1.8850 O.co2 458  ASP458     -0.2456
    132  OD2       15.8380   38.1700    0.9800 O.co2 458  ASP458     -0.2456
    133  N         18.5470   34.5570    4.8870 N.3   460  PRO460     -0.2102
    134  CA        18.5210   35.4120    6.0830 C.3   460  PRO460      0.1504
    135  C         17.1710   36.0710    6.3210 C.2   460  PRO460      0.2575
    136  O         16.8620   36.3410    7.4710 O.2   460  PRO460     -0.2718
    137  CB        19.6520   36.4320    5.8450 C.3   460  PRO460      0.0282
    138  CG        19.8950   36.4160    4.3820 C.3   460  PRO460      0.0208
    139  CD        19.5230   35.0590    3.8880 C.3   460  PRO460      0.0893
    140  N         16.3740   36.3490    5.2480 N.am  461  LYS461     -0.1980
    141  CA        15.0470   36.9400    5.4360 C.3   461  LYS461      0.1596
    142  C         14.1530   35.9470    6.1950 C.2   461  LYS461      0.2287
    143  O         13.4400   36.3350    7.1310 O.2   461  LYS461     -0.2864
    144  CB        14.4030   37.3220    4.0780 C.3   461  LYS461      0.0298
    145  CG        13.0070   37.9480    4.2330 C.3   461  LYS461      0.0038
    146  CD        12.5440   38.5330    2.8990 C.3   461  LYS461      0.0206
    147  CE        11.2020   39.2020    3.0160 C.3   461  LYS461      0.1093
    148  NZ        10.1480   38.3800    2.3720 N.3   461  LYS461     -0.1314
    149  N         15.3940   35.7640    9.8530 N.3   464  GLN464     -0.1245
    150  CA        14.9770   36.9790   10.6140 C.3   464  GLN464      0.1566
    151  C         13.5170   36.9310   10.9970 C.2   464  GLN464      0.2260
    152  O         13.1530   37.2910   12.1250 O.2   464  GLN464     -0.2867
    153  CB        15.3230   38.2770    9.8570 C.3   464  GLN464      0.0367
    154  CG        15.1290   39.5590   10.6870 C.3   464  GLN464      0.0905
    155  CD        16.1920   39.7960   11.7460 C.2   464  GLN464      0.2608
    156  OE1       16.9510   38.8910   12.1330 O.2   464  GLN464     -0.2717
    157  NE2       16.2460   41.0300   12.2700 N.am  464  GLN464     -0.0878
@<TRIPOS>BOND
     1    56    54    1
     2    55    54    1
     3    54    53    1
     4    60    59    2
     5    45    47   ar
     6    45    44   ar
     7    53    50    1
     8    71    69    1
     9    68    67    2
    10    47    48   ar
    11    66    69    1
    12    66    67    1
    13    66    65    1
    14    59    65   am
    15    59    58    1
    16    69    70    1
    17    43    44    1
    18    43    40    1
    19    67    72   am
    20    44    46   ar
    21    63    62    2
    22    42    41    2
    23    50    51    1
    24    50    49    1
    25    57    58    1
    26    57    51   am
    27    61    58    1
    28    61    62    1
    29    48    46   ar
    30    51    52    2
    31    62    64   am
    32    75    74    2
    33    74    73    1
    34    41    40    1
    35    72    73    1
    36    40    39    1
    37    73    76    1
    38   125   126    1
    39    39    30   am
    40   126   129    1
    41   126   127    1
    42   129   130    1
    43    76    77    1
    44    76    78    1
    45   132   130   ar
    46   130   131   ar
    47    30    31    2
    48    30    29    1
    49   100    98   ar
    50   127   128    2
    51    80    79    1
    52    80    81    1
    53    29    28    1
    54    29    32    1
    55   148   147    1
    56    20    19    2
    57    36    38   ar
    58    36    34   ar
    59    38    37   ar
    60    98    99   ar
    61    98    97    1
    62   146   147    1
    63   146   145    1
    64    34    33   ar
    65    37    35   ar
    66    81    82    2
    67    33    35   ar
    68    33    32    1
    69    90    89   ar
    70    19    18    1
    71   139   138    1
    72   139   133    1
    73    97    96    1
    74   144   145    1
    75   144   141    1
    76    26    25    1
    77    96    93    1
    78   138   137    1
    79    89    91   ar
    80    89    88    1
    81    18    21    1
    82    18    17    1
    83   133   134    1
    84    11    10    2
    85    21    22    1
    86    87    88    1
    87    87    84    1
    88   140   141    1
    89   140   135   am
    90    24    25    2
    91    24    23    1
    92    25    27    1
    93    93    92    1
    94    93    94    1
    95   141   142    1
    96    92    85   am
    97   137   134    1
    98    17    10   am
    99    10     9    1
   100     7     5    1
   101   134   135    1
   102    22    23    1
   103   142   143    2
   104    85    84    1
   105    85    86    2
   106     4     3    2
   107   135   136    2
   108    84    83    1
   109     2     5    1
   110     2     3    1
   111     2     1    1
   112    94    95    2
   113   107   105    1
   114   106   105    1
   115     5     6    1
   116    12     9    1
   117    12    13    1
   118     9     8    1
   119   105   102    1
   120    13    14    1
   121   102   101    1
   122   102   103    1
   123    15    14   ar
   124    14    16   ar
   125   108   103   am
   126   108   109    1
   127   103   104    2
   128   112   109    1
   129   112   113    1
   130   114   113    1
   131   149   150    1
   132   115   113    1
   133   153   150    1
   134   153   154    1
   135   109   110    1
   136   121   122    1
   137   121   120    1
   138   122   124   am
   139   122   123    2
   140   150   151    1
   141   154   155    1
   142   151   152    2
   143   110   111    2
   144   120   117    1
   145   155   156    2
   146   155   157   am
   147   116   117    1
   148   117   118    1
   149   118   119    2
