@<TRIPOS>MOLECULE
tmp/5ehsB00.pdb
 114 107 0 0 0
SMALL
GASTEIGER

@<TRIPOS>ATOM
      1  N         28.3770    8.5840   10.7400 N.3    61  TYR61      -0.1241
      2  CA        29.2030    9.6050   11.3730 C.3    61  TYR61       0.1605
      3  C         28.5710   10.0810   12.6740 C.2    61  TYR61       0.2264
      4  O         29.2260   10.1040   13.7280 O.2    61  TYR61      -0.2867
      5  CB        29.4250   10.7310   10.3810 C.3    61  TYR61       0.0534
      6  CG        30.3760   10.2770    9.3080 C.ar   61  TYR61      -0.0201
      7  CD1       29.9310    9.5220    8.2330 C.ar   61  TYR61      -0.0009
      8  CD2       31.7300   10.6140    9.3620 C.ar   61  TYR61      -0.0009
      9  CE1       30.8220    9.0970    7.2570 C.ar   61  TYR61       0.0417
     10  CE2       32.6060   10.1880    8.4230 C.ar   61  TYR61       0.0417
     11  CZ        32.1610    9.4390    7.3570 C.ar   61  TYR61       0.1957
     12  OH        33.0680    9.0430    6.3950 O.3    61  TYR61      -0.2866
     13  N         37.1130   11.3110    8.7780 N.3    89  ASP89      -0.1225
     14  CA        36.6220   12.4630    8.0140 C.3    89  ASP89       0.1805
     15  C         35.2870   12.9340    8.6000 C.2    89  ASP89       0.2598
     16  O         34.2270   12.9070    7.9650 O.2    89  ASP89      -0.2718
     17  CB        36.5260   12.1300    6.5240 C.3    89  ASP89       0.1424
     18  CG        35.7040   10.8840    6.2290 C.2    89  ASP89       0.3668
     19  OD1       35.5170    9.9870    7.0880 O.co2  89  ASP89      -0.2456
     20  OD2       35.2430   10.8020    5.0740 O.co2  89  ASP89      -0.2456
     21  N         35.3840   13.4510    9.8390 N.am   90  LEU90      -0.1966
     22  CA        34.2520   13.8390   10.6660 C.3    90  LEU90       0.1728
     23  C         34.2210   15.3600   10.8010 C.2    90  LEU90       0.2616
     24  O         35.1340   15.9650   11.3830 O.2    90  LEU90      -0.2715
     25  CB        34.3640   13.1770   12.0370 C.3    90  LEU90       0.0311
     26  CG        33.2240   13.5740   13.0020 C.3    90  LEU90       0.0022
     27  CD1       31.8680   13.0040   12.5280 C.3    90  LEU90       0.0001
     28  CD2       33.5970   13.1080   14.3750 C.3    90  LEU90       0.0001
     29  N         33.1480   15.9700   10.3160 N.am   91  THR91      -0.1951
     30  CA        33.0720   17.4180   10.2390 C.3    91  THR91       0.1897
     31  C         32.7120   18.0190   11.5900 C.2    91  THR91       0.2313
     32  O         31.8080   17.5400   12.2770 O.2    91  THR91      -0.2863
     33  CB        32.0070   17.8350    9.2140 C.3    91  THR91       0.1794
     34  OG1       32.3530   17.2330    7.9480 O.3    91  THR91      -0.2208
     35  CG2       32.0150   19.2960    9.0400 C.3    91  THR91       0.0378
     36  N         26.8440   18.8150   16.5030 N.3    96  ARG96      -0.1245
     37  CA        27.7310   17.8990   17.2000 C.3    96  ARG96       0.1563
     38  C         28.4710   18.5780   18.3520 C.2    96  ARG96       0.2260
     39  O         28.7010   17.9520   19.3900 O.2    96  ARG96      -0.2867
     40  CB        28.7470   17.2860   16.2200 C.3    96  ARG96       0.0307
     41  CG        28.1640   16.3410   15.1980 C.3    96  ARG96       0.0489
     42  CD        29.1480   15.9820   14.0910 C.3    96  ARG96       0.2205
     43  NE        28.5250   15.0130   13.1950 N.pl3  96  ARG96      -0.0865
     44  CZ        28.8800   14.8190   11.9340 C.cat  96  ARG96       0.5346
     45  NH1       29.8820   15.4910   11.3680 N.pl3  96  ARG96       0.1354
     46  NH2       28.2240   13.9090   11.2160 N.pl3  96  ARG96       0.1354
     47  N         25.3280   12.9500   -3.4490 N.3   138  LEU138     -0.1245
     48  CA        25.0320   11.7030   -2.7470 C.3   138  LEU138      0.1561
     49  C         23.7160   11.8370   -2.0070 C.2   138  LEU138      0.2260
     50  O         23.5330   12.7770   -1.2330 O.2   138  LEU138     -0.2867
     51  CB        26.1760   11.3940   -1.7760 C.3   138  LEU138      0.0270
     52  CG        26.0690   10.1590   -0.8800 C.3   138  LEU138      0.0019
     53  CD1       25.9720    8.8920   -1.6890 C.3   138  LEU138      0.0001
     54  CD2       27.2630   10.0930    0.0750 C.3   138  LEU138      0.0001
     55  N         23.3960   12.6450    1.8740 N.3   141  GLY141     -0.1210
     56  CA        24.7190   12.9490    2.3680 C.3   141  GLY141      0.1956
     57  C         24.8000   14.3810    2.8910 C.2   141  GLY141      0.2613
     58  O         23.8490   15.1610    2.8370 O.2   141  GLY141     -0.2717
     59  N         25.9960   14.7270    3.3750 N.am  142  SER142     -0.1938
     60  CA        26.1920   16.0480    3.9590 C.3   142  SER142      0.2055
     61  C         26.1940   17.1500    2.8970 C.2   142  SER142      0.2643
     62  O         25.8330   18.2970    3.1980 O.2   142  SER142     -0.2714
     63  CB        27.4890   16.0630    4.7640 C.3   142  SER142      0.2130
     64  OG        28.6150   15.8690    3.9230 O.3   142  SER142     -0.2179
     65  N         26.5940   16.8420    1.6510 N.am  143  THR143     -0.1950
     66  CA        26.5000   17.8770    0.6250 C.3   143  THR143      0.1897
     67  C         25.0420   18.1780    0.2820 C.2   143  THR143      0.2313
     68  O         24.6470   19.3470    0.2120 O.2   143  THR143     -0.2863
     69  CB        27.3080   17.4920   -0.6150 C.3   143  THR143      0.1794
     70  OG1       28.6930   17.3980   -0.2460 O.3   143  THR143     -0.2208
     71  CG2       27.1640   18.5560   -1.6740 C.3   143  THR143      0.0378
     72  N         29.2280    7.7520   -3.8000 N.3   174  ASN174     -0.1240
     73  CA        30.0210    8.7420   -4.5120 C.3   174  ASN174      0.1653
     74  C         30.6940    8.1470   -5.7410 C.2   174  ASN174      0.2266
     75  O         30.9430    8.8720   -6.7060 O.2   174  ASN174     -0.2867
     76  CB        31.0540    9.3560   -3.5700 C.3   174  ASN174      0.1155
     77  CG        30.4190   10.0620   -2.4070 C.2   174  ASN174      0.2627
     78  OD1       30.5010    9.5910   -1.2720 O.2   174  ASN174     -0.2716
     79  ND2       29.7750   11.1980   -2.6730 N.am  174  ASN174     -0.0877
     80  N         30.2770   17.4510   -3.9710 N.3   192  MET192     -0.1230
     81  CA        30.7480   16.7130   -2.8160 C.3   192  MET192      0.1702
     82  C         31.8580   17.5120   -2.1570 C.2   192  MET192      0.2592
     83  O         32.2040   18.6180   -2.5870 O.2   192  MET192     -0.2718
     84  CB        31.2010   15.2960   -3.1950 C.3   192  MET192      0.0401
     85  CG        32.2390   15.2210   -4.2580 C.3   192  MET192      0.0596
     86  SD        32.6420   13.4900   -4.7640 S.3   192  MET192     -0.1393
     87  CE        34.0660   13.7600   -5.7250 C.3   192  MET192      0.0692
     88  N         32.3810   16.9620   -1.0740 N.am  193  GLU193     -0.1979
     89  CA        33.4670   17.6170   -0.3570 C.3   193  GLU193      0.1602
     90  C         34.7070   17.7470   -1.2450 C.2   193  GLU193      0.2287
     91  O         35.0670   16.8290   -1.9850 O.2   193  GLU193     -0.2864
     92  CB        33.8110   16.8280    0.8990 C.3   193  GLU193      0.0415
     93  CG        32.6350   16.6410    1.9080 C.3   193  GLU193      0.1163
     94  CD        33.0940   16.0140    3.2350 C.2   193  GLU193      0.3649
     95  OE1       34.0730   15.2420    3.2180 O.co2 193  GLU193     -0.2457
     96  OE2       32.4890   16.2740    4.2900 O.co2 193  GLU193     -0.2457
     97  N         37.2220   14.8630   -1.1130 N.3   196  SER196     -0.1217
     98  CA        36.8140   13.7430   -1.9570 C.3   196  SER196      0.1889
     99  C         37.1030   14.0320   -3.4130 C.2   196  SER196      0.2288
    100  O         37.5390   13.1450   -4.1670 O.2   196  SER196     -0.2866
    101  CB        35.3250   13.4760   -1.7810 C.3   196  SER196      0.2089
    102  OG        34.9960   13.1420   -0.4420 O.3   196  SER196     -0.2183
    103  N         37.5910   19.0050    9.4450 N.3   219  TYR219     -0.1241
    104  CA        37.6160   17.7630   10.1890 C.3   219  TYR219      0.1605
    105  C         38.4240   17.9940   11.4460 C.2   219  TYR219      0.2264
    106  O         39.5280   18.5390   11.3790 O.2   219  TYR219     -0.2867
    107  CB        38.2550   16.6160    9.4000 C.3   219  TYR219      0.0534
    108  CG        37.6270   16.2570    8.0700 C.ar  219  TYR219     -0.0201
    109  CD1       36.2680   16.3680    7.8520 C.ar  219  TYR219     -0.0009
    110  CD2       38.4240   15.7950    7.0210 C.ar  219  TYR219     -0.0009
    111  CE1       35.7110   16.0520    6.6200 C.ar  219  TYR219      0.0417
    112  CE2       37.8510   15.4350    5.7990 C.ar  219  TYR219      0.0417
    113  CZ        36.5120   15.5780    5.6250 C.ar  219  TYR219      0.1957
    114  OH        35.9280   15.2600    4.4200 O.3   219  TYR219     -0.2866
@<TRIPOS>BOND
     1    75    74    2
     2    74    73    1
     3    87    86    1
     4    86    85    1
     5    73    72    1
     6    73    76    1
     7    85    84    1
     8   100    99    2
     9    80    81    1
    10    76    77    1
    11    47    48    1
    12    99    98    1
    13    84    81    1
    14    81    82    1
    15    48    49    1
    16    48    51    1
    17    79    77   am
    18    83    82    2
    19    77    78    2
    20    82    88   am
    21    49    50    2
    22    91    90    2
    23    98   101    1
    24    98    97    1
    25   101   102    1
    26    51    52    1
    27    53    52    1
    28    71    69    1
    29    90    89    1
    30    88    89    1
    31    52    54    1
    32    69    70    1
    33    69    66    1
    34    89    92    1
    35    68    67    2
    36    67    66    1
    37    66    65    1
    38    92    93    1
    39    65    61   am
    40    55    56    1
    41    93    94    1
    42    56    57    1
    43    58    57    2
    44    57    59   am
    45    61    62    2
    46    61    60    1
    47    95    94   ar
    48    94    96   ar
    49    59    60    1
    50    64    63    1
    51    60    63    1
    52   114   113    1
    53    20    18   ar
    54   113   112   ar
    55   113   111   ar
    56   112   110   ar
    57    18    17    1
    58    18    19   ar
    59    12    11    1
    60    17    14    1
    61   111   109   ar
    62   110   108   ar
    63     9    11   ar
    64     9     7   ar
    65    11    10   ar
    66   109   108   ar
    67    34    33    1
    68    16    15    2
    69    14    15    1
    70    14    13    1
    71   108   107    1
    72     7     6   ar
    73    10     8   ar
    74    15    21   am
    75    35    33    1
    76    33    30    1
    77     6     8   ar
    78     6     5    1
    79   107   104    1
    80   103   104    1
    81    21    22    1
    82   104   105    1
    83    30    29    1
    84    30    31    1
    85    29    23   am
    86     5     2    1
    87    22    23    1
    88    22    25    1
    89     1     2    1
    90    23    24    2
    91    46    44    1
    92    45    44    1
    93     2     3    1
    94   106   105    2
    95    31    32    2
    96    44    43    2
    97    25    26    1
    98    27    26    1
    99     3     4    2
   100    26    28    1
   101    43    42    1
   102    42    41    1
   103    41    40    1
   104    40    37    1
   105    36    37    1
   106    37    38    1
   107    38    39    2
