@<TRIPOS>MOLECULE
tmp/5ehvA00.pdb
 143 140 0 0 0
SMALL
GASTEIGER

@<TRIPOS>ATOM
      1  N         31.2200    5.2800    8.5550 N.3     1  HIS1       -0.1241
      2  CA        30.6800    4.2620    9.4920 C.3     1  HIS1        0.1621
      3  C         30.1410    3.0120    8.7810 C.2     1  HIS1        0.2264
      4  O         29.1440    3.0790    8.0660 O.2     1  HIS1       -0.2867
      5  CB        29.6620    4.8530   10.4500 C.3     1  HIS1        0.0745
      6  CG        30.2670    5.6900   11.5470 C.ar    1  HIS1        0.0817
      7  ND1       31.2400    5.2170   12.4050 N.ar    1  HIS1       -0.2268
      8  CD2       30.0090    6.9520   11.9520 C.ar    1  HIS1        0.1154
      9  CE1       31.5580    6.1540   13.2670 C.ar    1  HIS1        0.1986
     10  NE2       30.8410    7.2190   13.0040 N.ar    1  HIS1       -0.2212
     11  N          8.4740    6.7490   11.2680 N.3    90  GLN90      -0.1245
     12  CA         8.7750    5.6160   10.4090 C.3    90  GLN90       0.1566
     13  C          8.5310    4.3400   11.1710 C.2    90  GLN90       0.2260
     14  O          8.5080    4.3470   12.4140 O.2    90  GLN90      -0.2867
     15  CB        10.2340    5.6260    9.9220 C.3    90  GLN90       0.0367
     16  CG        11.2260    5.7130   11.0650 C.3    90  GLN90       0.0905
     17  CD        12.0720    4.4380   11.1060 C.2    90  GLN90       0.2608
     18  OE1       11.5660    3.3320   11.2360 O.2    90  GLN90      -0.2717
     19  NE2       13.3520    4.5660   10.8390 N.am   90  GLN90      -0.0878
     20  N          9.9990    0.0250   10.9130 N.3    92  HIS92      -0.1241
     21  CA        10.8620   -0.9560   10.2830 C.3    92  HIS92       0.1621
     22  C         10.7990   -2.2030   11.1280 C.2    92  HIS92       0.2264
     23  O         10.2040   -2.2220   12.2070 O.2    92  HIS92      -0.2867
     24  CB        12.2840   -0.4480   10.2090 C.3    92  HIS92       0.0745
     25  CG        12.8580   -0.1810   11.5640 C.ar   92  HIS92       0.0817
     26  ND1       12.7770    1.0490   12.1920 N.ar   92  HIS92      -0.2268
     27  CD2       13.4640   -1.0050   12.4500 C.ar   92  HIS92       0.1154
     28  CE1       13.3040    0.9600   13.3960 C.ar   92  HIS92       0.1986
     29  NE2       13.7060   -0.2830   13.5950 N.ar   92  HIS92      -0.2212
     30  N         13.1110   -5.9660   12.4690 N.3    94  HIS94      -0.1241
     31  CA        14.3210   -6.7700   12.6290 C.3    94  HIS94       0.1621
     32  C         13.8640   -8.2190   12.5080 C.2    94  HIS94       0.2264
     33  O         12.7990   -8.5620   13.0350 O.2    94  HIS94      -0.2867
     34  CB        14.9840   -6.5350   14.0000 C.3    94  HIS94       0.0745
     35  CG        15.2570   -5.0920   14.2730 C.ar   94  HIS94       0.0817
     36  ND1       16.4850   -4.5090   14.0650 N.ar   94  HIS94      -0.2268
     37  CD2       14.4280   -4.0900   14.6600 C.ar   94  HIS94       0.1154
     38  CE1       16.4230   -3.2230   14.3740 C.ar   94  HIS94       0.1986
     39  NE2       15.1800   -2.9430   14.7330 N.ar   94  HIS94      -0.2212
     40  N          9.1840   -2.1390   14.8620 N.3   117  HIS117     -0.1241
     41  CA         9.4180   -0.9050   15.6110 C.3   117  HIS117      0.1621
     42  C          8.7410    0.2600   14.9200 C.2   117  HIS117      0.2264
     43  O          9.1020    0.6270   13.8060 O.2   117  HIS117     -0.2867
     44  CB        10.9160   -0.6050   15.7220 C.3   117  HIS117      0.0745
     45  CG        11.6300   -1.5770   16.5840 C.ar  117  HIS117      0.0817
     46  ND1       12.9990   -1.7680   16.5540 N.ar  117  HIS117     -0.2268
     47  CD2       11.1290   -2.4010   17.5240 C.ar  117  HIS117      0.1154
     48  CE1       13.3000   -2.6840   17.4580 C.ar  117  HIS117      0.1986
     49  NE2       12.1960   -3.0700   18.0710 N.ar  117  HIS117     -0.2212
     50  N          8.3980    4.0450   15.2410 N.3   119  VAL119     -0.1245
     51  CA         9.2230    5.0860   15.8670 C.3   119  VAL119      0.1561
     52  C          8.5230    6.4160   15.8840 C.2   119  VAL119      0.2260
     53  O          8.0650    6.8920   14.8410 O.2   119  VAL119     -0.2867
     54  CB        10.5630    5.2150   15.1040 C.3   119  VAL119      0.0252
     55  CG1       11.4820    6.2800   15.7520 C.3   119  VAL119      0.0019
     56  CG2       11.2780    3.8330   15.0110 C.3   119  VAL119      0.0019
     57  N         12.8810   15.3900   14.8130 N.3   128  PHE128     -0.1227
     58  CA        13.4750   14.1320   15.2280 C.3   128  PHE128      0.1736
     59  C         14.9290   14.3360   15.6580 C.2   128  PHE128      0.2596
     60  O         15.3510   13.7300   16.6560 O.2   128  PHE128     -0.2718
     61  CB        13.3600   13.1330   14.0750 C.3   128  PHE128      0.0547
     62  CG        14.0130   11.8310   14.3330 C.ar  128  PHE128     -0.0202
     63  CD1       13.3240   10.8280   14.9490 C.ar  128  PHE128     -0.0042
     64  CD2       15.3440   11.6140   13.9750 C.ar  128  PHE128     -0.0042
     65  CE1       13.9140    9.6010   15.1730 C.ar  128  PHE128     -0.0003
     66  CE2       15.9190   10.3730   14.2290 C.ar  128  PHE128     -0.0003
     67  CZ        15.1930    9.4000   14.8290 C.ar  128  PHE128     -0.0000
     68  N         15.7170   15.0950   14.9050 N.am  129  GLY129     -0.1957
     69  CA        17.1180   15.2500   15.2460 C.3   129  GLY129      0.1869
     70  C         17.3680   15.8980   16.5970 C.2   129  GLY129      0.2309
     71  O         18.3310   15.5730   17.3040 O.2   129  GLY129     -0.2863
     72  N         16.2440   13.1490   19.4780 N.3   132  VAL132     -0.1245
     73  CA        17.1470   12.0690   19.8670 C.3   132  VAL132      0.1561
     74  C         18.2540   12.5070   20.7910 C.2   132  VAL132      0.2260
     75  O         18.9550   11.6280   21.3320 O.2   132  VAL132     -0.2867
     76  CB        17.7680   11.3450   18.6410 C.3   132  VAL132      0.0252
     77  CG1       16.6710   10.7410   17.7820 C.3   132  VAL132      0.0019
     78  CG2       18.6510   12.2710   17.7820 C.3   132  VAL132      0.0019
     79  N          9.2320    4.2460   21.1290 N.3   140  VAL140     -0.1245
     80  CA         9.2010    3.1920   20.1320 C.3   140  VAL140      0.1561
     81  C          8.2150    2.1330   20.6030 C.2   140  VAL140      0.2260
     82  O          8.3350    1.6000   21.7140 O.2   140  VAL140     -0.2867
     83  CB        10.5980    2.5740   19.8190 C.3   140  VAL140      0.0252
     84  CG1       10.4330    1.5150   18.6980 C.3   140  VAL140      0.0019
     85  CG2       11.5470    3.6550   19.3380 C.3   140  VAL140      0.0019
     86  N         18.1210    3.5850   21.2390 N.3   195  LEU195     -0.1231
     87  CA        18.1330    3.0220   19.8750 C.3   195  LEU195      0.1693
     88  C         18.8830    1.7090   19.8820 C.2   195  LEU195      0.2593
     89  O         19.8820    1.5580   20.5990 O.2   195  LEU195     -0.2718
     90  CB        18.8350    3.9690   18.8990 C.3   195  LEU195      0.0284
     91  CG        18.3570    5.3980   18.8470 C.3   195  LEU195      0.0019
     92  CD1       19.1900    6.2210   17.8760 C.3   195  LEU195      0.0001
     93  CD2       16.8990    5.4400   18.4270 C.3   195  LEU195      0.0001
     94  N         18.4530    0.7310   19.0710 N.am  196  THR196     -0.1939
     95  CA        19.1060   -0.5720   19.0270 C.3   196  THR196      0.2028
     96  C         20.1080   -0.6720   17.8770 C.2   196  THR196      0.2643
     97  O         20.6970   -1.7350   17.6960 O.2   196  THR196     -0.2714
     98  CB        18.0950   -1.7040   18.9160 C.3   196  THR196      0.1808
     99  OG1       17.3880   -1.5420   17.6640 O.3   196  THR196     -0.2208
    100  CG2       17.1280   -1.7190   20.0730 C.3   196  THR196      0.0379
    101  N         20.3040    0.4130   17.1370 N.am  197  THR197     -0.1937
    102  CA        21.3730    0.4980   16.1460 C.3   197  THR197      0.2013
    103  C         22.1730    1.7570   16.4380 C.2   197  THR197      0.2484
    104  O         21.6730    2.6970   17.0590 O.2   197  THR197     -0.2729
    105  CB        20.8580    0.5870   14.6990 C.3   197  THR197      0.1807
    106  OG1       20.1270    1.7900   14.5710 O.3   197  THR197     -0.2208
    107  CG2       19.9850   -0.5800   14.3270 C.3   197  THR197      0.0379
    108  N         23.4360    1.7920   15.9770 N.am  198  PRO198     -0.2715
    109  CA        24.1750    3.0430   16.0430 C.3   198  PRO198      0.1521
    110  C         23.3010    4.1850   15.5290 C.2   198  PRO198      0.2440
    111  O         22.6120    4.0020   14.4990 O.2   198  PRO198     -0.2731
    112  CB        25.3540    2.7660   15.1140 C.3   198  PRO198      0.0310
    113  CG        25.6250    1.2880   15.3450 C.3   198  PRO198      0.0237
    114  CD        24.2280    0.7240   15.3600 C.3   198  PRO198      0.0939
    115  N         23.3370    5.3480   16.1780 N.am  199  PRO199     -0.2727
    116  CA        24.2710    5.7700   17.2200 C.3   199  PRO199      0.1402
    117  C         23.8900    5.3170   18.6520 C.2   199  PRO199      0.2269
    118  O         24.5580    5.7900   19.5770 O.2   199  PRO199     -0.2865
    119  CB        24.2510    7.2980   17.0630 C.3   199  PRO199      0.0296
    120  CG        22.8760    7.5960   16.5840 C.3   199  PRO199      0.0237
    121  CD        22.5530    6.4840   15.6360 C.3   199  PRO199      0.0939
    122  N         21.6860    5.9570   20.8240 N.3   201  LEU201     -0.1245
    123  CA        21.3990    7.0530   21.7410 C.3   201  LEU201      0.1561
    124  C         20.3440    6.6340   22.7720 C.2   201  LEU201      0.2260
    125  O         19.3830    5.9340   22.4630 O.2   201  LEU201     -0.2867
    126  CB        20.9040    8.2670   20.9690 C.3   201  LEU201      0.0270
    127  CG        21.9530    8.8410   20.0380 C.3   201  LEU201      0.0019
    128  CD1       21.3150    9.9150   19.1350 C.3   201  LEU201      0.0001
    129  CD2       23.1190    9.4390   20.8140 C.3   201  LEU201      0.0001
    130  N         10.6130    2.7800   25.6560 N.3   206  TRP206     -0.1241
    131  CA        10.1640    1.5670   24.9620 C.3   206  TRP206      0.1605
    132  C          8.7940    1.1630   25.4620 C.2   206  TRP206      0.2264
    133  O          8.5490    1.1010   26.6850 O.2   206  TRP206     -0.2867
    134  CB        11.1530    0.3930   25.1820 C.3   206  TRP206      0.0550
    135  CG        12.3030    0.4980   24.2650 C.ar  206  TRP206      0.0003
    136  CD1       13.5330    1.0830   24.5100 C.ar  206  TRP206      0.0946
    137  CD2       12.3040    0.1090   22.8990 C.ar  206  TRP206      0.0152
    138  NE1       14.2910    1.0330   23.3540 N.ar  206  TRP206     -0.2442
    139  CE2       13.5640    0.4280   22.3630 C.ar  206  TRP206      0.0810
    140  CE3       11.3700   -0.5430   22.0740 C.ar  206  TRP206      0.0012
    141  CZ2       13.8910    0.1500   21.0440 C.ar  206  TRP206      0.0191
    142  CZ3       11.7230   -0.8050   20.7710 C.ar  206  TRP206      0.0001
    143  CH2       12.9650   -0.4960   20.2910 C.ar  206  TRP206      0.0015
@<TRIPOS>BOND
     1     4     3    2
     2     1     2    1
     3     3     2    1
     4     2     5    1
     5    15    12    1
     6    15    16    1
     7    24    21    1
     8    24    25    1
     9    21    20    1
    10    21    22    1
    11    12    13    1
    12    12    11    1
    13     5     6    1
    14    19    17   am
    15    16    17    1
    16    17    18    2
    17    22    23    2
    18    13    14    2
    19     6     8   ar
    20     6     7   ar
    21    25    26   ar
    22    25    27   ar
    23     8    10   ar
    24    26    28   ar
    25     7     9   ar
    26    27    29   ar
    27    30    31    1
    28    32    31    1
    29    32    33    2
    30    31    34    1
    31    10     9   ar
    32    28    29   ar
    33    43    42    2
    34    64    66   ar
    35    64    62   ar
    36    34    35    1
    37    36    35   ar
    38    36    38   ar
    39    61    62    1
    40    61    58    1
    41    66    67   ar
    42    35    37   ar
    43   107   105    1
    44    62    63   ar
    45    38    39   ar
    46   111   110    2
    47   106   105    1
    48    37    39   ar
    49   105   102    1
    50    57    58    1
    51    67    65   ar
    52    53    52    2
    53    40    41    1
    54    68    69    1
    55    68    59   am
    56    42    41    1
    57    63    65   ar
    58    56    54    1
    59    54    55    1
    60    54    51    1
    61   112   113    1
    62   112   109    1
    63    58    59    1
    64    50    51    1
    65    69    70    1
    66   113   114    1
    67   114   108    1
    68   110   109    1
    69   110   115   am
    70    41    44    1
    71   121   115    1
    72   121   120    1
    73    59    60    2
    74    44    45    1
    75    51    52    1
    76   108   109    1
    77   108   103   am
    78   102   103    1
    79   102   101    1
    80   115   116    1
    81   103   104    2
    82    46    45   ar
    83    46    48   ar
    84   120   119    1
    85    45    47   ar
    86    70    71    2
    87   119   116    1
    88   101    96   am
    89   116   117    1
    90    48    49   ar
    91    47    49   ar
    92    99    98    1
    93    97    96    2
    94    78    76    1
    95    77    76    1
    96    92    91    1
    97    96    95    1
    98    93    91    1
    99    76    73    1
   100   117   118    2
   101    84    83    1
   102    91    90    1
   103    90    87    1
   104    98    95    1
   105    98   100    1
   106    95    94    1
   107    94    88   am
   108   128   127    1
   109    85    83    1
   110    72    73    1
   111    83    80    1
   112    73    74    1
   113    87    88    1
   114    87    86    1
   115    88    89    2
   116   127   129    1
   117   127   126    1
   118    80    81    1
   119    80    79    1
   120   143   142   ar
   121   143   141   ar
   122    81    82    2
   123   142   140   ar
   124    74    75    2
   125   122   123    1
   126   126   123    1
   127   141   139   ar
   128   123   124    1
   129   140   137   ar
   130   139   137   ar
   131   139   138   ar
   132   125   124    2
   133   137   135   ar
   134   138   136   ar
   135   135   136   ar
   136   135   134    1
   137   131   134    1
   138   131   132    1
   139   131   130    1
   140   132   133    2
