@<TRIPOS>MOLECULE
tmp/5ehwA00.pdb
 129 126 0 0 0
SMALL
GASTEIGER

@<TRIPOS>ATOM
      1  N          8.6590    6.8370   11.5390 N.3    90  GLN90      -0.1245
      2  CA         8.9110    5.7120   10.6420 C.3    90  GLN90       0.1566
      3  C          8.6790    4.4060   11.3690 C.2    90  GLN90       0.2260
      4  O          8.6790    4.3700   12.6030 O.2    90  GLN90      -0.2867
      5  CB        10.3450    5.7240   10.0990 C.3    90  GLN90       0.0367
      6  CG        11.3560    5.7210   11.2390 C.3    90  GLN90       0.0905
      7  CD        12.1630    4.4450   11.2370 C.2    90  GLN90       0.2608
      8  OE1       11.6350    3.3690   11.4980 O.2    90  GLN90      -0.2717
      9  NE2       13.4540    4.5670   10.9730 N.am   90  GLN90      -0.0878
     10  N         10.0730    0.0500   11.0140 N.3    92  HIS92      -0.1241
     11  CA        10.9610   -0.9230   10.3670 C.3    92  HIS92       0.1621
     12  C         10.8850   -2.1950   11.1810 C.2    92  HIS92       0.2264
     13  O         10.2730   -2.2200   12.2740 O.2    92  HIS92      -0.2867
     14  CB        12.4010   -0.4130   10.3170 C.3    92  HIS92       0.0745
     15  CG        12.9530   -0.1640   11.6680 C.ar   92  HIS92       0.0817
     16  ND1       12.7940    1.0370   12.3290 N.ar   92  HIS92      -0.2268
     17  CD2       13.5850   -0.9930   12.5260 C.ar   92  HIS92       0.1154
     18  CE1       13.3340    0.9380   13.5330 C.ar   92  HIS92       0.1986
     19  NE2       13.8130   -0.2880   13.6770 N.ar   92  HIS92      -0.2212
     20  N         13.1470   -5.9550   12.4500 N.3    94  HIS94      -0.1241
     21  CA        14.3400   -6.7630   12.6260 C.3    94  HIS94       0.1621
     22  C         13.8950   -8.2010   12.4800 C.2    94  HIS94       0.2264
     23  O         12.8350   -8.5480   12.9820 O.2    94  HIS94      -0.2867
     24  CB        14.9740   -6.5420   13.9960 C.3    94  HIS94       0.0745
     25  CG        15.2880   -5.1040   14.2830 C.ar   94  HIS94       0.0817
     26  ND1       16.5320   -4.5540   14.0460 N.ar   94  HIS94      -0.2268
     27  CD2       14.5110   -4.0960   14.7440 C.ar   94  HIS94       0.1154
     28  CE1       16.5190   -3.2750   14.3890 C.ar   94  HIS94       0.1986
     29  NE2       15.2970   -2.9680   14.7880 N.ar   94  HIS94      -0.2212
     30  N          9.3270   -2.1540   14.9450 N.3   117  HIS117     -0.1241
     31  CA         9.5610   -0.9350   15.7110 C.3   117  HIS117      0.1621
     32  C          8.8760    0.2310   15.0600 C.2   117  HIS117      0.2264
     33  O          9.2480    0.6080   13.9390 O.2   117  HIS117     -0.2867
     34  CB        11.0600   -0.6390   15.8110 C.3   117  HIS117      0.0745
     35  CG        11.7750   -1.6030   16.6960 C.ar  117  HIS117      0.0817
     36  ND1       13.1430   -1.8100   16.6690 N.ar  117  HIS117     -0.2268
     37  CD2       11.2790   -2.4650   17.6170 C.ar  117  HIS117      0.1154
     38  CE1       13.4560   -2.7190   17.5750 C.ar  117  HIS117      0.1986
     39  NE2       12.3430   -3.1350   18.1580 N.ar  117  HIS117     -0.2212
     40  N          8.6160    4.0300   15.4570 N.3   119  VAL119     -0.1245
     41  CA         9.4420    5.0460   16.1180 C.3   119  VAL119      0.1561
     42  C          8.7340    6.3890   16.1660 C.2   119  VAL119      0.2260
     43  O          8.2450    6.8690   15.1520 O.2   119  VAL119     -0.2867
     44  CB        10.7690    5.2040   15.3810 C.3   119  VAL119      0.0252
     45  CG1       11.6530    6.2810   16.0480 C.3   119  VAL119      0.0019
     46  CG2       11.5320    3.8400   15.2630 C.3   119  VAL119      0.0019
     47  N         13.1190   15.7100   15.0800 N.3   128  PHE128     -0.1241
     48  CA        13.6520   14.4030   15.4440 C.3   128  PHE128      0.1605
     49  C         15.1130   14.4460   15.8800 C.2   128  PHE128      0.2264
     50  O         15.4840   13.7790   16.8490 O.2   128  PHE128     -0.2867
     51  CB        13.4850   13.4430   14.2600 C.3   128  PHE128      0.0534
     52  CG        14.0320   12.0730   14.5070 C.ar  128  PHE128     -0.0203
     53  CD1       13.2870   11.1390   15.2010 C.ar  128  PHE128     -0.0042
     54  CD2       15.2980   11.7220   14.0500 C.ar  128  PHE128     -0.0042
     55  CE1       13.7860    9.8580   15.4300 C.ar  128  PHE128     -0.0003
     56  CE2       15.8010   10.4510   14.2820 C.ar  128  PHE128     -0.0003
     57  CZ        15.0470    9.5260   14.9640 C.ar  128  PHE128     -0.0000
     58  N         16.4130   13.0440   19.6660 N.3   132  VAL132     -0.1245
     59  CA        17.2860   11.9020   19.9830 C.3   132  VAL132      0.1561
     60  C         18.4020   12.2680   20.9590 C.2   132  VAL132      0.2260
     61  O         19.0710   11.3910   21.5010 O.2   132  VAL132     -0.2867
     62  CB        17.9220   11.2700   18.7220 C.3   132  VAL132      0.0252
     63  CG1       16.8520   10.7310   17.7850 C.3   132  VAL132      0.0019
     64  CG2       18.8290   12.2560   18.0050 C.3   132  VAL132      0.0019
     65  N         12.3410    9.8990   22.5260 N.3   138  LEU138     -0.1245
     66  CA        11.6580    8.9620   21.6350 C.3   138  LEU138      0.1561
     67  C         10.7660    8.0170   22.3960 C.2   138  LEU138      0.2260
     68  O         11.0190    7.7190   23.5710 O.2   138  LEU138     -0.2867
     69  CB        12.6620    8.1160   20.8330 C.3   138  LEU138      0.0270
     70  CG        13.5910    8.7880   19.8120 C.3   138  LEU138      0.0019
     71  CD1       14.3040    7.7490   18.9090 C.3   138  LEU138      0.0001
     72  CD2       12.9730    9.9030   18.9900 C.3   138  LEU138      0.0001
     73  N          9.3990    4.1650   21.3520 N.3   140  VAL140     -0.1245
     74  CA         9.3320    3.1430   20.3170 C.3   140  VAL140      0.1561
     75  C          8.3580    2.0750   20.7800 C.2   140  VAL140      0.2260
     76  O          8.4440    1.5360   21.8890 O.2   140  VAL140     -0.2867
     77  CB        10.7160    2.5280   19.9930 C.3   140  VAL140      0.0252
     78  CG1       10.5890    1.5070   18.8460 C.3   140  VAL140      0.0019
     79  CG2       11.6840    3.6190   19.5680 C.3   140  VAL140      0.0019
     80  N         18.2340    3.3830   21.4380 N.3   195  LEU195     -0.1231
     81  CA        18.2160    2.8640   20.0670 C.3   195  LEU195      0.1693
     82  C         18.9480    1.5350   20.0520 C.2   195  LEU195      0.2593
     83  O         19.9450    1.3670   20.7570 O.2   195  LEU195     -0.2718
     84  CB        18.8960    3.8380   19.0980 C.3   195  LEU195      0.0284
     85  CG        18.3540    5.2670   19.0290 C.3   195  LEU195      0.0019
     86  CD1       19.2050    6.0950   18.0590 C.3   195  LEU195      0.0001
     87  CD2       16.8990    5.2460   18.5980 C.3   195  LEU195      0.0001
     88  N         18.4980    0.6070   19.2160 N.am  196  THR196     -0.1939
     89  CA        19.1590   -0.6880   19.1730 C.3   196  THR196      0.2028
     90  C         20.1570   -0.7960   18.0200 C.2   196  THR196      0.2643
     91  O         20.7560   -1.8640   17.8250 O.2   196  THR196     -0.2714
     92  CB        18.1410   -1.8320   19.0670 C.3   196  THR196      0.1808
     93  OG1       17.4220   -1.7050   17.8350 O.3   196  THR196     -0.2208
     94  CG2       17.1560   -1.8070   20.2590 C.3   196  THR196      0.0379
     95  N         20.3600    0.2990   17.2910 N.am  197  THR197     -0.1937
     96  CA        21.4270    0.3650   16.2880 C.3   197  THR197      0.2013
     97  C         22.2460    1.6000   16.6140 C.2   197  THR197      0.2484
     98  O         21.7470    2.5240   17.2720 O.2   197  THR197     -0.2729
     99  CB        20.9070    0.4860   14.8450 C.3   197  THR197      0.1807
    100  OG1       20.2710    1.7540   14.6860 O.3   197  THR197     -0.2208
    101  CG2       19.9000   -0.6100   14.5200 C.3   197  THR197      0.0379
    102  N         23.4960    1.6580   16.1440 N.am  198  PRO198     -0.2715
    103  CA        24.2390    2.9150   16.2230 C.3   198  PRO198      0.1521
    104  C         23.3600    4.0630   15.7210 C.2   198  PRO198      0.2440
    105  O         22.6520    3.8960   14.7040 O.2   198  PRO198     -0.2731
    106  CB        25.4310    2.6560   15.3010 C.3   198  PRO198      0.0310
    107  CG        25.6820    1.1660   15.4550 C.3   198  PRO198      0.0237
    108  CD        24.2730    0.5900   15.4830 C.3   198  PRO198      0.0939
    109  N         23.3940    5.2180   16.4000 N.am  199  PRO199     -0.2727
    110  CA        24.3310    5.6140   17.4640 C.3   199  PRO199      0.1402
    111  C         23.9840    5.1350   18.8930 C.2   199  PRO199      0.2269
    112  O         24.6670    5.5700   19.8240 O.2   199  PRO199     -0.2865
    113  CB        24.2930    7.1420   17.3930 C.3   199  PRO199      0.0296
    114  CG        22.9270    7.4500   16.9100 C.3   199  PRO199      0.0237
    115  CD        22.5270    6.3320   15.9750 C.3   199  PRO199      0.0939
    116  N         10.7350    2.6160   25.9000 N.3   206  TRP206     -0.1241
    117  CA        10.2850    1.4330   25.1790 C.3   206  TRP206      0.1605
    118  C          8.9100    1.0310   25.6370 C.2   206  TRP206      0.2264
    119  O          8.6270    1.0090   26.8430 O.2   206  TRP206     -0.2867
    120  CB        11.2840    0.2760   25.3840 C.3   206  TRP206      0.0550
    121  CG        12.4090    0.3760   24.4110 C.ar  206  TRP206      0.0003
    122  CD1       13.6490    0.9330   24.6220 C.ar  206  TRP206      0.0946
    123  CD2       12.3670   -0.0210   23.0470 C.ar  206  TRP206      0.0152
    124  NE1       14.3720    0.9020   23.4560 N.ar  206  TRP206     -0.2442
    125  CE2       13.6150    0.3000   22.4860 C.ar  206  TRP206      0.0810
    126  CE3       11.4000   -0.6530   22.2520 C.ar  206  TRP206      0.0012
    127  CZ2       13.9180    0.0420   21.1400 C.ar  206  TRP206      0.0191
    128  CZ3       11.6980   -0.9190   20.9180 C.ar  206  TRP206      0.0001
    129  CH2       12.9550   -0.5810   20.3790 C.ar  206  TRP206      0.0015
@<TRIPOS>BOND
     1     5     2    1
     2     5     6    1
     3    14    11    1
     4    14    15    1
     5    11    10    1
     6    11    12    1
     7     2     3    1
     8     2     1    1
     9     9     7   am
    10    12    13    2
    11     7     6    1
    12     7     8    2
    13     3     4    2
    14    15    16   ar
    15    15    17   ar
    16    16    18   ar
    17    20    21    1
    18    22    21    1
    19    22    23    2
    20    17    19   ar
    21    21    24    1
    22    18    19   ar
    23    33    32    2
    24    24    25    1
    25    26    25   ar
    26    26    28   ar
    27    54    56   ar
    28    54    52   ar
    29    51    52    1
    30    51    48    1
    31    56    57   ar
    32    25    27   ar
    33    28    29   ar
    34    52    53   ar
    35   101    99    1
    36   100    99    1
    37   105   104    2
    38    27    29   ar
    39    99    96    1
    40    30    31    1
    41    57    55   ar
    42    32    31    1
    43    47    48    1
    44    43    42    2
    45    53    55   ar
    46    46    44    1
    47   106   107    1
    48   106   103    1
    49    44    45    1
    50    44    41    1
    51    48    49    1
    52   107   108    1
    53    40    41    1
    54   108   102    1
    55    31    34    1
    56   104   103    1
    57   104   109   am
    58    34    35    1
    59    49    50    2
    60   115   109    1
    61   115   114    1
    62    41    42    1
    63   102   103    1
    64   102    97   am
    65    96    97    1
    66    96    95    1
    67   109   110    1
    68    97    98    2
    69    36    35   ar
    70    36    38   ar
    71    35    37   ar
    72   114   113    1
    73    95    90   am
    74   113   110    1
    75   110   111    1
    76    38    39   ar
    77    37    39   ar
    78    63    62    1
    79    91    90    2
    80    93    92    1
    81    64    62    1
    82    90    89    1
    83    86    85    1
    84    87    85    1
    85    62    59    1
    86    78    77    1
    87   111   112    2
    88    71    70    1
    89    72    70    1
    90    85    84    1
    91    92    89    1
    92    92    94    1
    93    84    81    1
    94    89    88    1
    95    88    82   am
    96    79    77    1
    97    58    59    1
    98    70    69    1
    99    59    60    1
   100    77    74    1
   101    82    81    1
   102    82    83    2
   103    81    80    1
   104    74    75    1
   105    74    73    1
   106   129   128   ar
   107   129   127   ar
   108    75    76    2
   109    69    66    1
   110   128   126   ar
   111    60    61    2
   112   127   125   ar
   113    66    67    1
   114    66    65    1
   115   126   123   ar
   116    67    68    2
   117   125   123   ar
   118   125   124   ar
   119   123   121   ar
   120   124   122   ar
   121   121   122   ar
   122   121   120    1
   123   117   120    1
   124   117   118    1
   125   117   116    1
   126   118   119    2
