@<TRIPOS>MOLECULE
tmp/5ehyA02.pdb
 103 101 0 0 0
SMALL
GASTEIGER

@<TRIPOS>ATOM
      1  N         24.2690  126.2680  122.6490 N.3    99  LEU99      -0.1231
      2  CA        23.2610  127.0160  121.8670 C.3    99  LEU99       0.1693
      3  C         23.3550  126.7270  120.3580 C.2    99  LEU99       0.2591
      4  O         22.3240  126.6730  119.6940 O.2    99  LEU99      -0.2718
      5  CB        23.3210  128.5350  122.1260 C.3    99  LEU99       0.0284
      6  CG        23.0050  129.0560  123.5420 C.3    99  LEU99       0.0019
      7  CD1       23.4400  130.5030  123.6850 C.3    99  LEU99       0.0001
      8  CD2       21.5180  128.9000  123.9080 C.3    99  LEU99       0.0001
      9  N         24.5860  126.5200  119.8340 N.am  100  LYS100     -0.1980
     10  CA        24.8740  126.1930  118.4340 C.3   100  LYS100      0.1596
     11  C         24.3330  124.7880  118.0660 C.2   100  LYS100      0.2287
     12  O         23.7410  124.6290  116.9990 O.2   100  LYS100     -0.2864
     13  CB        26.3970  126.2580  118.1700 C.3   100  LYS100      0.0298
     14  CG        26.9590  127.6570  118.0560 C.3   100  LYS100      0.0038
     15  CD        28.4830  127.6080  118.0030 C.3   100  LYS100      0.0206
     16  CE        29.0390  128.6960  117.1120 C.3   100  LYS100      0.1093
     17  NZ        28.8030  128.3640  115.6750 N.3   100  LYS100     -0.1314
     18  N         21.9400  122.9580  119.7590 N.3   102  LYS102     -0.1231
     19  CA        20.4900  122.9670  119.9320 C.3   102  LYS102      0.1693
     20  C         19.7910  123.8460  118.8910 C.2   102  LYS102      0.2592
     21  O         20.3210  124.8940  118.5140 O.2   102  LYS102     -0.2718
     22  CB        20.1300  123.4620  121.3400 C.3   102  LYS102      0.0285
     23  CG        20.0760  122.3670  122.3880 C.3   102  LYS102      0.0035
     24  CD        19.0410  122.7140  123.4540 C.3   102  LYS102      0.0206
     25  CE        17.7950  121.8580  123.4090 C.3   102  LYS102      0.1093
     26  NZ        16.8730  122.1610  124.5350 N.3   102  LYS102     -0.1314
     27  N         18.5880  123.4330  118.4550 N.am  103  LYS103     -0.1966
     28  CA        17.7740  124.1900  117.5010 C.3   103  LYS103      0.1728
     29  C         16.8320  125.1240  118.2790 C.2   103  LYS103      0.2617
     30  O         16.9960  126.3480  118.2270 O.2   103  LYS103     -0.2715
     31  CB        16.9860  123.2420  116.5740 C.3   103  LYS103      0.0311
     32  CG        17.7640  122.2620  115.7020 C.3   103  LYS103      0.0038
     33  CD        18.5460  123.1030  114.7600 C.3   103  LYS103      0.0206
     34  CE        19.4290  122.0140  114.1020 C.3   103  LYS103      0.1093
     35  NZ        20.7300  122.6310  113.8000 N.3   103  LYS103     -0.1314
     36  N         15.8720  124.5380  119.0250 N.am  104  SER104     -0.1936
     37  CA        14.9310  125.2730  119.8670 C.3   104  SER104      0.2055
     38  C         15.3740  125.1930  121.3310 C.2   104  SER104      0.2642
     39  O         16.1110  124.2790  121.7130 O.2   104  SER104     -0.2714
     40  CB        13.5200  124.7120  119.7130 C.3   104  SER104      0.2130
     41  OG        13.3760  123.4370  120.2380 O.3   104  SER104     -0.2179
     42  N         14.9310  126.1640  122.1430 N.am  105  ILE105     -0.1977
     43  CA        15.2280  126.2380  123.5780 C.3   105  ILE105      0.1596
     44  C         13.9190  126.2810  124.3810 C.2   105  ILE105      0.2287
     45  O         12.9470  126.9320  123.9790 O.2   105  ILE105     -0.2864
     46  CB        16.2040  127.4070  123.9300 C.3   105  ILE105      0.0276
     47  CG1       16.7910  127.2610  125.3610 C.3   105  ILE105      0.0022
     48  CG2       15.5430  128.7700  123.6980 C.3   105  ILE105      0.0022
     49  CD1       17.8810  128.2020  125.7230 C.3   105  ILE105      0.0001
     50  N         15.7010  128.5430  129.4340 N.3   110  ARG110     -0.1245
     51  CA        16.1250  129.9060  129.1170 C.3   110  ARG110      0.1563
     52  C         16.0590  130.8040  130.3730 C.2   110  ARG110      0.2260
     53  O         17.0600  131.4230  130.7250 O.2   110  ARG110     -0.2867
     54  CB        15.2590  130.4620  127.9700 C.3   110  ARG110      0.0307
     55  CG        15.4920  131.9350  127.6200 C.3   110  ARG110      0.0489
     56  CD        14.8660  132.2870  126.2870 C.3   110  ARG110      0.2205
     57  NE        13.4360  131.9590  126.2530 N.pl3 110  ARG110     -0.0865
     58  CZ        12.7830  131.5480  125.1730 C.cat 110  ARG110      0.5346
     59  NH1       13.4140  131.4250  124.0130 N.pl3 110  ARG110      0.1354
     60  NH2       11.4950  131.2590  125.2430 N.pl3 110  ARG110      0.1354
     61  N         19.6960  136.1280  121.7460 N.3   187  TYR187     -0.1227
     62  CA        20.0790  134.9840  120.9490 C.3   187  TYR187      0.1736
     63  C         19.2680  133.7850  121.3740 C.2   187  TYR187      0.2595
     64  O         18.7970  133.0310  120.5560 O.2   187  TYR187     -0.2718
     65  CB        21.5530  134.6990  121.1670 C.3   187  TYR187      0.0548
     66  CG        22.1710  133.6670  120.2570 C.ar  187  TYR187     -0.0200
     67  CD1       22.0360  133.7480  118.8870 C.ar  187  TYR187     -0.0009
     68  CD2       22.9220  132.6310  120.7700 C.ar  187  TYR187     -0.0009
     69  CE1       22.6170  132.8130  118.0570 C.ar  187  TYR187      0.0417
     70  CE2       23.5100  131.6940  119.9470 C.ar  187  TYR187      0.0417
     71  CZ        23.3520  131.7890  118.5940 C.ar  187  TYR187      0.1957
     72  OH        23.9330  130.8590  117.7720 O.3   187  TYR187     -0.2866
     73  N         19.1000  133.6360  122.6740 N.am  188  MET188     -0.1965
     74  CA        18.3520  132.5390  123.2620 C.3   188  MET188      0.1736
     75  C         16.8680  132.6060  122.9350 C.2   188  MET188      0.2617
     76  O         16.1550  131.6370  123.0680 O.2   188  MET188     -0.2715
     77  CB        18.5460  132.4970  124.7770 C.3   188  MET188      0.0427
     78  CG        19.9470  132.1470  125.2380 C.3   188  MET188      0.0599
     79  SD        20.0260  131.5100  126.9180 S.3   188  MET188     -0.1393
     80  CE        19.6520  132.9600  127.8590 C.3   188  MET188      0.0692
     81  N         16.4090  133.7770  122.5440 N.am  189  THR189     -0.1937
     82  CA        14.9930  133.9940  122.2370 C.3   189  THR189      0.2028
     83  C         14.6940  133.8490  120.7480 C.2   189  THR189      0.2642
     84  O         13.8210  133.0780  120.3660 O.2   189  THR189     -0.2714
     85  CB        14.5380  135.3570  122.7940 C.3   189  THR189      0.1808
     86  OG1       14.8030  135.3980  124.1940 O.3   189  THR189     -0.2208
     87  CG2       13.0770  135.6250  122.5530 C.3   189  THR189      0.0379
     88  N         15.4190  134.6120  119.9240 N.am  190  TYR190     -0.1959
     89  CA        15.2390  134.7310  118.4820 C.3   190  TYR190      0.1771
     90  C         16.2070  133.8860  117.6030 C.2   190  TYR190      0.2620
     91  O         16.0540  133.8930  116.3810 O.2   190  TYR190     -0.2715
     92  CB        15.3060  136.2230  118.1060 C.3   190  TYR190      0.0574
     93  CG        14.2540  137.0700  118.8010 C.ar  190  TYR190     -0.0198
     94  CD1       12.8960  136.7850  118.6630 C.ar  190  TYR190     -0.0009
     95  CD2       14.6110  138.1900  119.5440 C.ar  190  TYR190     -0.0009
     96  CE1       11.9260  137.5570  119.3000 C.ar  190  TYR190      0.0417
     97  CE2       13.6460  138.9930  120.1510 C.ar  190  TYR190      0.0417
     98  CZ        12.3030  138.6690  120.0280 C.ar  190  TYR190      0.1957
     99  OH        11.3370  139.4570  120.6010 O.3   190  TYR190     -0.2866
    100  N         17.1540  133.1660  118.2160 N.am  191  GLY191     -0.1954
    101  CA        18.0980  132.2960  117.5150 C.3   191  GLY191      0.1869
    102  C         19.2600  132.9870  116.8320 C.2   191  GLY191      0.2309
    103  O         20.0490  132.3340  116.1440 O.2   191  GLY191     -0.2863
@<TRIPOS>BOND
     1    35    34    1
     2    34    33    1
     3    33    32    1
     4    17    16    1
     5    32    31    1
     6   103   102    2
     7    91    90    2
     8    31    28    1
     9   102   101    1
    10    12    11    2
    11    16    15    1
    12    28    29    1
    13    28    27    1
    14   101   100    1
    15    90   100   am
    16    90    89    1
    17    72    71    1
    18    15    14    1
    19    14    13    1
    20    69    71   ar
    21    69    67   ar
    22    11    10    1
    23    92    89    1
    24    92    93    1
    25    13    10    1
    26    30    29    2
    27    29    36   am
    28    10     9    1
    29    27    20   am
    30    89    88    1
    31    21    20    2
    32    71    70   ar
    33    94    93   ar
    34    94    96   ar
    35    93    95   ar
    36    67    66   ar
    37    20    19    1
    38    36    37    1
    39    96    98   ar
    40    95    97   ar
    41     4     3    2
    42    40    37    1
    43    40    41    1
    44    18    19    1
    45     9     3   am
    46    37    38    1
    47    88    83   am
    48    19    22    1
    49    70    68   ar
    50    98    97   ar
    51    98    99    1
    52    66    68   ar
    53    66    65    1
    54     3     2    1
    55    84    83    2
    56    64    63    2
    57    83    82    1
    58    62    65    1
    59    62    63    1
    60    62    61    1
    61    38    39    2
    62    38    42   am
    63    22    23    1
    64    63    73   am
    65     2     5    1
    66     2     1    1
    67     5     6    1
    68    42    43    1
    69    82    81    1
    70    82    85    1
    71    23    24    1
    72    81    75   am
    73    87    85    1
    74    73    74    1
    75    85    86    1
    76    75    76    2
    77    75    74    1
    78    74    77    1
    79    25    24    1
    80    25    26    1
    81     6     7    1
    82     6     8    1
    83    43    46    1
    84    43    44    1
    85    48    46    1
    86    46    47    1
    87    45    44    2
    88    59    58    1
    89    77    78    1
    90    58    60    1
    91    58    57    2
    92    78    79    1
    93    47    49    1
    94    57    56    1
    95    56    55    1
    96    79    80    1
    97    55    54    1
    98    54    51    1
    99    51    50    1
   100    51    52    1
   101    52    53    2
