@<TRIPOS>MOLECULE
tmp/5ehyA06.pdb
 108 100 0 0 0
SMALL
GASTEIGER

@<TRIPOS>ATOM
      1  N         40.6660  119.6900  127.1020 N.3    17  ILE17      -0.1231
      2  CA        39.3670  120.3370  126.8730 C.3    17  ILE17       0.1692
      3  C         39.5720  121.5430  125.9380 C.2    17  ILE17       0.2592
      4  O         38.8760  121.6730  124.9300 O.2    17  ILE17      -0.2718
      5  CB        38.6340  120.7750  128.1910 C.3    17  ILE17       0.0266
      6  CG1       38.6310  119.6830  129.2820 C.3    17  ILE17       0.0019
      7  CG2       37.2010  121.2590  127.8800 C.3    17  ILE17       0.0020
      8  CD1       38.1480  120.1470  130.6630 C.3    17  ILE17       0.0001
      9  N         40.5000  122.4160  126.2870 N.am   18  GLY18      -0.1957
     10  CA        40.7410  123.6040  125.5030 C.3    18  GLY18       0.1869
     11  C         42.1940  123.9690  125.3930 C.2    18  GLY18       0.2309
     12  O         43.0140  123.4990  126.1510 O.2    18  GLY18      -0.2863
     13  N         43.7420  123.5400  128.8470 N.3    25  VAL25      -0.1245
     14  CA        42.8590  123.0670  129.8900 C.3    25  VAL25       0.1561
     15  C         42.6970  121.5850  129.6770 C.2    25  VAL25       0.2260
     16  O         42.4680  121.1400  128.5800 O.2    25  VAL25      -0.2867
     17  CB        41.4990  123.7520  129.8650 C.3    25  VAL25       0.0252
     18  CG1       40.6690  123.2860  131.0390 C.3    25  VAL25       0.0019
     19  CG2       41.6710  125.2510  129.9100 C.3    25  VAL25       0.0019
     20  N         38.9830  119.9620  136.1330 N.3    37  ALA37      -0.1245
     21  CA        39.5520  120.5930  134.9700 C.3    37  ALA37       0.1562
     22  C         40.7690  121.3230  135.4870 C.2    37  ALA37       0.2260
     23  O         40.6820  122.0580  136.4460 O.2    37  ALA37      -0.2867
     24  CB        38.5740  121.5610  134.3500 C.3    37  ALA37       0.0290
     25  N         43.6940  123.9880  134.5660 N.3    39  LYS39      -0.1245
     26  CA        44.1170  124.9700  133.6060 C.3    39  LYS39       0.1561
     27  C         45.6010  125.1550  133.7970 C.2    39  LYS39       0.2260
     28  O         46.0730  125.4590  134.8750 O.2    39  LYS39      -0.2867
     29  CB        43.3820  126.2870  133.8130 C.3    39  LYS39       0.0271
     30  CG        43.7140  127.3590  132.7940 C.3    39  LYS39       0.0035
     31  CD        43.0820  128.6800  133.1800 C.3    39  LYS39       0.0206
     32  CE        43.2160  129.7090  132.0820 C.3    39  LYS39       0.1093
     33  NZ        42.6050  130.9930  132.4970 N.3    39  LYS39      -0.1314
     34  N         32.5290  129.4250  138.8900 N.3    72  ILE72      -0.1245
     35  CA        33.2200  128.1510  138.8420 C.3    72  ILE72       0.1561
     36  C         34.1200  127.9330  140.0400 C.2    72  ILE72       0.2260
     37  O         34.7450  128.8560  140.5100 O.2    72  ILE72      -0.2867
     38  CB        34.0500  128.0750  137.5590 C.3    72  ILE72       0.0252
     39  CG1       34.6820  126.7110  137.4010 C.3    72  ILE72       0.0019
     40  CG2       35.1160  129.1460  137.5550 C.3    72  ILE72       0.0019
     41  CD1       35.4170  126.5580  136.0990 C.3    72  ILE72       0.0001
     42  N         40.2390  123.2070  138.9400 N.3    88  MET88      -0.1230
     43  CA        38.9050  123.7310  138.9440 C.3    88  MET88       0.1702
     44  C         37.8180  122.7470  138.6280 C.2    88  MET88       0.2592
     45  O         38.0520  121.6250  138.2320 O.2    88  MET88      -0.2718
     46  CB        38.8050  124.8710  137.9470 C.3    88  MET88       0.0401
     47  CG        39.9570  125.8400  138.0040 C.3    88  MET88       0.0596
     48  SD        39.8270  127.0440  136.7040 S.3    88  MET88      -0.1393
     49  CE        38.5280  128.0520  137.3460 C.3    88  MET88       0.0692
     50  N         36.6110  123.2190  138.8440 N.am   89  GLU89      -0.1966
     51  CA        35.4180  122.4820  138.5870 C.3    89  GLU89       0.1733
     52  C         35.3520  122.2060  137.1010 C.2    89  GLU89       0.2616
     53  O         35.6460  123.0670  136.2970 O.2    89  GLU89      -0.2715
     54  CB        34.2490  123.3590  139.0100 C.3    89  GLU89       0.0429
     55  CG        32.8740  122.7740  138.8410 C.3    89  GLU89       0.1163
     56  CD        31.8000  123.6510  139.4390 C.2    89  GLU89       0.3649
     57  OE1       32.0490  124.8410  139.6590 O.co2  89  GLU89      -0.2457
     58  OE2       30.7030  123.1430  139.6860 O.co2  89  GLU89      -0.2457
     59  N         34.9690  120.9880  136.7490 N.am   90  CYS90      -0.1954
     60  CA        34.8150  120.5770  135.3720 C.3    90  CYS90       0.1843
     61  C         33.3630  120.7250  134.9310 C.2    90  CYS90       0.2626
     62  O         32.4500  120.1090  135.5140 O.2    90  CYS90      -0.2714
     63  CB        35.3160  119.1510  135.1550 C.3    90  CYS90       0.0997
     64  SG        35.7150  118.7830  133.4300 S.3    90  CYS90      -0.0797
     65  N         33.1720  121.5000  133.8750 N.am   91  GLY91      -0.1940
     66  CA        31.8480  121.6930  133.2970 C.3    91  GLY91       0.2014
     67  C         31.5230  120.6660  132.2350 C.2    91  GLY91       0.2639
     68  O         32.3900  119.9050  131.8120 O.2    91  GLY91      -0.2714
     69  N         30.2810  120.6640  131.7700 N.am   92  ASN92      -0.1958
     70  CA        29.8330  119.7520  130.7280 C.3    92  ASN92       0.1819
     71  C         30.1150  120.3070  129.3270 C.2    92  ASN92       0.2621
     72  O         30.6770  119.6070  128.4800 O.2    92  ASN92      -0.2715
     73  CB        28.3510  119.4380  130.9160 C.3    92  ASN92       0.1195
     74  CG        28.0730  118.7340  132.2140 C.2    92  ASN92       0.2630
     75  OD1       28.7730  117.7810  132.5950 O.2    92  ASN92      -0.2716
     76  ND2       27.0470  119.1760  132.9210 N.am   92  ASN92      -0.0877
     77  N         29.7290  121.5710  129.0940 N.am   93  ILE93      -0.1963
     78  CA        29.8560  122.2650  127.8100 C.3    93  ILE93       0.1727
     79  C         29.7700  123.7790  128.0610 C.2    93  ILE93       0.2616
     80  O         29.1410  124.1840  129.0310 O.2    93  ILE93      -0.2715
     81  CB        28.7180  121.7400  126.8420 C.3    93  ILE93       0.0290
     82  CG1       28.9090  122.2440  125.3920 C.3    93  ILE93       0.0022
     83  CG2       27.2830  122.0090  127.3660 C.3    93  ILE93       0.0023
     84  CD1       28.0950  121.4990  124.3450 C.3    93  ILE93       0.0001
     85  N         30.3720  124.6080  127.1940 N.am   94  ASP94      -0.1971
     86  CA        30.2030  126.0620  127.2920 C.3    94  ASP94       0.1709
     87  C         28.8140  126.3770  126.6800 C.2    94  ASP94       0.2293
     88  O         28.2940  125.5740  125.9020 O.2    94  ASP94      -0.2864
     89  CB        31.3250  126.8350  126.5720 C.3    94  ASP94       0.1436
     90  CG        31.4130  126.5270  125.0940 C.2    94  ASP94       0.3671
     91  OD1       32.0010  125.4760  124.7390 O.co2  94  ASP94      -0.2456
     92  OD2       30.8190  127.2750  124.3000 O.co2  94  ASP94      -0.2456
     93  N         29.4420  128.3680  131.4670 N.3   140  LEU140     -0.1245
     94  CA        29.6060  126.9200  131.4950 C.3   140  LEU140      0.1561
     95  C         28.4140  126.2430  132.1150 C.2   140  LEU140      0.2260
     96  O         27.9420  126.6730  133.1640 O.2   140  LEU140     -0.2867
     97  CB        30.8630  126.6560  132.3460 C.3   140  LEU140      0.0270
     98  CG        31.4770  125.2960  132.4250 C.3   140  LEU140      0.0019
     99  CD1       31.6670  124.6970  131.0480 C.3   140  LEU140      0.0001
    100  CD2       32.8170  125.3850  133.1370 C.3   140  LEU140      0.0001
    101  N         32.8570  131.5510  133.8120 N.3   149  ILE149     -0.1245
    102  CA        34.1810  130.9070  133.8140 C.3   149  ILE149      0.1561
    103  C         35.3330  131.8990  134.0880 C.2   149  ILE149      0.2260
    104  O         36.3570  131.5090  134.6740 O.2   149  ILE149     -0.2867
    105  CB        34.4690  130.0080  132.5580 C.3   149  ILE149      0.0252
    106  CG1       34.6810  130.8110  131.2680 C.3   149  ILE149      0.0019
    107  CG2       33.3670  129.0090  132.3390 C.3   149  ILE149      0.0019
    108  CD1       35.7140  130.1590  130.3300 C.3   149  ILE149      0.0001
@<TRIPOS>BOND
     1    92    90   ar
     2    84    82    1
     3    91    90   ar
     4     4     3    2
     5    90    89    1
     6    82    81    1
     7    11    10    1
     8    11    12    2
     9    10     9    1
    10    88    87    2
    11     3     9   am
    12     3     2    1
    13    89    86    1
    14    87    86    1
    15    81    83    1
    16    81    78    1
    17     2     1    1
    18     2     5    1
    19    85    86    1
    20    85    79   am
    21    78    79    1
    22    78    77    1
    23     7     5    1
    24    79    80    2
    25     5     6    1
    26    72    71    2
    27    16    15    2
    28    13    14    1
    29    77    71   am
    30     6     8    1
    31    71    70    1
    32    15    14    1
    33    17    14    1
    34    17    19    1
    35    17    18    1
    36   108   106    1
    37    70    73    1
    38    70    69    1
    39    73    74    1
    40    99    98    1
    41   106   105    1
    42    93    94    1
    43    94    95    1
    44    94    97    1
    45    69    67   am
    46    68    67    2
    47    32    33    1
    48    32    31    1
    49    95    96    2
    50    74    75    2
    51    74    76   am
    52    67    66    1
    53   107   105    1
    54    97    98    1
    55    98   100    1
    56   105   102    1
    57    30    31    1
    58    30    29    1
    59    66    65    1
    60    64    63    1
    61    26    27    1
    62    26    29    1
    63    26    25    1
    64    27    28    2
    65   101   102    1
    66   102   103    1
    67    65    61   am
    68   103   104    2
    69    24    21    1
    70    61    60    1
    71    61    62    2
    72    21    22    1
    73    21    20    1
    74    63    60    1
    75    60    59    1
    76    22    23    2
    77    41    39    1
    78    53    52    2
    79    48    49    1
    80    48    47    1
    81    59    52   am
    82    52    51    1
    83    39    38    1
    84    40    38    1
    85    38    35    1
    86    46    47    1
    87    46    43    1
    88    45    44    2
    89    51    50    1
    90    51    54    1
    91    44    50   am
    92    44    43    1
    93    55    54    1
    94    55    56    1
    95    35    34    1
    96    35    36    1
    97    42    43    1
    98    56    57   ar
    99    56    58   ar
   100    36    37    2
