@<TRIPOS>MOLECULE
tmp/5ei1A01.pdb
 167 156 0 0 0
SMALL
GASTEIGER

@<TRIPOS>ATOM
      1  N        -25.4740  -32.9800   -3.6460 N.3    36  MET36      -0.1245
      2  CA       -25.5230  -31.6290   -4.1930 C.3    36  MET36       0.1570
      3  C        -26.1370  -30.6740   -3.1790 C.2    36  MET36       0.2261
      4  O        -25.7440  -29.5090   -3.0880 O.2    36  MET36      -0.2867
      5  CB       -26.3170  -31.5960   -5.4980 C.3    36  MET36       0.0387
      6  CG       -25.5830  -32.1910   -6.6830 C.3    36  MET36       0.0595
      7  SD       -23.9860  -31.4080   -6.9730 S.3    36  MET36      -0.1393
      8  CE       -24.4650  -29.6860   -7.0820 C.3    36  MET36       0.0692
      9  N        -23.4210  -29.7100   -0.5080 N.3    39  LEU39      -0.1231
     10  CA       -22.4190  -28.8540   -1.1320 C.3    39  LEU39       0.1693
     11  C        -22.9310  -27.4330   -1.3470 C.2    39  LEU39       0.2592
     12  O        -22.2760  -26.4680   -0.9560 O.2    39  LEU39      -0.2718
     13  CB       -21.9670  -29.4500   -2.4660 C.3    39  LEU39       0.0284
     14  CG       -20.7040  -30.3170   -2.4680 C.3    39  LEU39       0.0019
     15  CD1      -20.8050  -31.4410   -1.4540 C.3    39  LEU39       0.0001
     16  CD2      -20.4400  -30.8730   -3.8660 C.3    39  LEU39       0.0001
     17  N        -24.1000  -27.3060   -1.9650 N.am   40  THR40      -0.1953
     18  CA       -24.6640  -25.9900   -2.2420 C.3    40  THR40       0.1897
     19  C        -25.0330  -25.2700   -0.9470 C.2    40  THR40       0.2313
     20  O        -24.8830  -24.0530   -0.8340 O.2    40  THR40      -0.2863
     21  CB       -25.9050  -26.0850   -3.1450 C.3    40  THR40       0.1794
     22  OG1      -26.8530  -26.9810   -2.5570 O.3    40  THR40      -0.2208
     23  CG2      -25.5160  -26.5910   -4.5270 C.3    40  THR40       0.0378
     24  N        -23.5200  -25.7400    1.9740 N.3    42  LEU42      -0.1231
     25  CA       -22.2410  -25.3470    2.5450 C.3    42  LEU42       0.1693
     26  C        -21.6890  -24.0880    1.8760 C.2    42  LEU42       0.2591
     27  O        -21.2960  -23.1360    2.5530 O.2    42  LEU42      -0.2718
     28  CB       -21.2310  -26.4880    2.4210 C.3    42  LEU42       0.0284
     29  CG       -19.8000  -26.1560    2.8440 C.3    42  LEU42       0.0019
     30  CD1      -19.7270  -25.8770    4.3380 C.3    42  LEU42       0.0001
     31  CD2      -18.8480  -27.2810    2.4430 C.3    42  LEU42       0.0001
     32  N        -21.6670  -24.0900    0.5480 N.am   43  ALA43      -0.1980
     33  CA       -21.1340  -22.9650   -0.2130 C.3    43  ALA43       0.1597
     34  C        -21.9280  -21.6900    0.0340 C.2    43  ALA43       0.2287
     35  O        -21.3570  -20.6020    0.1150 O.2    43  ALA43      -0.2864
     36  CB       -21.1200  -23.2890   -1.6950 C.3    43  ALA43       0.0319
     37  N        -20.7570  -20.3730    3.3020 N.3    46  GLU46      -0.1245
     38  CA       -19.3800  -19.9010    3.1490 C.3    46  GLU46       0.1567
     39  C        -19.3040  -18.5580    2.4360 C.2    46  GLU46       0.2260
     40  O        -18.4380  -17.7350    2.7350 O.2    46  GLU46      -0.2867
     41  CB       -18.5390  -20.9120    2.3730 C.3    46  GLU46       0.0388
     42  CG       -18.1510  -22.1520    3.1440 C.3    46  GLU46       0.1160
     43  CD       -17.0850  -22.9430    2.4250 C.2    46  GLU46       0.3649
     44  OE1      -17.4230  -23.6800    1.4750 O.co2  46  GLU46      -0.2457
     45  OE2      -15.9020  -22.8090    2.7980 O.co2  46  GLU46      -0.2457
     46  N        -15.6510  -16.2510   -6.9740 N.3    76  TRP76      -0.1227
     47  CA       -16.1790  -16.8880   -5.7630 C.3    76  TRP76       0.1737
     48  C        -16.0020  -18.4060   -5.7320 C.2    76  TRP76       0.2595
     49  O        -15.7840  -18.9800   -4.6660 O.2    76  TRP76      -0.2718
     50  CB       -17.6620  -16.5520   -5.5750 C.3    76  TRP76       0.0564
     51  CG       -18.5700  -17.1920   -6.5830 C.ar   76  TRP76       0.0003
     52  CD1      -18.9300  -16.6890   -7.8000 C.ar   76  TRP76       0.0946
     53  CD2      -19.2370  -18.4550   -6.4600 C.ar   76  TRP76       0.0152
     54  NE1      -19.7790  -17.5590   -8.4410 N.ar   76  TRP76      -0.2442
     55  CE2      -19.9830  -18.6520   -7.6380 C.ar   76  TRP76       0.0810
     56  CE3      -19.2770  -19.4400   -5.4670 C.ar   76  TRP76       0.0012
     57  CZ2      -20.7560  -19.7880   -7.8510 C.ar   76  TRP76       0.0191
     58  CZ3      -20.0450  -20.5670   -5.6820 C.ar   76  TRP76       0.0001
     59  CH2      -20.7710  -20.7320   -6.8640 C.ar   76  TRP76       0.0015
     60  N        -16.0980  -19.0590   -6.8860 N.am   77  LEU77      -0.1980
     61  CA       -15.9560  -20.5090   -6.9140 C.3    77  LEU77       0.1596
     62  C        -14.4810  -20.9030   -6.8570 C.2    77  LEU77       0.2287
     63  O        -14.1260  -21.9010   -6.2330 O.2    77  LEU77      -0.2864
     64  CB       -16.6240  -21.1060   -8.1510 C.3    77  LEU77       0.0297
     65  CG       -16.7730  -22.6300   -8.1130 C.3    77  LEU77       0.0022
     66  CD1      -17.3190  -23.0860   -6.7600 C.3    77  LEU77       0.0001
     67  CD2      -17.6690  -23.1150   -9.2460 C.3    77  LEU77       0.0001
     68  N        -13.6480  -20.5650   -3.1520 N.3    80  LEU80      -0.1231
     69  CA       -14.1620  -21.7290   -2.4360 C.3    80  LEU80       0.1693
     70  C        -13.3150  -22.9690   -2.7060 C.2    80  LEU80       0.2591
     71  O        -13.0730  -23.7750   -1.8070 O.2    80  LEU80      -0.2718
     72  CB       -15.6150  -22.0140   -2.8260 C.3    80  LEU80       0.0284
     73  CG       -16.7090  -21.0920   -2.2920 C.3    80  LEU80       0.0019
     74  CD1      -18.0600  -21.5690   -2.7820 C.3    80  LEU80       0.0001
     75  CD2      -16.6770  -21.0430   -0.7780 C.3    80  LEU80       0.0001
     76  N        -12.8650  -23.1160   -3.9480 N.am   81  MET81      -0.1979
     77  CA       -12.1390  -24.3170   -4.3510 C.3    81  MET81       0.1605
     78  C        -10.7050  -24.3510   -3.8180 C.2    81  MET81       0.2287
     79  O        -10.2420  -25.4030   -3.3720 O.2    81  MET81      -0.2864
     80  CB       -12.1460  -24.4570   -5.8750 C.3    81  MET81       0.0413
     81  CG       -13.4350  -25.0700   -6.4140 C.3    81  MET81       0.0598
     82  SD       -13.4270  -25.3420   -8.2010 S.3    81  MET81      -0.1393
     83  CE       -14.9360  -26.2820   -8.4270 C.3    81  MET81       0.0692
     84  N        -11.0330  -25.3450   -0.3310 N.3    84  LEU84      -0.1245
     85  CA       -11.2680  -26.7890   -0.2800 C.3    84  LEU84       0.1561
     86  C         -9.9680  -27.5730   -0.4300 C.2    84  LEU84       0.2260
     87  O         -9.6420  -28.4350    0.3910 O.2    84  LEU84      -0.2867
     88  CB       -12.2580  -27.2070   -1.3730 C.3    84  LEU84       0.0270
     89  CG       -12.4990  -28.7050   -1.5800 C.3    84  LEU84       0.0019
     90  CD1      -13.0340  -29.3480   -0.3110 C.3    84  LEU84       0.0001
     91  CD2      -13.4620  -28.9320   -2.7320 C.3    84  LEU84       0.0001
     92  N         -7.7640  -27.1520    2.5740 N.3    87  ARG87      -0.1245
     93  CA        -8.2640  -27.9190    3.7100 C.3    87  ARG87       0.1563
     94  C         -7.9650  -29.4030    3.5420 C.2    87  ARG87       0.2260
     95  O         -7.7580  -30.1140    4.5220 O.2    87  ARG87      -0.2867
     96  CB        -9.7730  -27.7170    3.8920 C.3    87  ARG87       0.0307
     97  CG       -10.1790  -26.3090    4.2900 C.3    87  ARG87       0.0489
     98  CD       -11.6100  -26.2670    4.8150 C.3    87  ARG87       0.2205
     99  NE       -12.5950  -26.7560    3.8510 N.pl3  87  ARG87      -0.0865
    100  CZ       -13.1170  -26.0170    2.8760 C.cat  87  ARG87       0.5346
    101  NH1      -12.7360  -24.7560    2.7190 N.pl3  87  ARG87       0.1354
    102  NH2      -14.0160  -26.5390    2.0530 N.pl3  87  ARG87       0.1354
    103  N        -14.5890  -31.0420    2.3640 N.3    97  PHE97      -0.1241
    104  CA       -15.5720  -29.9720    2.2180 C.3    97  PHE97       0.1605
    105  C        -15.8900  -29.3600    3.5720 C.2    97  PHE97       0.2264
    106  O        -16.0380  -28.1450    3.7010 O.2    97  PHE97      -0.2867
    107  CB       -16.8480  -30.4940    1.5560 C.3    97  PHE97       0.0534
    108  CG       -16.6850  -30.7940    0.0960 C.ar   97  PHE97      -0.0203
    109  CD1      -16.9740  -29.8290   -0.8580 C.ar   97  PHE97      -0.0042
    110  CD2      -16.2290  -32.0320   -0.3260 C.ar   97  PHE97      -0.0042
    111  CE1      -16.8220  -30.0960   -2.2040 C.ar   97  PHE97      -0.0003
    112  CE2      -16.0730  -32.3040   -1.6780 C.ar   97  PHE97      -0.0003
    113  CZ       -16.3700  -31.3330   -2.6160 C.ar   97  PHE97      -0.0000
    114  N        -19.4980  -35.0930  -11.8170 N.3   114  MET114     -0.1245
    115  CA       -18.7820  -34.5630  -10.6600 C.3   114  MET114      0.1570
    116  C        -17.4030  -35.1940  -10.4620 C.2   114  MET114      0.2261
    117  O        -16.4640  -34.5200  -10.0380 O.2   114  MET114     -0.2867
    118  CB       -19.6210  -34.7520   -9.3910 C.3   114  MET114      0.0387
    119  CG       -18.9360  -34.2960   -8.1110 C.3   114  MET114      0.0595
    120  SD       -18.7230  -32.5090   -8.0180 S.3   114  MET114     -0.1393
    121  CE       -20.3670  -32.0060   -7.5200 C.3   114  MET114      0.0692
    122  N        -14.4010  -33.4820  -11.7180 N.3   117  ILE117     -0.1245
    123  CA       -14.0650  -32.2980  -10.9340 C.3   117  ILE117      0.1561
    124  C        -13.3430  -32.6770   -9.6400 C.2   117  ILE117      0.2260
    125  O        -12.4110  -31.9890   -9.2150 O.2   117  ILE117     -0.2867
    126  CB       -15.3260  -31.4710  -10.6070 C.3   117  ILE117      0.0252
    127  CG1      -15.9600  -30.9430  -11.8970 C.3   117  ILE117      0.0019
    128  CG2      -14.9960  -30.3210   -9.6590 C.3   117  ILE117      0.0019
    129  CD1      -17.1690  -30.0600  -11.6790 C.3   117  ILE117      0.0001
    130  N         -9.5400  -31.5030   -8.3920 N.3   121  LEU121     -0.1245
    131  CA        -9.3530  -30.9410   -7.0570 C.3   121  LEU121      0.1561
    132  C         -8.3250  -31.7420   -6.2610 C.2   121  LEU121      0.2260
    133  O         -7.4450  -31.1720   -5.6140 O.2   121  LEU121     -0.2867
    134  CB       -10.6850  -30.8910   -6.3050 C.3   121  LEU121      0.0270
    135  CG       -11.7250  -29.8850   -6.8070 C.3   121  LEU121      0.0019
    136  CD1      -13.0980  -30.1990   -6.2260 C.3   121  LEU121      0.0001
    137  CD2      -11.3070  -28.4670   -6.4560 C.3   121  LEU121      0.0001
    138  N        -16.7580  -26.3030  -12.7470 N.3   205  GLY205     -0.1225
    139  CA       -17.6960  -26.3370  -11.6440 C.3   205  GLY205      0.1811
    140  C        -18.8990  -25.4600  -11.9050 C.2   205  GLY205      0.2280
    141  O        -20.0220  -25.8120  -11.5470 O.2   205  GLY205     -0.2866
    142  N        -21.1120  -27.1860  -14.3520 N.3   208  HIS208     -0.1226
    143  CA       -21.7120  -28.3370  -13.6810 C.3   208  HIS208      0.1752
    144  C        -22.8240  -27.9030  -12.7350 C.2   208  HIS208      0.2595
    145  O        -23.8740  -28.5380  -12.6660 O.2   208  HIS208     -0.2718
    146  CB       -20.6570  -29.1320  -12.9090 C.3   208  HIS208      0.0759
    147  CG       -21.2140  -30.3090  -12.1700 C.ar  208  HIS208      0.0818
    148  ND1      -21.6640  -30.2270  -10.8680 N.ar  208  HIS208     -0.2268
    149  CD2      -21.4060  -31.5940  -12.5530 C.ar  208  HIS208      0.1154
    150  CE1      -22.1050  -31.4110  -10.4820 C.ar  208  HIS208      0.1986
    151  NE2      -21.9600  -32.2580  -11.4850 N.ar  208  HIS208     -0.2212
    152  N        -22.5810  -26.8200  -12.0050 N.am  209  LEU209     -0.1980
    153  CA       -23.5740  -26.2670  -11.0920 C.3   209  LEU209      0.1596
    154  C        -24.7900  -25.7900  -11.8710 C.2   209  LEU209      0.2287
    155  O        -25.9330  -26.0460  -11.4920 O.2   209  LEU209     -0.2864
    156  CB       -22.9730  -25.1190  -10.2820 C.3   209  LEU209      0.0297
    157  CG       -23.8830  -24.5130   -9.2160 C.3   209  LEU209      0.0022
    158  CD1      -24.3770  -25.6080   -8.2900 C.3   209  LEU209      0.0001
    159  CD2      -23.1530  -23.4270   -8.4340 C.3   209  LEU209      0.0001
    160  N        -26.7380  -17.9070   -4.4190 N.3   224  LEU224     -0.1245
    161  CA       -26.0090  -18.8120   -5.3050 C.3   224  LEU224      0.1561
    162  C        -26.4400  -18.6260   -6.7520 C.2   224  LEU224      0.2260
    163  O        -25.6180  -18.6660   -7.6660 O.2   224  LEU224     -0.2867
    164  CB       -26.2210  -20.2680   -4.8890 C.3   224  LEU224      0.0270
    165  CG       -25.0500  -20.9580   -4.1960 C.3   224  LEU224      0.0019
    166  CD1      -25.3910  -22.4110   -3.9200 C.3   224  LEU224      0.0001
    167  CD2      -23.8050  -20.8560   -5.0550 C.3   224  LEU224      0.0001
@<TRIPOS>BOND
     1   142   143    1
     2   143   146    1
     3   143   144    1
     4   146   147    1
     5   138   139    1
     6   144   145    2
     7   144   152   am
     8   149   147   ar
     9   149   151   ar
    10   147   148   ar
    11   152   153    1
    12   140   139    1
    13   140   141    2
    14   127   129    1
    15   127   126    1
    16   154   155    2
    17   154   153    1
    18   114   115    1
    19   122   123    1
    20   151   150   ar
    21   153   156    1
    22   123   126    1
    23   123   124    1
    24   148   150   ar
    25   115   116    1
    26   115   118    1
    27   126   128    1
    28   116   117    2
    29   156   157    1
    30   124   125    2
    31   118   119    1
    32    67    65    1
    33   157   159    1
    34   157   158    1
    35    54    52   ar
    36    54    55   ar
    37    83    82    1
    38   130   131    1
    39    82    81    1
    40    64    65    1
    41    64    61    1
    42    65    66    1
    43   119   120    1
    44   120   121    1
    45    57    55   ar
    46    57    59   ar
    47    52    51   ar
    48   163   162    2
    49    55    53   ar
    50     8     7    1
    51   131   134    1
    52   131   132    1
    53    46    47    1
    54     7     6    1
    55    61    60    1
    56    61    62    1
    57    60    48   am
    58    59    58   ar
    59    62    63    2
    60   135   137    1
    61   135   134    1
    62   135   136    1
    63   162   161    1
    64     6     5    1
    65    51    53   ar
    66    51    50    1
    67    53    56   ar
    68    81    80    1
    69   132   133    2
    70    80    77    1
    71    47    48    1
    72    47    50    1
    73    48    49    2
    74    58    56   ar
    75     5     2    1
    76   161   164    1
    77   161   160    1
    78   167   165    1
    79   164   165    1
    80    23    21    1
    81    77    76    1
    82    77    78    1
    83   165   166    1
    84     2     1    1
    85     2     3    1
    86    76    70   am
    87    16    14    1
    88    78    79    2
    89     3     4    2
    90    68    69    1
    91    21    22    1
    92    21    18    1
    93    72    69    1
    94    72    73    1
    95    74    73    1
    96    91    89    1
    97    70    69    1
    98    70    71    2
    99   113   111   ar
   100   113   112   ar
   101    14    13    1
   102    14    15    1
   103    13    10    1
   104    73    75    1
   105    18    17    1
   106    18    19    1
   107   111   109   ar
   108    17    11   am
   109    36    33    1
   110   112   110   ar
   111    89    88    1
   112    89    90    1
   113    88    85    1
   114    11    10    1
   115    11    12    2
   116    10     9    1
   117    19    20    2
   118   109   108   ar
   119    86    85    1
   120    86    87    2
   121    84    85    1
   122   110   108   ar
   123    33    34    1
   124    33    32    1
   125    34    35    2
   126   108   107    1
   127    32    26   am
   128    44    43   ar
   129   107   104    1
   130    26    25    1
   131    26    27    2
   132    24    25    1
   133   102   100    1
   134   104   103    1
   135   104   105    1
   136    41    42    1
   137    41    38    1
   138    28    25    1
   139    28    29    1
   140    43    45   ar
   141    43    42    1
   142    39    40    2
   143    39    38    1
   144    31    29    1
   145    92    93    1
   146   101   100    1
   147    29    30    1
   148   100    99    2
   149    38    37    1
   150    94    93    1
   151    94    95    2
   152   105   106    2
   153    93    96    1
   154    99    98    1
   155    96    97    1
   156    97    98    1
