@<TRIPOS>MOLECULE
tmp/5ei2A00.pdb
 163 149 0 0 0
SMALL
GASTEIGER

@<TRIPOS>ATOM
      1  N          6.1850  -34.4380   -0.5830 N.3    14  LYS14      -0.1245
      2  CA         5.9250  -35.8020   -1.0820 C.3    14  LYS14       0.1561
      3  C          6.3940  -35.9130   -2.5440 C.2    14  LYS14       0.2260
      4  O          6.5940  -34.8960   -3.2180 O.2    14  LYS14      -0.2867
      5  CB         4.3960  -36.0500   -1.0680 C.3    14  LYS14       0.0271
      6  CG         3.9440  -37.5040   -1.1430 C.3    14  LYS14       0.0035
      7  CD         2.6320  -37.6660   -1.9110 C.3    14  LYS14       0.0206
      8  CE         1.4060  -37.0720   -1.2500 C.3    14  LYS14       0.1093
      9  NZ         0.2540  -36.9820   -2.1970 N.3    14  LYS14      -0.1314
     10  N          5.0650  -36.9630   -6.0090 N.3    16  ILE16      -0.1231
     11  CA         3.8700  -37.3090   -6.7780 C.3    16  ILE16       0.1692
     12  C          4.0230  -38.3590   -7.8760 C.2    16  ILE16       0.2592
     13  O          3.1620  -39.2180   -8.0400 O.2    16  ILE16      -0.2718
     14  CB         3.2390  -36.0600   -7.4180 C.3    16  ILE16       0.0266
     15  CG1        3.0070  -34.9760   -6.3680 C.3    16  ILE16       0.0019
     16  CG2        1.9360  -36.4240   -8.1090 C.3    16  ILE16       0.0020
     17  CD1        2.4350  -33.6990   -6.9400 C.3    16  ILE16       0.0001
     18  N          5.1090  -38.2780   -8.6370 N.am   17  GLY17      -0.1957
     19  CA         5.3240  -39.1960   -9.7410 C.3    17  GLY17       0.1869
     20  C          6.7310  -39.7110   -9.9520 C.2    17  GLY17       0.2309
     21  O          7.7020  -39.1180   -9.4910 O.2    17  GLY17      -0.2863
     22  N          8.0800  -36.2130  -10.0670 N.3    24  VAL24      -0.1245
     23  CA         7.2020  -35.0460   -9.8170 C.3    24  VAL24       0.1561
     24  C          7.0950  -34.9370   -8.3080 C.2    24  VAL24       0.2260
     25  O          6.7780  -35.9290   -7.6530 O.2    24  VAL24      -0.2867
     26  CB         5.7750  -35.0620  -10.4900 C.3    24  VAL24       0.0252
     27  CG1        5.0330  -33.7490  -10.2410 C.3    24  VAL24       0.0019
     28  CG2        5.8390  -35.3230  -11.9830 C.3    24  VAL24       0.0019
     29  N          5.4670  -32.9010   -4.8270 N.3    26  GLN26      -0.1245
     30  CA         4.4740  -32.0010   -4.2510 C.3    26  GLN26       0.1566
     31  C          5.3130  -31.1090   -3.3200 C.2    26  GLN26       0.2260
     32  O          5.9140  -31.6290   -2.3730 O.2    26  GLN26      -0.2867
     33  CB         3.4190  -32.8120   -3.4810 C.3    26  GLN26       0.0367
     34  CG         2.2340  -32.0160   -2.9670 C.3    26  GLN26       0.0905
     35  CD         1.4350  -32.8030   -1.9660 C.2    26  GLN26       0.2608
     36  OE1        1.9540  -33.2750   -0.9480 O.2    26  GLN26      -0.2717
     37  NE2        0.1500  -32.9460   -2.2130 N.am   26  GLN26      -0.0878
     38  N          3.8620  -28.1650   -7.8990 N.3    36  ALA36      -0.1245
     39  CA         4.4180  -29.4250   -8.3290 C.3    36  ALA36       0.1562
     40  C          5.6780  -29.1280   -9.1420 C.2    36  ALA36       0.2260
     41  O          5.6130  -28.3300  -10.0740 O.2    36  ALA36      -0.2867
     42  CB         3.4140  -30.1910   -9.1580 C.3    36  ALA36       0.0290
     43  N          8.4100  -30.7810  -11.6070 N.3    38  LYS38      -0.1245
     44  CA         8.7900  -31.9400  -12.4220 C.3    38  LYS38       0.1561
     45  C         10.2810  -31.8200  -12.6160 C.2    38  LYS38       0.2260
     46  O         10.7370  -30.8800  -13.2780 O.2    38  LYS38      -0.2867
     47  CB         8.0930  -31.9610  -13.7980 C.3    38  LYS38       0.0271
     48  CG         8.2480  -33.2930  -14.5390 C.3    38  LYS38       0.0035
     49  CD         8.1820  -33.1430  -16.0750 C.3    38  LYS38       0.0206
     50  CE         7.5060  -34.3290  -16.7330 C.3    38  LYS38       0.1093
     51  NZ         8.2800  -34.9060  -17.8840 N.3    38  LYS38      -0.1314
     52  N         -2.3060  -26.9960  -17.7190 N.3    71  ILE71      -0.1245
     53  CA        -1.7060  -26.8140  -16.4080 C.3    71  ILE71       0.1561
     54  C         -0.7890  -25.6040  -16.4270 C.2    71  ILE71       0.2260
     55  O         -0.0410  -25.3960  -17.3760 O.2    71  ILE71      -0.2867
     56  CB        -0.9100  -28.0580  -15.9890 C.3    71  ILE71       0.0252
     57  CG1       -0.3060  -27.8630  -14.6000 C.3    71  ILE71       0.0019
     58  CG2        0.1720  -28.3610  -17.0110 C.3    71  ILE71       0.0019
     59  CD1        0.4130  -29.0850  -14.0800 C.3    71  ILE71       0.0001
     60  N          5.1160  -26.0210  -11.5700 N.3    87  MET87      -0.1230
     61  CA         3.7450  -26.0660  -12.0420 C.3    87  MET87       0.1702
     62  C          2.7450  -26.0420  -10.8770 C.2    87  MET87       0.2595
     63  O          3.1390  -26.1340   -9.7060 O.2    87  MET87      -0.2718
     64  CB         3.5340  -27.3070  -12.9070 C.3    87  MET87       0.0401
     65  CG         4.4120  -27.3370  -14.1460 C.3    87  MET87       0.0596
     66  SD         4.5990  -28.9810  -14.8750 S.3    87  MET87      -0.1393
     67  CE         5.1480  -29.8740  -13.4450 C.3    87  MET87       0.0692
     68  N          1.4480  -25.8820  -11.1970 N.am   88  GLU88      -0.1920
     69  CA         0.4220  -25.9010  -10.1720 C.3    88  GLU88       0.1949
     70  C          0.1810  -27.3510   -9.7120 C.2    88  GLU88       0.2659
     71  O          0.4790  -28.3080  -10.4450 O.2    88  GLU88      -0.2711
     72  CB        -0.8620  -25.1770  -10.6120 C.2    88  GLU88       0.0111
     73  CG        -1.6800  -25.8510  -11.7070 C.2    88  GLU88       0.0838
     74  CD        -2.9930  -25.1680  -12.0550 C.2    88  GLU88       0.3877
     75  OE1       -3.4750  -25.3670  -13.1910 O.co2  88  GLU88      -0.2406
     76  OE2       -3.5370  -24.4250  -11.2050 O.co2  88  GLU88      -0.2406
     77  N         -0.2720  -27.5100   -8.4710 N.am   89  CYS89      -0.1951
     78  CA        -0.4890  -28.8370   -7.9530 C.3    89  CYS89       0.1843
     79  C         -1.9510  -29.2300   -8.0540 C.2    89  CYS89       0.2626
     80  O         -2.8410  -28.5360   -7.5270 O.2    89  CYS89      -0.2714
     81  CB         0.0500  -28.9740   -6.5320 C.3    89  CYS89       0.0997
     82  SG         0.3610  -30.6840   -6.0310 S.3    89  CYS89      -0.0797
     83  N         -2.1800  -30.3260   -8.7670 N.am   90  GLY90      -0.1940
     84  CA        -3.5050  -30.9010   -8.9490 C.3    90  GLY90       0.2014
     85  C         -3.8460  -31.9050   -7.8670 C.2    90  GLY90       0.2639
     86  O         -2.9720  -32.3940   -7.1510 O.2    90  GLY90      -0.2714
     87  N         -5.1330  -32.1860   -7.7020 N.am   91  ASN91      -0.1958
     88  CA        -5.5330  -33.1700   -6.7140 C.3    91  ASN91       0.1819
     89  C         -5.0980  -34.5810   -7.1090 C.2    91  ASN91       0.2621
     90  O         -4.5510  -35.3200   -6.2980 O.2    91  ASN91      -0.2715
     91  CB        -7.0440  -33.1250   -6.5030 C.3    91  ASN91       0.1195
     92  CG        -7.5320  -31.7510   -6.0930 C.2    91  ASN91       0.2630
     93  OD1       -6.7510  -30.8060   -5.9950 O.2    91  ASN91      -0.2716
     94  ND2       -8.8310  -31.6320   -5.8520 N.am   91  ASN91      -0.0877
     95  N         -5.3450  -34.9400   -8.3680 N.am   92  ILE92      -0.1963
     96  CA        -4.9800  -36.2560   -8.8950 C.3    92  ILE92       0.1727
     97  C         -5.0920  -36.3430  -10.4210 C.2    92  ILE92       0.2616
     98  O         -5.7430  -35.5100  -11.0440 O.2    92  ILE92      -0.2715
     99  CB        -5.8390  -37.3650   -8.2660 C.3    92  ILE92       0.0290
    100  CG1       -5.3580  -38.7360   -8.7330 C.3    92  ILE92       0.0022
    101  CG2       -7.3040  -37.1650   -8.6140 C.3    92  ILE92       0.0023
    102  CD1       -6.2160  -39.8790   -8.2430 C.3    92  ILE92       0.0001
    103  N         -4.4700  -37.3570  -11.0170 N.am   93  ASP93      -0.1971
    104  CA        -4.5470  -37.5710  -12.4630 C.3    93  ASP93       0.1709
    105  C         -5.9050  -38.1880  -12.7930 C.2    93  ASP93       0.2293
    106  O         -6.5310  -38.7770  -11.9200 O.2    93  ASP93      -0.2864
    107  CB        -3.4150  -38.4720  -12.9510 C.3    93  ASP93       0.1436
    108  CG        -3.6320  -39.9200  -12.5940 C.2    93  ASP93       0.3671
    109  OD1       -3.5640  -40.2530  -11.3950 O.co2  93  ASP93      -0.2456
    110  OD2       -3.8620  -40.7290  -13.5130 O.co2  93  ASP93      -0.2456
    111  N         -5.7820  -42.3820  -12.4590 N.3    96  SER96      -0.1217
    112  CA        -5.7450  -42.8310  -11.0660 C.3    96  SER96       0.1889
    113  C         -7.1100  -42.6420  -10.4390 C.2    96  SER96       0.2288
    114  O         -7.5920  -43.5250   -9.7200 O.2    96  SER96      -0.2866
    115  CB        -4.6930  -42.0690  -10.2720 C.3    96  SER96       0.2089
    116  OG        -3.3810  -42.4780  -10.6190 O.3    96  SER96      -0.2183
    117  N        -10.1760  -45.4560   -9.1130 N.3   100  LYS100     -0.1245
    118  CA       -10.6830  -45.3210   -7.7530 C.3   100  LYS100      0.1561
    119  C        -12.2050  -45.3070   -7.6410 C.2   100  LYS100      0.2260
    120  O        -12.7590  -45.8890   -6.7110 O.2   100  LYS100     -0.2867
    121  CB       -10.1050  -44.0680   -7.0900 C.3   100  LYS100      0.0271
    122  CG        -8.7730  -44.2740   -6.4250 C.3   100  LYS100      0.0035
    123  CD        -8.3460  -43.0000   -5.7420 C.3   100  LYS100      0.0206
    124  CE        -6.8860  -43.0670   -5.4070 C.3   100  LYS100      0.1093
    125  NZ        -6.0700  -43.1020   -6.6530 N.3   100  LYS100     -0.1314
    126  N         -4.3030  -40.2920  -18.2260 N.3   136  ALA136     -0.1245
    127  CA        -3.1330  -39.8000  -17.4900 C.3   136  ALA136      0.1562
    128  C         -2.5810  -38.4420  -17.9320 C.2   136  ALA136      0.2260
    129  O         -1.8110  -37.8140  -17.2120 O.2   136  ALA136     -0.2867
    130  CB        -2.0270  -40.8430  -17.5150 C.3   136  ALA136      0.0290
    131  N         -5.4580  -33.9000  -15.5270 N.3   139  LEU139     -0.1245
    132  CA        -5.2690  -33.7070  -14.1020 C.3   139  LEU139      0.1561
    133  C         -6.4220  -32.9190  -13.5000 C.2   139  LEU139      0.2260
    134  O         -6.7710  -31.8530  -14.0150 O.2   139  LEU139     -0.2867
    135  CB        -3.9340  -32.9740  -13.8830 C.3   139  LEU139      0.0270
    136  CG        -3.5380  -32.5700  -12.4660 C.3   139  LEU139      0.0019
    137  CD1       -3.0910  -33.7670  -11.6670 C.3   139  LEU139      0.0001
    138  CD2       -2.4300  -31.5410  -12.5080 C.3   139  LEU139      0.0001
    139  N         -1.8630  -31.9330  -18.9920 N.3   148  ILE148     -0.1245
    140  CA        -0.4850  -31.9370  -18.5010 C.3   148  ILE148      0.1561
    141  C          0.5520  -31.8320  -19.6390 C.2   148  ILE148      0.2260
    142  O          1.4590  -31.0020  -19.5350 O.2   148  ILE148     -0.2867
    143  CB        -0.1880  -33.1810  -17.6080 C.3   148  ILE148      0.0252
    144  CG1       -1.0400  -33.2050  -16.3300 C.3   148  ILE148      0.0019
    145  CG2        1.3170  -33.2960  -17.2750 C.3   148  ILE148      0.0019
    146  CD1       -0.9130  -34.5280  -15.4770 C.3   148  ILE148      0.0001
    147  N          4.4700  -40.5020  -17.1520 N.3   156  MET156     -0.1230
    148  CA         4.8030  -41.0730  -15.8450 C.3   156  MET156      0.1702
    149  C          3.6820  -41.8420  -15.1270 C.2   156  MET156      0.2592
    150  O          2.4990  -41.6720  -15.4160 O.2   156  MET156     -0.2718
    151  CB         5.3360  -39.9710  -14.9310 C.3   156  MET156      0.0401
    152  CG         6.3470  -39.0630  -15.6070 C.3   156  MET156      0.0596
    153  SD         6.7700  -37.6430  -14.5880 S.3   156  MET156     -0.1393
    154  CE         7.3030  -38.4660  -13.0910 C.3   156  MET156      0.0692
    155  N          4.0940  -42.6870  -14.1830 N.am  157  GLN157     -0.1979
    156  CA         3.2140  -43.5050  -13.3450 C.3   157  GLN157      0.1601
    157  C          2.9600  -42.7910  -12.0120 C.2   157  GLN157      0.2287
    158  O          3.8950  -42.2800  -11.3910 O.2   157  GLN157     -0.2864
    159  CB         3.8460  -44.8920  -13.0940 C.3   157  GLN157      0.0394
    160  CG         3.1670  -46.0510  -13.8360 C.3   157  GLN157      0.0908
    161  CD         3.6900  -47.4190  -13.4310 C.2   157  GLN157      0.2608
    162  OE1        3.6370  -47.8260  -12.2620 O.2   157  GLN157     -0.2717
    163  NE2        4.1530  -48.1900  -14.4040 N.am  157  GLN157     -0.0878
@<TRIPOS>BOND
     1   141   142    2
     2   141   140    1
     3   139   140    1
     4   140   143    1
     5   126   127    1
     6   128   127    1
     7   128   129    2
     8    51    50    1
     9    52    53    1
    10   143   145    1
    11   143   144    1
    12   130   127    1
    13    55    54    2
    14   147   148    1
    15    58    56    1
    16    50    49    1
    17    54    53    1
    18    53    56    1
    19   144   146    1
    20    49    48    1
    21    56    57    1
    22   148   149    1
    23   148   151    1
    24   152   151    1
    25   152   153    1
    26   131   132    1
    27   150   149    2
    28   149   155   am
    29    66    65    1
    30    66    67    1
    31    57    59    1
    32   153   154    1
    33    48    47    1
    34   163   161   am
    35   155   156    1
    36    65    64    1
    37   132   135    1
    38   132   133    1
    39   134   133    2
    40   135   136    1
    41   160   161    1
    42   160   159    1
    43    47    44    1
    44   110   108   ar
    45   161   162    2
    46   156   159    1
    47   156   157    1
    48    46    45    2
    49    75    74   ar
    50   107   108    1
    51   107   104    1
    52    64    61    1
    53   105   104    1
    54   105   106    2
    55    45    44    1
    56   108   109   ar
    57   138   136    1
    58   136   137    1
    59   104   103    1
    60   111   112    1
    61    44    43    1
    62    74    73    1
    63    74    76   ar
    64    61    60    1
    65    61    62    1
    66   157   158    2
    67    28    26    1
    68    73    72    2
    69    68    62   am
    70    68    69    1
    71   112   113    1
    72   112   115    1
    73    98    97    2
    74   103    97   am
    75    62    63    2
    76   116   115    1
    77    72    69    1
    78    26    27    1
    79    26    23    1
    80    71    70    2
    81   113   114    2
    82    97    96    1
    83    69    70    1
    84    41    40    2
    85    22    23    1
    86    20    19    1
    87    20    21    2
    88    23    24    1
    89    19    18    1
    90    70    77   am
    91    42    39    1
    92    40    39    1
    93   117   118    1
    94    84    83    1
    95    84    85    1
    96    96    95    1
    97    96    99    1
    98    83    79   am
    99   100    99    1
   100   100   102    1
   101    18    12   am
   102   101    99    1
   103    77    78    1
   104    95    89   am
   105    39    38    1
   106    24    25    2
   107    16    14    1
   108    79    78    1
   109    79    80    2
   110    13    12    2
   111    78    81    1
   112    12    11    1
   113    85    87   am
   114    85    86    2
   115   118   119    1
   116   118   121    1
   117    87    88    1
   118   119   120    2
   119    14    11    1
   120    14    15    1
   121    89    88    1
   122    89    90    2
   123   121   122    1
   124    17    15    1
   125    11    10    1
   126    88    91    1
   127   125   124    1
   128    81    82    1
   129    91    92    1
   130   122   123    1
   131    92    93    2
   132    92    94   am
   133   123   124    1
   134    29    30    1
   135    30    33    1
   136    30    31    1
   137    33    34    1
   138    31    32    2
   139     4     3    2
   140    34    35    1
   141     3     2    1
   142    37    35   am
   143     9     8    1
   144    35    36    2
   145     7     8    1
   146     7     6    1
   147     6     5    1
   148     2     5    1
   149     2     1    1
