@<TRIPOS>MOLECULE
tmp/5ei3A00.pdb
 116 117 0 0 0
SMALL
GASTEIGER

@<TRIPOS>ATOM
      1  N          5.3920   -3.6130   -2.6340 N.3    30  TRP30      -0.1227
      2  CA         5.4270   -4.2800   -3.9340 C.3    30  TRP30       0.1737
      3  C          4.1680   -3.9720   -4.7370 C.2    30  TRP30       0.2595
      4  O          4.2380   -3.6350   -5.9250 O.2    30  TRP30      -0.2718
      5  CB         5.5890   -5.7890   -3.7460 C.3    30  TRP30       0.0564
      6  CG         5.7710   -6.5550   -5.0320 C.ar   30  TRP30       0.0003
      7  CD1        6.9460   -6.7740   -5.6960 C.ar   30  TRP30       0.0946
      8  CD2        4.7490   -7.2160   -5.7970 C.ar   30  TRP30       0.0152
      9  NE1        6.7190   -7.5250   -6.8290 N.ar   30  TRP30      -0.2442
     10  CE2        5.3800   -7.8080   -6.9150 C.ar   30  TRP30       0.0810
     11  CE3        3.3660   -7.3620   -5.6480 C.ar   30  TRP30       0.0012
     12  CZ2        4.6730   -8.5340   -7.8770 C.ar   30  TRP30       0.0191
     13  CZ3        2.6650   -8.0840   -6.6030 C.ar   30  TRP30       0.0001
     14  CH2        3.3230   -8.6650   -7.7040 C.ar   30  TRP30       0.0015
     15  N          3.0080   -4.0490   -4.0820 N.am   31  GLN31      -0.1979
     16  CA         1.7340   -3.8480   -4.7630 C.3    31  GLN31       0.1601
     17  C          1.6090   -2.4260   -5.3070 C.2    31  GLN31       0.2287
     18  O          1.1040   -2.2180   -6.4170 O.2    31  GLN31      -0.2864
     19  CB         0.5790   -4.1610   -3.8040 C.3    31  GLN31       0.0394
     20  CG         0.4150   -5.6380   -3.3550 C.3    31  GLN31       0.0908
     21  CD        -0.7070   -5.8840   -2.3430 C.2    31  GLN31       0.2608
     22  OE1       -1.0940   -4.9550   -1.5950 O.2    31  GLN31      -0.2717
     23  NE2       -1.2170   -7.1230   -2.2920 N.am   31  GLN31      -0.0878
     24  N         -1.3610   -9.3990  -12.1590 N.3    74  PRO74      -0.2102
     25  CA        -0.0730  -10.1090  -12.2130 C.3    74  PRO74       0.1504
     26  C          0.5330  -10.3580  -10.8330 C.2    74  PRO74       0.2576
     27  O          1.6890  -10.0210  -10.5690 O.2    74  PRO74      -0.2718
     28  CB         0.7910   -9.1730  -13.0650 C.3    74  PRO74       0.0282
     29  CG         0.2050   -7.8110  -12.8210 C.3    74  PRO74       0.0208
     30  CD        -1.2490   -7.9820  -12.5520 C.3    74  PRO74       0.0893
     31  N         -0.2600  -10.9560   -9.9490 N.am   75  MET75      -0.1966
     32  CA         0.1570  -11.2880   -8.5950 C.3    75  MET75       0.1736
     33  C         -0.4340  -12.6450   -8.2390 C.2    75  MET75       0.2616
     34  O         -1.5320  -12.9900   -8.6800 O.2    75  MET75      -0.2715
     35  CB        -0.2830  -10.1970   -7.5910 C.3    75  MET75       0.0427
     36  CG        -1.7790  -10.0460   -7.4350 C.3    75  MET75       0.0599
     37  SD        -2.1960   -8.6890   -6.2980 S.3    75  MET75      -0.1393
     38  CE        -1.4360   -7.3060   -7.1260 C.3    75  MET75       0.0692
     39  N          0.3050  -13.4270   -7.4500 N.am   76  TRP76      -0.1960
     40  CA        -0.1120  -14.8110   -7.2650 C.3    76  TRP76       0.1771
     41  C         -1.3860  -14.9150   -6.4450 C.2    76  TRP76       0.2619
     42  O         -2.0790  -15.9300   -6.5370 O.2    76  TRP76      -0.2715
     43  CB         1.0210  -15.6480   -6.6490 C.3    76  TRP76       0.0590
     44  CG         1.1420  -15.6260   -5.1390 C.ar   76  TRP76       0.0006
     45  CD1        1.8590  -14.7340   -4.3780 C.ar   76  TRP76       0.0946
     46  CD2        0.5690  -16.5670   -4.2240 C.ar   76  TRP76       0.0152
     47  NE1        1.7420  -15.0560   -3.0370 N.ar   76  TRP76      -0.2442
     48  CE2        0.9630  -16.1790   -2.9190 C.ar   76  TRP76       0.0810
     49  CE3       -0.2390  -17.6980   -4.3780 C.ar   76  TRP76       0.0012
     50  CZ2        0.5650  -16.8820   -1.7780 C.ar   76  TRP76       0.0191
     51  CZ3       -0.6320  -18.4010   -3.2400 C.ar   76  TRP76       0.0001
     52  CH2       -0.2200  -17.9870   -1.9570 C.ar   76  TRP76       0.0015
     53  N         -1.7340  -13.8740   -5.6860 N.am   77  GLU77      -0.1977
     54  CA        -2.9670  -13.8950   -4.9040 C.3    77  GLU77       0.1602
     55  C         -4.2350  -13.8340   -5.7500 C.2    77  GLU77       0.2287
     56  O         -5.3150  -14.1350   -5.2210 O.2    77  GLU77      -0.2864
     57  CB        -2.9450  -12.7350   -3.9070 C.3    77  GLU77       0.0415
     58  CG        -1.7990  -12.8350   -2.9170 C.3    77  GLU77       0.1163
     59  CD        -0.6260  -11.9210   -3.2390 C.2    77  GLU77       0.3649
     60  OE1       -0.2960  -11.7290   -4.4330 O.co2  77  GLU77      -0.2457
     61  OE2       -0.0130  -11.3920   -2.2830 O.co2  77  GLU77      -0.2457
     62  N          4.4750  -21.3390  -12.1640 N.3    86  ARG86      -0.1245
     63  CA         5.1430  -20.7390  -13.3150 C.3    86  ARG86       0.1563
     64  C          6.2580  -21.6260  -13.8490 C.2    86  ARG86       0.2260
     65  O          6.9930  -22.2640  -13.0850 O.2    86  ARG86      -0.2867
     66  CB         5.7170  -19.3550  -12.9650 C.3    86  ARG86       0.0307
     67  CG         6.7370  -19.4140  -11.8280 C.3    86  ARG86       0.0489
     68  CD         7.2190  -18.0330  -11.3920 C.3    86  ARG86       0.2205
     69  NE         8.1510  -18.1770  -10.2770 N.pl3  86  ARG86      -0.0865
     70  CZ         9.1290  -17.3190   -9.9820 C.cat  86  ARG86       0.5346
     71  NH1        9.3030  -16.2140  -10.6970 N.pl3  86  ARG86       0.1354
     72  NH2        9.9300  -17.5640   -8.9500 N.pl3  86  ARG86       0.1354
     73  N         11.6430  -10.4060  -15.2450 N.3   129  ASN129     -0.1240
     74  CA        12.3270   -9.7230  -14.1470 C.3   129  ASN129      0.1653
     75  C         13.7090   -9.3080  -14.6240 C.2   129  ASN129      0.2266
     76  O         14.5250  -10.1670  -14.9730 O.2   129  ASN129     -0.2867
     77  CB        12.5020  -10.6260  -12.9190 C.3   129  ASN129      0.1155
     78  CG        11.2390  -11.3470  -12.5000 C.2   129  ASN129      0.2627
     79  OD1       11.2170  -12.5760  -12.4700 O.2   129  ASN129     -0.2716
     80  ND2       10.2140  -10.6010  -12.1140 N.am  129  ASN129     -0.0877
     81  N          3.1190  -17.9590  -16.3840 N.3   140  TRP140     -0.1241
     82  CA         2.2620  -18.3380  -15.2640 C.3   140  TRP140      0.1605
     83  C          1.0410  -19.1010  -15.7740 C.2   140  TRP140      0.2264
     84  O          0.4000  -18.6710  -16.7410 O.2   140  TRP140     -0.2867
     85  CB         1.7930  -17.0860  -14.5130 C.3   140  TRP140      0.0550
     86  CG         2.8520  -16.3430  -13.7280 C.ar  140  TRP140      0.0003
     87  CD1        4.1930  -16.2680  -13.9900 C.ar  140  TRP140      0.0946
     88  CD2        2.6290  -15.5720  -12.5370 C.ar  140  TRP140      0.0152
     89  NE1        4.8200  -15.4790  -13.0330 N.ar  140  TRP140     -0.2442
     90  CE2        3.8820  -15.0570  -12.1260 C.ar  140  TRP140      0.0810
     91  CE3        1.4910  -15.2830  -11.7750 C.ar  140  TRP140      0.0012
     92  CZ2        4.0250  -14.2580  -10.9920 C.ar  140  TRP140      0.0191
     93  CZ3        1.6270  -14.4760  -10.6600 C.ar  140  TRP140      0.0001
     94  CH2        2.8890  -13.9790  -10.2700 C.ar  140  TRP140      0.0015
     95  N          3.1510  -21.4780   -6.9630 N.3   174  HIS174     -0.1241
     96  CA         3.1860  -20.2210   -6.2180 C.3   174  HIS174      0.1621
     97  C          3.0380  -20.4690   -4.7170 C.2   174  HIS174      0.2264
     98  O          3.7120  -19.8250   -3.9030 O.2   174  HIS174     -0.2867
     99  CB         2.0840  -19.2710   -6.6910 C.3   174  HIS174      0.0745
    100  CG         2.1960  -18.8600   -8.1310 C.ar  174  HIS174      0.0817
    101  ND1        3.3760  -18.4280   -8.7010 N.ar  174  HIS174     -0.2268
    102  CD2        1.2520  -18.7640   -9.0980 C.ar  174  HIS174      0.1154
    103  CE1        3.1590  -18.1100   -9.9670 C.ar  174  HIS174      0.1986
    104  NE2        1.8770  -18.2990  -10.2310 N.ar  174  HIS174     -0.2212
    105  N          6.2990  -21.5720   -3.3270 N.3   177  THR177     -0.1203
    106  CA         7.1910  -20.4240   -3.1700 C.3   177  THR177      0.1994
    107  C          6.8100  -19.6020   -1.9450 C.2   177  THR177      0.2617
    108  O          7.6820  -19.1360   -1.1980 O.2   177  THR177     -0.2717
    109  CB         7.1500  -19.5620   -4.4350 C.3   177  THR177      0.1784
    110  OG1        7.5100  -20.3660   -5.5620 O.3   177  THR177     -0.2211
    111  CG2        8.1040  -18.3730   -4.3340 C.3   177  THR177      0.0376
    112  N          5.5070  -19.4490   -1.7010 N.am  178  ALA178     -0.1979
    113  CA         5.0400  -18.6060   -0.6070 C.3   178  ALA178      0.1597
    114  C          5.2350  -19.2490    0.7640 C.2   178  ALA178      0.2287
    115  O          5.1720  -18.5440    1.7790 O.2   178  ALA178     -0.2864
    116  CB         3.5650  -18.2660   -0.8130 C.3   178  ALA178      0.0319
@<TRIPOS>BOND
     1    84    83    2
     2    81    82    1
     3    83    82    1
     4    82    85    1
     5    73    74    1
     6    76    75    2
     7    75    74    1
     8    85    86    1
     9    74    77    1
    10    87    86   ar
    11    87    89   ar
    12    64    63    1
    13    64    65    2
    14    86    88   ar
    15    63    66    1
    16    63    62    1
    17    28    29    1
    18    28    25    1
    19    89    90   ar
    20    66    67    1
    21    77    78    1
    22    29    30    1
    23    30    24    1
    24    88    90   ar
    25    88    91   ar
    26    78    79    2
    27    78    80   am
    28    25    24    1
    29    25    26    1
    30    90    92   ar
    31    67    68    1
    32    91    93   ar
    33    68    69    1
    34    92    94   ar
    35    26    27    2
    36    26    31   am
    37    71    70    1
    38    93    94   ar
    39    69    70    2
    40   104   103   ar
    41   104   102   ar
    42    70    72    1
    43   103   101   ar
    44    31    32    1
    45   102   100   ar
    46   101   100   ar
    47    34    33    2
    48    32    33    1
    49    32    35    1
    50    33    39   am
    51   100    99    1
    52    12    14   ar
    53    12    10   ar
    54    14    13   ar
    55    35    36    1
    56    39    40    1
    57    36    37    1
    58    40    43    1
    59    40    41    1
    60    38    37    1
    61    95    96    1
    62    10     9   ar
    63    10     8   ar
    64     9     7   ar
    65    99    96    1
    66    43    44    1
    67    13    11   ar
    68    42    41    2
    69    41    53   am
    70    18    17    2
    71    96    97    1
    72     4     3    2
    73     8    11   ar
    74     8     6   ar
    75    55    56    2
    76    55    54    1
    77     7     6   ar
    78    53    54    1
    79   110   109    1
    80    17    16    1
    81    44    45   ar
    82    44    46   ar
    83     6     5    1
    84    54    57    1
    85    16    15    1
    86    16    19    1
    87     3    15   am
    88     3     2    1
    89    97    98    2
    90   109   111    1
    91   109   106    1
    92    60    59   ar
    93    49    46   ar
    94    49    51   ar
    95    45    47   ar
    96    46    48   ar
    97     2     5    1
    98     2     1    1
    99    57    58    1
   100    19    20    1
   101    20    21    1
   102   105   106    1
   103    51    52   ar
   104    59    58    1
   105    59    61   ar
   106   106   107    1
   107    47    48   ar
   108    48    50   ar
   109    21    23   am
   110    21    22    2
   111    52    50   ar
   112   107   112   am
   113   107   108    2
   114   112   113    1
   115   116   113    1
   116   113   114    1
   117   114   115    2
