@<TRIPOS>MOLECULE
tmp/5ei4A00.pdb
 158 156 0 0 0
SMALL
GASTEIGER

@<TRIPOS>ATOM
      1  N         33.3760   44.6770    1.0930 N.3    40  TRP40      -0.1228
      2  CA        33.4820   46.0350    1.6810 C.3    40  TRP40       0.1722
      3  C         32.2080   46.8020    1.8970 C.2    40  TRP40       0.2437
      4  O         32.1160   47.4330    2.9210 O.2    40  TRP40      -0.2733
      5  CB        34.5510   46.8500    0.8840 C.3    40  TRP40       0.0563
      6  CG        34.3120   46.9710   -0.6490 C.ar   40  TRP40       0.0003
      7  CD1       34.6860   46.1020   -1.6340 C.ar   40  TRP40       0.0946
      8  CD2       33.6000   47.9950   -1.2940 C.ar   40  TRP40       0.0152
      9  NE1       34.1930   46.4890   -2.8550 N.ar   40  TRP40      -0.2442
     10  CE2       33.5760   47.6830   -2.6530 C.ar   40  TRP40       0.0810
     11  CE3       32.9540   49.1210   -0.8380 C.ar   40  TRP40       0.0012
     12  CZ2       32.9150   48.4770   -3.6040 C.ar   40  TRP40       0.0191
     13  CZ3       32.3160   49.9720   -1.8840 C.ar   40  TRP40       0.0001
     14  CH2       32.2580   49.6140   -3.1330 C.ar   40  TRP40       0.0015
     15  N         31.1790   46.7050    1.0460 N.am   41  PRO41      -0.2718
     16  CA        29.9480   47.4930    1.3320 C.3    41  PRO41       0.1535
     17  C         29.2580   46.9800    2.5700 C.2    41  PRO41       0.2598
     18  O         28.3170   47.6940    3.0700 O.2    41  PRO41      -0.2715
     19  CB        29.0650   47.2910    0.0650 C.3    41  PRO41       0.0310
     20  CG        30.0520   46.8990   -0.9780 C.3    41  PRO41       0.0237
     21  CD        31.0610   46.0030   -0.2800 C.3    41  PRO41       0.0939
     22  N         29.5640   45.7560    3.0150 N.am   42  PHE42      -0.1974
     23  CA        28.8280   45.0660    4.0500 C.3    42  PHE42       0.1639
     24  C         29.6290   45.0320    5.3590 C.2    42  PHE42       0.2290
     25  O         29.1520   44.3750    6.3070 O.2    42  PHE42      -0.2864
     26  CB        28.4820   43.6310    3.5750 C.3    42  PHE42       0.0560
     27  CG        27.7100   43.6510    2.3000 C.ar   42  PHE42      -0.0200
     28  CD1       26.3220   43.8550    2.3080 C.ar   42  PHE42      -0.0042
     29  CD2       28.3250   43.4520    1.0860 C.ar   42  PHE42      -0.0042
     30  CE1       25.6170   43.9360    1.0960 C.ar   42  PHE42      -0.0003
     31  CE2       27.6010   43.4780   -0.0730 C.ar   42  PHE42      -0.0003
     32  CZ        26.2880   43.7430   -0.0940 C.ar   42  PHE42      -0.0000
     33  N         30.3080   47.3450    7.5290 N.3    44  GLN44      -0.1231
     34  CA        29.9650   48.3670    8.5450 C.3    44  GLN44       0.1683
     35  C         28.5680   48.7780    8.2460 C.2    44  GLN44       0.2434
     36  O         28.0300   48.5690    7.1540 O.2    44  GLN44      -0.2733
     37  CB        30.9020   49.6030    8.4110 C.3    44  GLN44       0.0380
     38  CG        30.8660   50.3170    7.0430 C.3    44  GLN44       0.0905
     39  CD        31.5420   49.4940    5.9510 C.2    44  GLN44       0.2608
     40  OE1       32.6980   49.1020    6.1080 O.2    44  GLN44      -0.2717
     41  NE2       30.8620   49.2920    4.8290 N.am   44  GLN44      -0.0878
     42  N         27.9060   49.4070    9.2140 N.am   45  PRO45      -0.2718
     43  CA        26.5560   49.9560    9.0080 C.3    45  PRO45       0.1535
     44  C         26.5050   50.8400    7.7920 C.2    45  PRO45       0.2598
     45  O         27.4590   51.5730    7.4930 O.2    45  PRO45      -0.2715
     46  CB        26.2860   50.7760   10.2820 C.3    45  PRO45       0.0310
     47  CG        27.0600   49.9870   11.3290 C.3    45  PRO45       0.0237
     48  CD        28.3330   49.6010   10.6090 C.3    45  PRO45       0.0939
     49  N         25.3980   50.8130    7.0830 N.am   46  VAL46      -0.1964
     50  CA        25.2490   51.7060    5.9230 C.3    46  VAL46       0.1727
     51  C         25.3250   53.1690    6.3860 C.2    46  VAL46       0.2616
     52  O         24.5760   53.6120    7.2120 O.2    46  VAL46      -0.2715
     53  CB        23.8970   51.4480    5.1940 C.3    46  VAL46       0.0290
     54  CG1       23.5950   52.4880    4.1220 C.3    46  VAL46       0.0023
     55  CG2       23.9120   50.0530    4.6010 C.3    46  VAL46       0.0023
     56  N         26.2820   53.8820    5.7720 N.am   47  ASP47      -0.1971
     57  CA        26.4360   55.3330    6.0310 C.3    47  ASP47       0.1709
     58  C         25.6860   56.0320    4.9180 C.2    47  ASP47       0.2293
     59  O         26.1670   56.2610    3.7830 O.2    47  ASP47      -0.2864
     60  CB        27.9060   55.7110    6.0560 C.3    47  ASP47       0.1436
     61  CG        28.0520   57.2270    6.3830 C.2    47  ASP47       0.3671
     62  OD1       27.1340   57.9750    6.2860 O.co2  47  ASP47      -0.2456
     63  OD2       29.2110   57.6130    6.8820 O.co2  47  ASP47      -0.2456
     64  N         27.3660   59.5160    3.7130 N.3    50  LYS50      -0.1182
     65  CA        28.5120   59.3990    2.8220 C.3    50  LYS50       0.1909
     66  C         28.0870   58.8250    1.4720 C.2    50  LYS50       0.2634
     67  O         28.5930   59.2440    0.3870 O.2    50  LYS50      -0.2714
     68  CB        29.5710   58.5260    3.5270 C.2    50  LYS50      -0.0028
     69  CG        30.8690   58.1620    2.8510 C.2    50  LYS50      -0.0272
     70  CD        31.8730   57.2330    3.5860 C.3    50  LYS50       0.0462
     71  CE        33.3950   57.4840    3.2170 C.3    50  LYS50       0.1140
     72  NZ        34.3220   56.3740    3.6420 N.3    50  LYS50      -0.1310
     73  N         27.1890   57.8210    1.4580 N.am   51  LEU51      -0.1977
     74  CA        26.7540   57.1980    0.2420 C.3    51  LEU51       0.1596
     75  C         25.6130   57.9170   -0.4100 C.2    51  LEU51       0.2287
     76  O         25.1700   57.4420   -1.4920 O.2    51  LEU51      -0.2864
     77  CB        26.4270   55.7490    0.5110 C.3    51  LEU51       0.0297
     78  CG        27.5380   54.9670    0.9120 C.3    51  LEU51       0.0022
     79  CD1       27.0460   53.6410    1.5140 C.3    51  LEU51       0.0001
     80  CD2       28.5460   54.6550   -0.2400 C.3    51  LEU51       0.0001
     81  N         22.3360   58.1920    0.2840 N.3    53  LEU53      -0.1245
     82  CA        21.1650   57.2840    0.2350 C.3    53  LEU53       0.1561
     83  C         20.1530   57.8250    1.1850 C.2    53  LEU53       0.2260
     84  O         19.8800   57.2400    2.2320 O.2    53  LEU53      -0.2867
     85  CB        21.5690   55.8350    0.5600 C.3    53  LEU53       0.0270
     86  CG        22.6770   55.2700   -0.3500 C.3    53  LEU53       0.0019
     87  CD1       23.0300   53.8680    0.3500 C.3    53  LEU53       0.0001
     88  CD2       22.3660   55.1770   -1.7430 C.3    53  LEU53       0.0001
     89  N         17.4680   55.5280    2.5600 N.3    56  TYR56      -0.1241
     90  CA        17.8050   54.1560    2.9640 C.3    56  TYR56       0.1605
     91  C         17.0940   53.7350    4.2240 C.2    56  TYR56       0.2264
     92  O         16.4510   52.6860    4.2990 O.2    56  TYR56      -0.2867
     93  CB        19.3360   54.0040    3.1390 C.3    56  TYR56       0.0534
     94  CG        19.7280   52.5630    3.4010 C.ar   56  TYR56      -0.0201
     95  CD1       19.8610   51.6790    2.3390 C.ar   56  TYR56      -0.0009
     96  CD2       19.8830   52.0720    4.6970 C.ar   56  TYR56      -0.0009
     97  CE1       20.1830   50.3260    2.5630 C.ar   56  TYR56       0.0417
     98  CE2       20.1900   50.7360    4.9130 C.ar   56  TYR56       0.0417
     99  CZ        20.2910   49.8960    3.8540 C.ar   56  TYR56       0.1957
    100  OH        20.5340   48.5320    4.0970 O.3    56  TYR56      -0.2866
    101  N         19.5870   44.3650    1.4300 N.3    95  CYS95      -0.1235
    102  CA        20.1880   44.7290    0.1670 C.3    95  CYS95       0.1677
    103  C         19.2250   44.4700   -0.9760 C.2    95  CYS95       0.2270
    104  O         19.0650   45.3030   -1.8990 O.2    95  CYS95      -0.2867
    105  CB        21.4770   43.9310   -0.0370 C.3    95  CYS95       0.0956
    106  SG        22.4310   44.3440   -1.4410 S.3    95  CYS95      -0.0801
    107  N         16.2140   47.0760   -0.8120 N.3    98  TYR98      -0.1227
    108  CA        16.4920   48.4710   -1.1400 C.3    98  TYR98       0.1736
    109  C         16.8740   48.6560   -2.5590 C.2    98  TYR98       0.2595
    110  O         16.4680   49.7060   -3.1670 O.2    98  TYR98      -0.2718
    111  CB        17.6050   48.9840   -0.2290 C.3    98  TYR98       0.0548
    112  CG        17.9800   50.4320   -0.4870 C.ar   98  TYR98      -0.0200
    113  CD1       17.0700   51.4540   -0.1430 C.ar   98  TYR98      -0.0009
    114  CD2       19.1200   50.7880   -1.1470 C.ar   98  TYR98      -0.0009
    115  CE1       17.3390   52.7680   -0.4370 C.ar   98  TYR98       0.0417
    116  CE2       19.3670   52.0990   -1.4620 C.ar   98  TYR98       0.0417
    117  CZ        18.4780   53.0860   -1.1140 C.ar   98  TYR98       0.1957
    118  OH        18.7980   54.3910   -1.4750 O.3    98  TYR98      -0.2866
    119  N         17.6400   47.7770   -3.1420 N.am   99  ASN99      -0.1974
    120  CA        18.2800   47.9800   -4.4410 C.3    99  ASN99       0.1688
    121  C         17.4440   47.3520   -5.5740 C.2    99  ASN99       0.2292
    122  O         16.4760   46.7710   -5.4080 O.2    99  ASN99      -0.2864
    123  CB        19.6980   47.4140   -4.4110 C.3    99  ASN99       0.1181
    124  CG        20.5450   48.1430   -3.4440 C.2    99  ASN99       0.2629
    125  OD1       20.9540   49.2940   -3.6800 O.2    99  ASN99      -0.2716
    126  ND2       20.8070   47.5410   -2.2580 N.am   99  ASN99      -0.0877
    127  N         21.6480   45.2100   -9.9920 N.3   103  ASP103     -0.1225
    128  CA        22.6500   46.1970   -9.5480 C.3   103  ASP103      0.1805
    129  C         23.8840   45.5210   -9.0250 C.2   103  ASP103      0.2598
    130  O         23.8370   44.3910   -8.4740 O.2   103  ASP103     -0.2718
    131  CB        22.0900   46.9900   -8.3430 C.3   103  ASP103      0.1424
    132  CG        21.1060   47.9940   -8.6770 C.2   103  ASP103      0.3668
    133  OD1       20.9570   48.3330   -9.9060 O.co2 103  ASP103     -0.2456
    134  OD2       20.4590   48.4930   -7.6840 O.co2 103  ASP103     -0.2456
    135  N         25.0560   46.1340   -9.1650 N.am  104  ASP104     -0.1960
    136  CA        26.2800   45.5950   -8.6230 C.3   104  ASP104      0.1840
    137  C         26.1460   45.1620   -7.2050 C.2   104  ASP104      0.2621
    138  O         26.6510   44.0590   -6.8530 O.2   104  ASP104     -0.2715
    139  CB        27.4470   46.6130   -8.7000 C.3   104  ASP104      0.1450
    140  CG        28.0240   46.7270  -10.0720 C.2   104  ASP104      0.3671
    141  OD1       27.8060   45.8650  -10.9630 O.co2 104  ASP104     -0.2456
    142  OD2       28.7220   47.7660  -10.2560 O.co2 104  ASP104     -0.2456
    143  N         25.5470   45.9620   -6.3470 N.am  105  ILE105     -0.1977
    144  CA        25.5280   45.6310   -4.9440 C.3   105  ILE105      0.1596
    145  C         24.7300   44.3580   -4.7340 C.2   105  ILE105      0.2287
    146  O         25.0740   43.6260   -3.7980 O.2   105  ILE105     -0.2864
    147  CB        24.9170   46.8300   -4.1500 C.3   105  ILE105      0.0276
    148  CG1       25.1320   46.6900   -2.6700 C.3   105  ILE105      0.0022
    149  CG2       23.4450   47.1150   -4.4710 C.3   105  ILE105      0.0022
    150  CD1       26.5540   46.8270   -2.2670 C.3   105  ILE105      0.0001
    151  N         26.9100   41.4600   -5.5740 N.3   108  MET108     -0.1245
    152  CA        27.8510   41.2690   -4.4750 C.3   108  MET108      0.1570
    153  C         27.1930   40.5040   -3.3230 C.2   108  MET108      0.2261
    154  O         27.7630   39.5270   -2.8260 O.2   108  MET108     -0.2867
    155  CB        28.3640   42.6240   -4.0010 C.3   108  MET108      0.0387
    156  CG        29.2030   43.3240   -5.0780 C.3   108  MET108      0.0595
    157  SD        29.5330   45.0460   -4.8040 S.3   108  MET108     -0.1393
    158  CE        30.9510   44.8560   -3.9100 C.3   108  MET108      0.0692
@<TRIPOS>BOND
     1   141   140   ar
     2   142   140   ar
     3   140   139    1
     4   127   128    1
     5   133   132   ar
     6   128   129    1
     7   128   131    1
     8   135   129   am
     9   135   136    1
    10   129   130    2
    11   139   136    1
    12   132   131    1
    13   132   134   ar
    14   136   137    1
    15   137   138    2
    16   137   143   am
    17   143   144    1
    18   121   122    2
    19   121   120    1
    20   151   152    1
    21   156   157    1
    22   156   155    1
    23   144   145    1
    24   144   147    1
    25   157   158    1
    26   145   146    2
    27   152   155    1
    28   152   153    1
    29   149   147    1
    30   120   123    1
    31   120   119    1
    32   123   124    1
    33   147   148    1
    34   125   124    2
    35    12    14   ar
    36    12    10   ar
    37   124   126   am
    38   153   154    2
    39   110   109    2
    40   119   109   am
    41    14    13   ar
    42     9    10   ar
    43     9     7   ar
    44   148   150    1
    45    10     8   ar
    46   109   108    1
    47   104   103    2
    48    13    11   ar
    49    88    86    1
    50     7     6   ar
    51    76    75    2
    52   118   117    1
    53   116   114   ar
    54   116   117   ar
    55   106   105    1
    56     8    11   ar
    57     8     6   ar
    58   114   112   ar
    59   108   107    1
    60   108   111    1
    61   117   115   ar
    62    20    21    1
    63    20    19    1
    64   103   102    1
    65     6     5    1
    66   112   111    1
    67   112   113   ar
    68   115   113   ar
    69    75    74    1
    70    86    87    1
    71    86    85    1
    72    21    15    1
    73    80    78    1
    74    32    31   ar
    75    32    30   ar
    76    31    29   ar
    77   105   102    1
    78    19    16    1
    79   102   101    1
    80    82    81    1
    81    82    85    1
    82    82    83    1
    83    74    77    1
    84    74    73    1
    85    67    66    2
    86    77    78    1
    87     5     2    1
    88    78    79    1
    89    15    16    1
    90    15     3   am
    91    29    27   ar
    92     1     2    1
    93    30    28   ar
    94    83    84    2
    95    16    17    1
    96    73    66   am
    97    66    65    1
    98     2     3    1
    99     3     4    2
   100    27    28   ar
   101    27    26    1
   102    95    97   ar
   103    95    94   ar
   104    89    90    1
   105    97    99   ar
   106    17    22   am
   107    17    18    2
   108    65    68    1
   109    65    64    1
   110    69    68    2
   111    69    70    1
   112    90    93    1
   113    90    91    1
   114    22    23    1
   115    93    94    1
   116    71    70    1
   117    71    72    1
   118    94    96   ar
   119    26    23    1
   120    59    58    2
   121    99   100    1
   122    99    98   ar
   123    23    24    1
   124    54    53    1
   125    91    92    2
   126    55    53    1
   127    96    98   ar
   128    41    39   am
   129    58    57    1
   130    53    50    1
   131    24    25    2
   132    56    57    1
   133    56    51   am
   134    50    51    1
   135    50    49    1
   136    39    40    2
   137    39    38    1
   138    57    60    1
   139    60    61    1
   140    62    61   ar
   141    61    63   ar
   142    51    52    2
   143    38    37    1
   144    49    44   am
   145    36    35    2
   146    45    44    2
   147    33    34    1
   148    44    43    1
   149    35    34    1
   150    35    42   am
   151    37    34    1
   152    43    42    1
   153    43    46    1
   154    42    48    1
   155    46    47    1
   156    48    47    1
