@<TRIPOS>MOLECULE
tmp/5ei6A00.pdb
 161 149 0 0 0
SMALL
GASTEIGER

@<TRIPOS>ATOM
      1  N          6.4280   16.2050   -1.1820 N.3    14  LYS14      -0.1245
      2  CA         6.4720   14.8210   -1.6690 C.3    14  LYS14       0.1561
      3  C          6.6270   14.7580   -3.1920 C.2    14  LYS14       0.2260
      4  O          6.3830   15.7520   -3.8760 O.2    14  LYS14      -0.2867
      5  CB         5.2240   14.0270   -1.2220 C.3    14  LYS14       0.0271
      6  CG         3.8960   14.5150   -1.7850 C.3    14  LYS14       0.0035
      7  CD         2.7610   13.6320   -1.2550 C.3    14  LYS14       0.0206
      8  CE         1.5410   13.6410   -2.1590 C.3    14  LYS14       0.1093
      9  NZ         0.5180   14.6510   -1.7540 N.3    14  LYS14      -0.1314
     10  N          5.1560   13.5280   -6.6610 N.3    16  ILE16      -0.1231
     11  CA         3.8430   13.2510   -7.2660 C.3    16  ILE16       0.1692
     12  C          3.9960   12.2120   -8.3750 C.2    16  ILE16       0.2592
     13  O          3.1390   11.3490   -8.5440 O.2    16  ILE16      -0.2718
     14  CB         3.2740   14.5520   -7.9090 C.3    16  ILE16       0.0266
     15  CG1        2.8960   15.6120   -6.8700 C.3    16  ILE16       0.0019
     16  CG2        2.0990   14.2310   -8.8500 C.3    16  ILE16       0.0020
     17  CD1        2.5420   16.9660   -7.5010 C.3    16  ILE16       0.0001
     18  N          5.0130   12.3880   -9.2030 N.am   17  GLY17      -0.1957
     19  CA         5.1980   11.5350  -10.3640 C.3    17  GLY17       0.1869
     20  C          6.6110   11.4950  -10.8840 C.2    17  GLY17       0.2309
     21  O          7.4910   12.2040  -10.3890 O.2    17  GLY17      -0.2863
     22  N          8.1570   15.0230  -10.6510 N.3    24  VAL24      -0.1245
     23  CA         7.2960   16.1450  -10.2640 C.3    24  VAL24       0.1561
     24  C          7.1360   16.0690   -8.7520 C.2    24  VAL24       0.2260
     25  O          6.8790   14.9890   -8.1990 O.2    24  VAL24      -0.2867
     26  CB         5.9290   16.1810  -11.0000 C.3    24  VAL24       0.0252
     27  CG1        5.0880   17.3970  -10.5720 C.3    24  VAL24       0.0019
     28  CG2        6.1480   16.2270  -12.5020 C.3    24  VAL24       0.0019
     29  N          5.5200   18.0240   -5.1140 N.3    26  GLN26      -0.1245
     30  CA         4.5630   18.9320   -4.5310 C.3    26  GLN26       0.1566
     31  C          5.4580   19.7700   -3.6410 C.2    26  GLN26       0.2260
     32  O          6.2110   19.2300   -2.8410 O.2    26  GLN26      -0.2867
     33  CB         3.5500   18.1600   -3.6990 C.3    26  GLN26       0.0367
     34  CG         2.3840   18.9810   -3.1960 C.3    26  GLN26       0.0905
     35  CD         1.4130   18.1440   -2.3940 C.2    26  GLN26       0.2608
     36  OE1        1.8110   17.4080   -1.4990 O.2    26  GLN26      -0.2717
     37  NE2        0.1370   18.2480   -2.7170 N.am   26  GLN26      -0.0878
     38  N          3.7980   22.8580   -7.9350 N.3    36  ALA36      -0.1245
     39  CA         4.3000   21.5960   -8.4080 C.3    36  ALA36       0.1562
     40  C          5.5320   21.9690   -9.1950 C.2    36  ALA36       0.2260
     41  O          5.4760   22.8310  -10.0630 O.2    36  ALA36      -0.2867
     42  CB         3.2860   20.9140   -9.3010 C.3    36  ALA36       0.0290
     43  N          8.4930   20.6020  -11.6880 N.3    38  LYS38      -0.1245
     44  CA         8.8970   19.5120  -12.5400 C.3    38  LYS38       0.1561
     45  C         10.3940   19.6430  -12.7300 C.2    38  LYS38       0.2260
     46  O         10.8940   20.6760  -13.1600 O.2    38  LYS38      -0.2867
     47  CB         8.1740   19.5700  -13.8790 C.3    38  LYS38       0.0271
     48  CG         8.5280   18.4310  -14.8120 C.3    38  LYS38       0.0035
     49  CD         7.7500   18.5180  -16.1100 C.3    38  LYS38       0.0206
     50  CE         8.0640   17.3330  -17.0020 C.3    38  LYS38       0.1093
     51  NZ         7.2500   17.3360  -18.2440 N.3    38  LYS38      -0.1314
     52  N         -2.3530   24.3010  -18.0380 N.3    71  ILE71      -0.1245
     53  CA        -1.7540   24.3920  -16.7150 C.3    71  ILE71       0.1561
     54  C         -0.8340   25.5990  -16.6070 C.2    71  ILE71       0.2260
     55  O         -0.0780   25.8920  -17.5260 O.2    71  ILE71      -0.2867
     56  CB        -0.9540   23.1180  -16.3980 C.3    71  ILE71       0.0252
     57  CG1       -0.5760   23.0670  -14.9200 C.3    71  ILE71       0.0019
     58  CG2        0.2840   23.0300  -17.2750 C.3    71  ILE71       0.0019
     59  CD1        0.1260   21.7900  -14.5280 C.3    71  ILE71       0.0001
     60  N          5.0410   25.1050  -11.5110 N.3    87  MET87      -0.1230
     61  CA         3.6880   25.0950  -12.0380 C.3    87  MET87       0.1702
     62  C          2.6460   24.9740  -10.9370 C.2    87  MET87       0.2592
     63  O          2.9650   24.6190   -9.8090 O.2    87  MET87      -0.2718
     64  CB         3.5200   23.9240  -13.0080 C.3    87  MET87       0.0401
     65  CG         4.5010   23.9110  -14.1660 C.3    87  MET87       0.0596
     66  SD         4.4590   22.3750  -15.1040 S.3    87  MET87      -0.1393
     67  CE         5.3630   21.2940  -14.0130 C.3    87  MET87       0.0692
     68  N          1.3990   25.2840  -11.2670 N.am   88  GLU88      -0.1966
     69  CA         0.3210   25.1670  -10.3000 C.3    88  GLU88       0.1733
     70  C          0.1770   23.6860   -9.9610 C.2    88  GLU88       0.2616
     71  O          0.4220   22.8220  -10.7950 O.2    88  GLU88      -0.2715
     72  CB        -0.9860   25.7460  -10.8410 C.3    88  GLU88       0.0429
     73  CG        -1.6210   24.9490  -11.9620 C.3    88  GLU88       0.1163
     74  CD        -2.8380   25.6400  -12.5490 C.2    88  GLU88       0.3649
     75  OE1       -3.0280   25.5660  -13.7760 O.co2  88  GLU88      -0.2457
     76  OE2       -3.6020   26.2610  -11.7850 O.co2  88  GLU88      -0.2457
     77  N         -0.1970   23.4000   -8.7240 N.am   89  CYS89      -0.1954
     78  CA        -0.3280   22.0260   -8.2610 C.3    89  CYS89       0.1843
     79  C         -1.7900   21.6110   -8.3610 C.2    89  CYS89       0.2626
     80  O         -2.6750   22.3250   -7.8760 O.2    89  CYS89      -0.2714
     81  CB         0.2070   21.8610   -6.8410 C.3    89  CYS89       0.0997
     82  SG         0.3310   20.1330   -6.3190 S.3    89  CYS89      -0.0797
     83  N         -2.0400   20.4940   -9.0260 N.am   90  GLY90      -0.1940
     84  CA        -3.4100   19.9930   -9.1520 C.3    90  GLY90       0.2014
     85  C         -3.7410   19.0350   -8.0280 C.2    90  GLY90       0.2639
     86  O         -2.8410   18.6060   -7.2980 O.2    90  GLY90      -0.2714
     87  N         -5.0160   18.6630   -7.8930 N.am   91  ASN91      -0.1958
     88  CA        -5.4230   17.7230   -6.8590 C.3    91  ASN91       0.1819
     89  C         -5.0690   16.3090   -7.2820 C.2    91  ASN91       0.2621
     90  O         -4.6100   15.5200   -6.4600 O.2    91  ASN91      -0.2715
     91  CB        -6.9450   17.8180   -6.6410 C.3    91  ASN91       0.1195
     92  CG        -7.3710   19.1560   -6.1140 C.2    91  ASN91       0.2630
     93  OD1       -7.5010   20.1380   -6.8550 O.2    91  ASN91      -0.2716
     94  ND2       -7.5300   19.2380   -4.8110 N.am   91  ASN91      -0.0877
     95  N         -5.3040   15.9830   -8.5780 N.am   92  ILE92      -0.1963
     96  CA        -5.1370   14.6400   -9.1300 C.3    92  ILE92       0.1727
     97  C         -5.1950   14.6750  -10.6560 C.2    92  ILE92       0.2616
     98  O         -5.7890   15.5850  -11.2150 O.2    92  ILE92      -0.2715
     99  CB        -6.2820   13.7300   -8.5400 C.3    92  ILE92       0.0290
    100  CG1       -5.9630   12.2300   -8.6910 C.3    92  ILE92       0.0022
    101  CG2       -7.6780   14.0920   -9.0900 C.3    92  ILE92       0.0023
    102  CD1       -6.9630   11.2740   -7.9300 C.3    92  ILE92       0.0001
    103  N         -4.6370   13.6700  -11.3270 N.am   93  ASP93      -0.1971
    104  CA        -4.7750   13.6080  -12.7880 C.3    93  ASP93       0.1709
    105  C         -6.0860   12.8680  -13.0910 C.2    93  ASP93       0.2293
    106  O         -6.5900   12.0920  -12.2510 O.2    93  ASP93      -0.2864
    107  CB        -3.5820   12.9110  -13.4440 C.3    93  ASP93       0.1436
    108  CG        -3.4740   11.4880  -12.9710 C.2    93  ASP93       0.3671
    109  OD1       -3.0270   11.2870  -11.8270 O.co2  93  ASP93      -0.2456
    110  OD2       -3.9310   10.5810  -13.7080 O.co2  93  ASP93      -0.2456
    111  N         -6.1390    8.7950  -12.7700 N.3    96  SER96      -0.1217
    112  CA        -6.1930    8.3120  -11.3790 C.3    96  SER96       0.1889
    113  C         -7.5680    8.5270  -10.8130 C.2    96  SER96       0.2288
    114  O         -8.0530    7.6920  -10.0610 O.2    96  SER96      -0.2866
    115  CB        -5.1640    9.0390  -10.5190 C.3    96  SER96       0.2089
    116  OG        -3.8630    8.9060  -11.0680 O.3    96  SER96      -0.2183
    117  N         -4.5380   10.8320  -18.5320 N.3   136  ALA136     -0.1245
    118  CA        -3.3550   11.2320  -17.7530 C.3   136  ALA136      0.1562
    119  C         -2.7400   12.5960  -18.2050 C.2   136  ALA136      0.2260
    120  O         -1.9570   13.1910  -17.4670 O.2   136  ALA136     -0.2867
    121  CB        -2.3010   10.1320  -17.8040 C.3   136  ALA136      0.0290
    122  N         -5.2940   17.3110  -15.8180 N.3   139  LEU139     -0.1245
    123  CA        -5.1800   17.5350  -14.3920 C.3   139  LEU139      0.1561
    124  C         -6.4410   18.1540  -13.8210 C.2   139  LEU139      0.2260
    125  O         -6.9650   19.0960  -14.4030 O.2   139  LEU139     -0.2867
    126  CB        -4.0200   18.5010  -14.1670 C.3   139  LEU139      0.0270
    127  CG        -3.5190   18.6890  -12.7510 C.3   139  LEU139      0.0019
    128  CD1       -2.9540   17.4180  -12.2030 C.3   139  LEU139      0.0001
    129  CD2       -2.4580   19.7540  -12.7220 C.3   139  LEU139      0.0001
    130  N         -2.0160   19.3020  -19.2120 N.3   148  ILE148     -0.1245
    131  CA        -0.6790   19.3610  -18.6490 C.3   148  ILE148      0.1561
    132  C          0.4510   19.4220  -19.6670 C.2   148  ILE148      0.2260
    133  O          1.4810   20.0370  -19.4140 O.2   148  ILE148     -0.2867
    134  CB        -0.4050   18.1370  -17.7530 C.3   148  ILE148      0.0252
    135  CG1       -1.4590   18.0180  -16.6580 C.3   148  ILE148      0.0019
    136  CG2        0.9800   18.2190  -17.1350 C.3   148  ILE148      0.0019
    137  CD1       -1.4470   16.6750  -15.9650 C.3   148  ILE148      0.0001
    138  N          4.3440   11.2750  -17.9850 N.3   156  MET156     -0.1230
    139  CA         4.6400   10.7820  -16.6330 C.3   156  MET156      0.1702
    140  C          3.5140    9.9880  -15.9560 C.2   156  MET156      0.2592
    141  O          2.3480   10.1140  -16.3160 O.2   156  MET156     -0.2718
    142  CB         5.0440   11.9450  -15.7280 C.3   156  MET156      0.0401
    143  CG         6.4800   12.4060  -15.8960 C.3   156  MET156      0.0596
    144  SD         6.8350   13.8300  -14.8590 S.3   156  MET156     -0.1393
    145  CE         5.7390   15.0320  -15.5990 C.3   156  MET156      0.0692
    146  N          3.8860    9.1710  -14.9720 N.am  157  GLN157     -0.1966
    147  CA         2.9400    8.3450  -14.2220 C.3   157  GLN157      0.1718
    148  C          3.0660    8.6160  -12.7210 C.2   157  GLN157      0.2458
    149  O          4.1540    8.9090  -12.2340 O.2   157  GLN157     -0.2730
    150  CB         3.1740    6.8640  -14.5160 C.3   157  GLN157      0.0407
    151  CG         4.5600    6.3820  -14.1580 C.3   157  GLN157      0.0908
    152  CD         4.8200    4.9470  -14.5770 C.2   157  GLN157      0.2608
    153  OE1        3.9020    4.2160  -14.9530 O.2   157  GLN157     -0.2717
    154  NE2        6.0780    4.5360  -14.5140 N.am  157  GLN157     -0.0878
    155  N          1.9560    8.5270  -11.9910 N.am  158  PRO158     -0.2727
    156  CA         1.9820    8.8110  -10.5390 C.3   158  PRO158      0.1402
    157  C          2.8700    7.8710   -9.7260 C.2   158  PRO158      0.2269
    158  O          3.1650    6.7640  -10.1780 O.2   158  PRO158     -0.2865
    159  CB         0.5150    8.6560  -10.1180 C.3   158  PRO158      0.0296
    160  CG        -0.2700    8.7750  -11.3770 C.3   158  PRO158      0.0237
    161  CD         0.5900    8.1930  -12.4440 C.3   158  PRO158      0.0939
@<TRIPOS>BOND
     1   132   133    2
     2   132   131    1
     3   130   131    1
     4   131   134    1
     5   117   118    1
     6    51    50    1
     7   119   118    1
     8   119   120    2
     9    52    53    1
    10   138   139    1
    11   121   118    1
    12   134   136    1
    13   134   135    1
    14    55    54    2
    15    58    56    1
    16    50    49    1
    17    53    54    1
    18    53    56    1
    19   135   137    1
    20   139   140    1
    21   139   142    1
    22    56    57    1
    23   141   140    2
    24    49    48    1
    25   140   146   am
    26   143   142    1
    27   143   144    1
    28   122   123    1
    29   145   144    1
    30    66    65    1
    31    66    67    1
    32   146   147    1
    33   153   152    2
    34    57    59    1
    35    48    47    1
    36   152   154   am
    37   152   151    1
    38   150   147    1
    39   150   151    1
    40   125   124    2
    41   123   126    1
    42   123   124    1
    43   147   148    1
    44   126   127    1
    45    65    64    1
    46    47    44    1
    47    75    74   ar
    48   110   108   ar
    49   107   108    1
    50   107   104    1
    51    46    45    2
    52   105   104    1
    53   105   106    2
    54    64    61    1
    55   108   109   ar
    56   104   103    1
    57   111   112    1
    58   127   129    1
    59   127   128    1
    60    45    44    1
    61   148   149    2
    62   148   155   am
    63    74    73    1
    64    74    76   ar
    65    44    43    1
    66    28    26    1
    67   161   155    1
    68   161   160    1
    69    61    60    1
    70    61    62    1
    71   155   156    1
    72    73    72    1
    73   112   113    1
    74   112   115    1
    75   160   159    1
    76   103    97   am
    77    68    62   am
    78    68    69    1
    79    98    97    2
    80   116   115    1
    81    26    27    1
    82    26    23    1
    83    62    63    2
    84    20    21    2
    85    20    19    1
    86    72    69    1
    87   113   114    2
    88    71    70    2
    89    97    96    1
    90    22    23    1
    91   156   159    1
    92   156   157    1
    93    19    18    1
    94    69    70    1
    95    23    24    1
    96   158   157    2
    97    41    40    2
    98    70    77   am
    99    42    39    1
   100    18    12   am
   101    40    39    1
   102    84    83    1
   103    84    85    1
   104    96    95    1
   105    96    99    1
   106   101    99    1
   107    83    79   am
   108    16    14    1
   109    24    25    2
   110    77    78    1
   111   100    99    1
   112   100   102    1
   113    95    89   am
   114    13    12    2
   115    39    38    1
   116    12    11    1
   117    79    78    1
   118    79    80    2
   119    78    81    1
   120    85    87   am
   121    85    86    2
   122    14    11    1
   123    14    15    1
   124    87    88    1
   125    17    15    1
   126    89    88    1
   127    89    90    2
   128    11    10    1
   129    88    91    1
   130    93    92    2
   131    81    82    1
   132    91    92    1
   133    92    94   am
   134    29    30    1
   135    30    33    1
   136    30    31    1
   137     4     3    2
   138    33    34    1
   139    31    32    2
   140    34    35    1
   141     3     2    1
   142    37    35   am
   143    35    36    2
   144     8     9    1
   145     8     7    1
   146     6     7    1
   147     6     5    1
   148     2     5    1
   149     2     1    1
