@<TRIPOS>MOLECULE
tmp/5ei8A00.pdb
 179 166 0 0 0
SMALL
GASTEIGER

@<TRIPOS>ATOM
      1  N          6.4140  -34.3000   -0.6970 N.3    14  LYS14      -0.1245
      2  CA         6.2180  -35.6920   -1.0980 C.3    14  LYS14       0.1561
      3  C          6.5250  -35.7750   -2.5670 C.2    14  LYS14       0.2260
      4  O          6.3660  -34.7720   -3.2780 O.2    14  LYS14      -0.2867
      5  CB         4.7100  -36.0160   -0.9130 C.3    14  LYS14       0.0271
      6  CG         4.3020  -37.4170   -1.2460 C.3    14  LYS14       0.0035
      7  CD         2.9900  -37.4350   -2.0150 C.3    14  LYS14       0.0206
      8  CE         1.7780  -37.2500   -1.1260 C.3    14  LYS14       0.1093
      9  NZ         0.5490  -37.2510   -1.9750 N.3    14  LYS14      -0.1314
     10  N          5.1720  -36.9480   -5.9150 N.3    16  ILE16      -0.1231
     11  CA         3.9360  -37.3610   -6.5810 C.3    16  ILE16       0.1692
     12  C          4.0680  -38.4890   -7.6030 C.2    16  ILE16       0.2592
     13  O          3.2400  -39.3930   -7.6410 O.2    16  ILE16      -0.2718
     14  CB         3.2650  -36.1630   -7.2850 C.3    16  ILE16       0.0266
     15  CG1        2.9600  -35.0530   -6.2870 C.3    16  ILE16       0.0019
     16  CG2        1.9870  -36.5840   -7.9940 C.3    16  ILE16       0.0020
     17  CD1        2.4710  -33.7800   -6.9370 C.3    16  ILE16       0.0001
     18  N          5.0990  -38.4240   -8.4380 N.am   17  GLY17      -0.1957
     19  CA         5.2890  -39.4130   -9.4820 C.3    17  GLY17       0.1869
     20  C          6.6940  -39.5840  -10.0250 C.2    17  GLY17       0.2309
     21  O          7.5770  -38.7740   -9.7740 O.2    17  GLY17      -0.2863
     22  N          8.1260  -35.9890  -10.1940 N.3    24  VAL24      -0.1245
     23  CA         7.2500  -34.8630   -9.9010 C.3    24  VAL24       0.1561
     24  C          7.1570  -34.8160   -8.3860 C.2    24  VAL24       0.2260
     25  O          6.9130  -35.8450   -7.7490 O.2    24  VAL24      -0.2867
     26  CB         5.8370  -34.9680  -10.5690 C.3    24  VAL24       0.0252
     27  CG1        4.9290  -33.8140  -10.1440 C.3    24  VAL24       0.0019
     28  CG2        5.9560  -34.9950  -12.0760 C.3    24  VAL24       0.0019
     29  N          5.6050  -32.6920   -4.8280 N.3    26  GLN26      -0.1245
     30  CA         4.6440  -31.7680   -4.2680 C.3    26  GLN26       0.1566
     31  C          5.5360  -30.8990   -3.4010 C.2    26  GLN26       0.2260
     32  O          6.2890  -31.4110   -2.5810 O.2    26  GLN26      -0.2867
     33  CB         3.6240  -32.5160   -3.4210 C.3    26  GLN26       0.0367
     34  CG         2.4090  -31.7010   -3.0260 C.3    26  GLN26       0.0905
     35  CD         1.3920  -32.5260   -2.2660 C.2    26  GLN26       0.2608
     36  OE1        1.7490  -33.3780   -1.4610 O.2    26  GLN26      -0.2717
     37  NE2        0.1200  -32.2790   -2.5250 N.am   26  GLN26      -0.0878
     38  N          3.7550  -28.0750   -7.8230 N.3    36  ALA36      -0.1245
     39  CA         4.2400  -29.3610   -8.2480 C.3    36  ALA36       0.1562
     40  C          5.4760  -28.9980   -9.0530 C.2    36  ALA36       0.2260
     41  O          5.4130  -28.1580   -9.9470 O.2    36  ALA36      -0.2867
     42  CB         3.2190  -30.0660   -9.1150 C.3    36  ALA36       0.0290
     43  N          8.4870  -30.4170  -11.5060 N.3    38  LYS38      -0.1245
     44  CA         8.9240  -31.5570  -12.2780 C.3    38  LYS38       0.1561
     45  C         10.4220  -31.4720  -12.4650 C.2    38  LYS38       0.2260
     46  O         10.9530  -30.4850  -12.9580 O.2    38  LYS38      -0.2867
     47  CB         8.2140  -31.6450  -13.6280 C.3    38  LYS38       0.0271
     48  CG         8.5340  -32.9280  -14.3740 C.3    38  LYS38       0.0035
     49  CD         7.6340  -33.1410  -15.5760 C.3    38  LYS38       0.0206
     50  CE         7.9340  -34.4750  -16.2360 C.3    38  LYS38       0.1093
     51  NZ         6.9250  -34.8320  -17.2690 N.3    38  LYS38      -0.1314
     52  N         -2.2850  -26.8520  -17.9690 N.3    71  ILE71      -0.1245
     53  CA        -1.7050  -26.7660  -16.6440 C.3    71  ILE71       0.1561
     54  C         -0.7500  -25.5900  -16.5810 C.2    71  ILE71       0.2260
     55  O          0.0370  -25.3690  -17.4940 O.2    71  ILE71      -0.2867
     56  CB        -0.9480  -28.0510  -16.2920 C.3    71  ILE71       0.0252
     57  CG1       -0.4570  -28.0000  -14.8470 C.3    71  ILE71       0.0019
     58  CG2        0.2080  -28.2630  -17.2540 C.3    71  ILE71       0.0019
     59  CD1        0.0670  -29.3220  -14.3440 C.3    71  ILE71       0.0001
     60  N          5.1720  -25.8540  -11.5310 N.3    87  MET87      -0.1230
     61  CA         3.8000  -25.9430  -12.0510 C.3    87  MET87       0.1702
     62  C          2.7660  -25.9630  -10.9410 C.2    87  MET87       0.2595
     63  O          3.1100  -26.2370   -9.7840 O.2    87  MET87      -0.2718
     64  CB         3.6550  -27.2290  -12.8640 C.3    87  MET87       0.0401
     65  CG         4.6330  -27.3230  -13.9900 C.3    87  MET87       0.0596
     66  SD         4.5430  -28.8910  -14.8610 S.3    87  MET87      -0.1393
     67  CE         5.4830  -29.8590  -13.8020 C.3    87  MET87       0.0692
     68  N          1.4790  -25.7450  -11.2940 N.am   88  GLU88      -0.1920
     69  CA         0.3910  -25.8490  -10.3110 C.3    88  GLU88       0.1949
     70  C          0.2330  -27.3240   -9.8990 C.2    88  GLU88       0.2659
     71  O          0.5410  -28.2540  -10.6660 O.2    88  GLU88      -0.2711
     72  CB        -0.9460  -25.2320  -10.8170 C.2    88  GLU88       0.0111
     73  CG        -1.7060  -26.0510  -11.8550 C.2    88  GLU88       0.0838
     74  CD        -2.8680  -25.3690  -12.5520 C.2    88  GLU88       0.3877
     75  OE1       -2.9110  -25.4120  -13.8000 O.co2  88  GLU88      -0.2406
     76  OE2       -3.7420  -24.8010  -11.8620 O.co2  88  GLU88      -0.2406
     77  N         -0.1980  -27.5240   -8.6760 N.am   89  CYS89      -0.1951
     78  CA        -0.3740  -28.8400   -8.1300 C.3    89  CYS89       0.1843
     79  C         -1.8400  -29.2040   -8.2210 C.2    89  CYS89       0.2626
     80  O         -2.7020  -28.4640   -7.7430 O.2    89  CYS89      -0.2714
     81  CB         0.1220  -28.8700   -6.6910 C.3    89  CYS89       0.0997
     82  SG         0.1970  -30.5280   -5.9810 S.3    89  CYS89      -0.0797
     83  N         -2.1100  -30.3280   -8.8540 N.am   90  GLY90      -0.1940
     84  CA        -3.4560  -30.8640   -8.9720 C.3    90  GLY90       0.2014
     85  C         -3.7010  -31.8780   -7.8770 C.2    90  GLY90       0.2639
     86  O         -2.7610  -32.3080   -7.2010 O.2    90  GLY90      -0.2714
     87  N         -4.9480  -32.2800   -7.7170 N.am   91  ASN91      -0.1958
     88  CA        -5.3730  -33.2270   -6.6960 C.3    91  ASN91       0.1819
     89  C         -5.0330  -34.6500   -7.0870 C.2    91  ASN91       0.2621
     90  O         -4.6110  -35.4340   -6.2430 O.2    91  ASN91      -0.2715
     91  CB        -6.8890  -33.1010   -6.4940 C.3    91  ASN91       0.1195
     92  CG        -7.3010  -31.7420   -5.9820 C.2    91  ASN91       0.2630
     93  OD1       -7.3540  -30.7640   -6.7330 O.2    91  ASN91      -0.2716
     94  ND2       -7.5910  -31.6470   -4.6850 N.am   91  ASN91      -0.0877
     95  N         -5.2330  -34.9970   -8.3760 N.am   92  ILE92      -0.1963
     96  CA        -5.0330  -36.3610   -8.8790 C.3    92  ILE92       0.1727
     97  C         -5.1060  -36.3460  -10.3880 C.2    92  ILE92       0.2616
     98  O         -5.7650  -35.4830  -10.9460 O.2    92  ILE92      -0.2715
     99  CB        -6.1260  -37.3070   -8.2510 C.3    92  ILE92       0.0290
    100  CG1       -5.7770  -38.8020   -8.4480 C.3    92  ILE92       0.0022
    101  CG2       -7.5600  -36.9610   -8.7290 C.3    92  ILE92       0.0023
    102  CD1       -6.7340  -39.7100   -7.8670 C.3    92  ILE92       0.0001
    103  N         -4.4410  -37.2970  -11.0440 N.am   93  ASP93      -0.1971
    104  CA        -4.5400  -37.4410  -12.4830 C.3    93  ASP93       0.1709
    105  C         -5.8570  -38.1480  -12.7940 C.2    93  ASP93       0.2293
    106  O         -6.4050  -38.8380  -11.9240 O.2    93  ASP93      -0.2864
    107  CB        -3.3280  -38.1740  -13.0660 C.3    93  ASP93       0.1436
    108  CG        -3.1970  -39.6180  -12.6690 C.2    93  ASP93       0.3671
    109  OD1       -2.7640  -39.8750  -11.5370 O.co2  93  ASP93      -0.2456
    110  OD2       -3.4680  -40.4950  -13.5210 O.co2  93  ASP93      -0.2456
    111  N         -5.8790  -42.2910  -12.5210 N.3    96  SER96      -0.1217
    112  CA        -5.9560  -42.7320  -11.1260 C.3    96  SER96       0.1889
    113  C         -7.3420  -42.4890  -10.6040 C.2    96  SER96       0.2288
    114  O         -7.9030  -43.3810   -9.9750 O.2    96  SER96      -0.2866
    115  CB        -4.9310  -42.0020  -10.2700 C.3    96  SER96       0.2089
    116  OG        -3.6120  -42.2650  -10.7220 O.3    96  SER96      -0.2183
    117  N         -9.9150  -45.1640  -12.1170 N.3    99  LYS99      -0.1231
    118  CA        -9.7370  -46.4710  -11.4690 C.3    99  LYS99       0.1693
    119  C        -10.4190  -46.5270  -10.0770 C.2    99  LYS99       0.2591
    120  O        -10.9090  -47.5870   -9.6760 O.2    99  LYS99      -0.2718
    121  CB        -8.2290  -46.7900  -11.3190 C.3    99  LYS99       0.0285
    122  CG        -7.4800  -46.9330  -12.6250 C.3    99  LYS99       0.0035
    123  CD        -6.0000  -47.1120  -12.4150 C.3    99  LYS99       0.0206
    124  CE        -5.2860  -45.8380  -12.0690 C.3    99  LYS99       0.1093
    125  NZ        -3.8020  -45.9980  -12.0640 N.3    99  LYS99      -0.1314
    126  N        -10.4210  -45.3930   -9.3380 N.am  100  LYS100     -0.1980
    127  CA       -10.9940  -45.2800   -7.9840 C.3   100  LYS100      0.1596
    128  C        -12.5060  -45.0950   -7.9580 C.2   100  LYS100      0.2287
    129  O        -13.1240  -45.3840   -6.9380 O.2   100  LYS100     -0.2864
    130  CB       -10.3130  -44.1450   -7.1840 C.3   100  LYS100      0.0298
    131  CG        -8.9310  -44.5770   -6.6840 C.3   100  LYS100      0.0038
    132  CD        -8.3040  -43.5240   -5.7840 C.3   100  LYS100      0.0206
    133  CE        -6.7950  -43.6970   -5.7270 C.3   100  LYS100      0.1093
    134  NZ        -6.0550  -43.0090   -6.8260 N.3   100  LYS100     -0.1314
    135  N         -4.3320  -40.2490  -18.3920 N.3   136  ALA136     -0.1245
    136  CA        -3.1260  -39.8160  -17.6700 C.3   136  ALA136      0.1562
    137  C         -2.6100  -38.4440  -18.1300 C.2   136  ALA136      0.2260
    138  O         -1.8340  -37.8220  -17.4080 O.2   136  ALA136     -0.2867
    139  CB        -2.0280  -40.8500  -17.8350 C.3   136  ALA136      0.0290
    140  N         -5.0650  -33.6470  -15.6470 N.3   139  LEU139     -0.1245
    141  CA        -5.0250  -33.5010  -14.2010 C.3   139  LEU139      0.1561
    142  C         -6.2680  -32.7760  -13.6640 C.2   139  LEU139      0.2260
    143  O         -6.7460  -31.8290  -14.2860 O.2   139  LEU139     -0.2867
    144  CB        -3.7310  -32.7850  -13.8190 C.3   139  LEU139      0.0270
    145  CG        -3.4530  -32.4590  -12.3890 C.3   139  LEU139      0.0019
    146  CD1       -3.0300  -33.6780  -11.6290 C.3   139  LEU139      0.0001
    147  CD2       -2.3990  -31.4230  -12.3300 C.3   139  LEU139      0.0001
    148  N         -1.8640  -31.8610  -19.0960 N.3   148  ILE148     -0.1245
    149  CA        -0.5180  -31.8990  -18.5240 C.3   148  ILE148      0.1561
    150  C          0.5670  -31.8160  -19.5920 C.2   148  ILE148      0.2260
    151  O          1.5700  -31.1280  -19.3900 O.2   148  ILE148     -0.2867
    152  CB        -0.3210  -33.1890  -17.6500 C.3   148  ILE148      0.0252
    153  CG1       -1.1150  -33.1310  -16.3550 C.3   148  ILE148      0.0019
    154  CG2        1.1720  -33.4860  -17.3490 C.3   148  ILE148      0.0019
    155  CD1       -1.1100  -34.4500  -15.6440 C.3   148  ILE148      0.0001
    156  N          4.5430  -40.7250  -17.0710 N.3   156  MET156     -0.1230
    157  CA         4.7380  -40.9090  -15.6450 C.3   156  MET156      0.1702
    158  C          3.6500  -41.7100  -14.9470 C.2   156  MET156      0.2592
    159  O          2.4970  -41.7510  -15.3670 O.2   156  MET156     -0.2718
    160  CB         4.9130  -39.5580  -14.9560 C.3   156  MET156      0.0401
    161  CG         6.0650  -38.7400  -15.5070 C.3   156  MET156      0.0596
    162  SD         6.7280  -37.6180  -14.2700 S.3   156  MET156     -0.1393
    163  CE         7.1300  -38.7760  -12.9700 C.3   156  MET156      0.0692
    164  N          4.0550  -42.3480  -13.8550 N.am  157  GLN157     -0.1966
    165  CA         3.1700  -43.1630  -13.0410 C.3   157  GLN157      0.1718
    166  C          3.1930  -42.6610  -11.6080 C.2   157  GLN157      0.2458
    167  O          4.2240  -42.1970  -11.1250 O.2   157  GLN157     -0.2730
    168  CB         3.6020  -44.6260  -13.0770 C.3   157  GLN157      0.0407
    169  CG         3.4930  -45.2770  -14.4420 C.3   157  GLN157      0.0908
    170  CD         3.6770  -46.7770  -14.3770 C.2   157  GLN157      0.2608
    171  OE1        3.6910  -47.3630  -13.2970 O.2   157  GLN157     -0.2717
    172  NE2        3.8180  -47.4070  -15.5330 N.am  157  GLN157     -0.0878
    173  N          2.0700  -42.7550  -10.9120 N.am  158  PRO158     -0.2727
    174  CA         2.0180  -42.2960   -9.5190 C.3   158  PRO158      0.1402
    175  C          2.8930  -43.1490   -8.6020 C.2   158  PRO158      0.2269
    176  O          2.9640  -44.3620   -8.7880 O.2   158  PRO158     -0.2865
    177  CB         0.5420  -42.4680   -9.1440 C.3   158  PRO158      0.0296
    178  CG        -0.1890  -42.5560  -10.4410 C.3   158  PRO158      0.0237
    179  CD         0.7590  -43.2230  -11.3870 C.3   158  PRO158      0.0939
@<TRIPOS>BOND
     1   150   151    2
     2   150   149    1
     3   148   149    1
     4   149   152    1
     5   135   136    1
     6   137   136    1
     7   137   138    2
     8    52    53    1
     9   139   136    1
    10   152   154    1
    11   152   153    1
    12    55    54    2
    13    51    50    1
    14    58    56    1
    15   156   157    1
    16    53    54    1
    17    53    56    1
    18   153   155    1
    19    56    57    1
    20    50    49    1
    21   140   141    1
    22   157   160    1
    23   157   158    1
    24    49    48    1
    25   172   170   am
    26   161   160    1
    27   161   162    1
    28   159   158    2
    29   158   164   am
    30    66    65    1
    31    66    67    1
    32    57    59    1
    33   169   170    1
    34   169   168    1
    35   170   171    2
    36    48    47    1
    37   143   142    2
    38   162   163    1
    39   141   144    1
    40   141   142    1
    41    65    64    1
    42   164   165    1
    43   144   145    1
    44    75    74   ar
    45    47    44    1
    46   110   108   ar
    47   168   165    1
    48   107   108    1
    49   107   104    1
    50   165   166    1
    51    46    45    2
    52    64    61    1
    53   105   104    1
    54   105   106    2
    55   108   109   ar
    56   122   123    1
    57   122   121    1
    58    74    76   ar
    59    74    73    1
    60   111   112    1
    61   104   103    1
    62    45    44    1
    63   123   124    1
    64   145   147    1
    65   145   146    1
    66    44    43    1
    67   117   118    1
    68    28    26    1
    69   124   125    1
    70    61    60    1
    71    61    62    1
    72    73    72    2
    73   166   167    2
    74   166   173   am
    75   118   121    1
    76   118   119    1
    77   179   173    1
    78   179   178    1
    79    68    62   am
    80    68    69    1
    81   112   113    1
    82   112   115    1
    83   103    97   am
    84    98    97    2
    85    62    63    2
    86   173   174    1
    87    72    69    1
    88   116   115    1
    89    71    70    2
    90   113   114    2
    91    26    27    1
    92    26    23    1
    93   178   177    1
    94    97    96    1
    95    69    70    1
    96    22    23    1
    97   119   120    2
    98   119   126   am
    99    20    21    2
   100    20    19    1
   101    41    40    2
   102    23    24    1
   103    70    77   am
   104   174   177    1
   105   174   175    1
   106    19    18    1
   107   126   127    1
   108    42    39    1
   109    40    39    1
   110    84    83    1
   111    84    85    1
   112    96    95    1
   113    96    99    1
   114    83    79   am
   115   176   175    2
   116   101    99    1
   117    77    78    1
   118   100    99    1
   119   100   102    1
   120    18    12   am
   121    24    25    2
   122    95    89   am
   123    39    38    1
   124    79    78    1
   125    79    80    2
   126    78    81    1
   127    16    14    1
   128   127   128    1
   129   127   130    1
   130   128   129    2
   131    85    87   am
   132    85    86    2
   133    87    88    1
   134    13    12    2
   135    12    11    1
   136    14    11    1
   137    14    15    1
   138   130   131    1
   139    89    88    1
   140    89    90    2
   141    17    15    1
   142   134   133    1
   143    93    92    2
   144    88    91    1
   145    81    82    1
   146   131   132    1
   147    11    10    1
   148    91    92    1
   149    92    94   am
   150   132   133    1
   151    29    30    1
   152    30    33    1
   153    30    31    1
   154    33    34    1
   155    31    32    2
   156     4     3    2
   157    34    35    1
   158     3     2    1
   159    37    35   am
   160    35    36    2
   161     7     6    1
   162     7     8    1
   163     9     8    1
   164     6     5    1
   165     2     5    1
   166     2     1    1
