@<TRIPOS>MOLECULE
tmp/5eicB00.pdb
 131 127 0 0 0
SMALL
GASTEIGER

@<TRIPOS>ATOM
      1  N        174.2240   84.3270   30.9160 N.3    32  PRO32      -0.2102
      2  CA       174.4660   85.4680   31.8200 C.3    32  PRO32       0.1504
      3  C        175.3340   86.5550   31.2210 C.2    32  PRO32       0.2575
      4  O        175.4050   87.6540   31.7920 O.2    32  PRO32      -0.2718
      5  CB       175.1710   84.8290   33.0240 C.3    32  PRO32       0.0282
      6  CG       174.9280   83.3560   32.9100 C.3    32  PRO32       0.0208
      7  CD       174.7670   83.0670   31.4570 C.3    32  PRO32       0.0893
      8  N        175.9870   86.2840   30.1000 N.am   33  PHE33      -0.1977
      9  CA       176.8740   87.2250   29.4450 C.3    33  PHE33       0.1639
     10  C        176.2240   87.9100   28.2550 C.2    33  PHE33       0.2290
     11  O        176.8490   88.7860   27.6430 O.2    33  PHE33      -0.2864
     12  CB       178.1460   86.4970   28.9950 C.3    33  PHE33       0.0560
     13  CG       178.9000   85.8370   30.1220 C.ar   33  PHE33      -0.0200
     14  CD1      178.5960   84.5450   30.5280 C.ar   33  PHE33      -0.0042
     15  CD2      179.9270   86.5110   30.7560 C.ar   33  PHE33      -0.0042
     16  CE1      179.3050   83.9380   31.5600 C.ar   33  PHE33      -0.0003
     17  CE2      180.6390   85.9050   31.7790 C.ar   33  PHE33      -0.0003
     18  CZ       180.3110   84.6230   32.1900 C.ar   33  PHE33      -0.0000
     19  N        175.1510   93.2180   33.1820 N.3    37  VAL37      -0.1245
     20  CA       174.6950   92.9500   34.5430 C.3    37  VAL37       0.1561
     21  C        173.9640   94.1690   35.0760 C.2    37  VAL37       0.2260
     22  O        174.4510   95.3020   34.9780 O.2    37  VAL37      -0.2867
     23  CB       175.8830   92.5820   35.4430 C.3    37  VAL37       0.0252
     24  CG1      175.4280   92.4010   36.8910 C.3    37  VAL37       0.0019
     25  CG2      176.5620   91.3290   34.9390 C.3    37  VAL37       0.0019
     26  N        168.8940   92.5580   40.0080 N.3    42  LEU42      -0.1231
     27  CA       169.1400   91.2070   40.4940 C.3    42  LEU42       0.1693
     28  C        169.4850   91.1410   41.9790 C.2    42  LEU42       0.2593
     29  O        169.5140   90.0400   42.5410 O.2    42  LEU42      -0.2718
     30  CB       170.2620   90.5610   39.6740 C.3    42  LEU42       0.0284
     31  CG       169.9780   90.4800   38.1690 C.3    42  LEU42       0.0019
     32  CD1      171.1320   89.8150   37.4160 C.3    42  LEU42       0.0001
     33  CD2      168.6700   89.7350   37.9340 C.3    42  LEU42       0.0001
     34  N        169.7440   92.2710   42.6290 N.am   43  GLY43      -0.1942
     35  CA       170.1680   92.2450   44.0230 C.3    43  GLY43       0.2014
     36  C        171.5840   91.7540   44.2440 C.2    43  GLY43       0.2639
     37  O        171.8280   90.9840   45.1850 O.2    43  GLY43      -0.2714
     38  N        172.5230   92.1840   43.4060 N.am   44  ILE44      -0.1963
     39  CA       173.9080   91.7190   43.4400 C.3    44  ILE44       0.1712
     40  C        174.7200   92.7410   44.2350 C.2    44  ILE44       0.2458
     41  O        174.9190   93.8620   43.7460 O.2    44  ILE44      -0.2730
     42  CB       174.4830   91.5640   42.0260 C.3    44  ILE44       0.0289
     43  CG1      173.6680   90.5720   41.2010 C.3    44  ILE44       0.0022
     44  CG2      175.9240   91.1070   42.0770 C.3    44  ILE44       0.0023
     45  CD1      174.1340   90.4800   39.7590 C.3    44  ILE44       0.0001
     46  N        175.2290   92.3980   45.4180 N.am   45  PRO45      -0.2727
     47  CA       175.9290   93.3990   46.2320 C.3    45  PRO45       0.1402
     48  C        177.3120   93.7270   45.6860 C.2    45  PRO45       0.2269
     49  O        178.0550   92.8500   45.2400 O.2    45  PRO45      -0.2865
     50  CB       176.0250   92.7230   47.6070 C.3    45  PRO45       0.0296
     51  CG       176.0520   91.2710   47.3000 C.3    45  PRO45       0.0237
     52  CD       175.1760   91.0850   46.0830 C.3    45  PRO45       0.0939
     53  N        178.5320   95.0860   43.0570 N.3    47  TYR47      -0.1241
     54  CA       178.9840   94.6580   41.7370 C.3    47  TYR47       0.1605
     55  C        179.7930   95.7480   41.0350 C.2    47  TYR47       0.2264
     56  O        180.9120   95.4950   40.5640 O.2    47  TYR47      -0.2867
     57  CB       177.8050   94.2200   40.8580 C.3    47  TYR47       0.0534
     58  CG       178.3150   93.6840   39.5360 C.ar   47  TYR47      -0.0201
     59  CD1      178.8150   92.3920   39.4420 C.ar   47  TYR47      -0.0009
     60  CD2      178.3590   94.4910   38.4030 C.ar   47  TYR47      -0.0009
     61  CE1      179.3170   91.8990   38.2460 C.ar   47  TYR47       0.0417
     62  CE2      178.8700   94.0090   37.2010 C.ar   47  TYR47       0.0417
     63  CZ       179.3440   92.7130   37.1350 C.ar   47  TYR47       0.1957
     64  OH       179.8550   92.2360   35.9490 O.3    47  TYR47      -0.2866
     65  N        181.5830   94.6800   31.0860 N.3    55  MET55      -0.1245
     66  CA       181.5930   94.3170   29.6730 C.3    55  MET55       0.1570
     67  C        180.7620   93.0550   29.4930 C.2    55  MET55       0.2261
     68  O        180.7540   92.1890   30.3700 O.2    55  MET55      -0.2867
     69  CB       183.0320   94.1030   29.1650 C.3    55  MET55       0.0387
     70  CG       183.1490   93.8540   27.6620 C.3    55  MET55       0.0595
     71  SD       182.4430   95.1740   26.6440 S.3    55  MET55      -0.1393
     72  CE       183.2800   96.6440   27.2760 C.3    55  MET55       0.0692
     73  N        185.4480   90.9240   29.8980 N.3    82  MET82      -0.1245
     74  CA       184.2240   90.2530   30.3230 C.3    82  MET82       0.1570
     75  C        184.5360   89.0180   31.1610 C.2    82  MET82       0.2261
     76  O        183.9450   88.8150   32.2340 O.2    82  MET82      -0.2867
     77  CB       183.4070   89.8990   29.0830 C.3    82  MET82       0.0387
     78  CG       182.1180   89.1250   29.3530 C.3    82  MET82       0.0595
     79  SD       181.2830   88.7160   27.7940 S.3    82  MET82      -0.1393
     80  CE       182.4160   87.5160   27.1180 C.3    82  MET82       0.0692
     81  N        186.2090   89.9910   34.5530 N.3    85  ASN85      -0.1225
     82  CA       185.2080   90.5430   35.4670 C.3    85  ASN85       0.1785
     83  C        184.4300   89.4320   36.1630 C.2    85  ASN85       0.2597
     84  O        184.2100   89.4870   37.3760 O.2    85  ASN85      -0.2718
     85  CB       184.2300   91.4540   34.7220 C.3    85  ASN85       0.1169
     86  CG       184.8420   92.7930   34.3280 C.2    85  ASN85       0.2627
     87  OD1      185.8830   93.2050   34.8450 O.2    85  ASN85      -0.2716
     88  ND2      184.1950   93.4670   33.3900 N.am   85  ASN85      -0.0877
     89  N        183.9960   88.4180   35.4020 N.am   86  ALA86      -0.1979
     90  CA       183.1750   87.3550   35.9830 C.3    86  ALA86       0.1597
     91  C        183.9800   86.4920   36.9430 C.2    86  ALA86       0.2287
     92  O        183.4770   86.0940   38.0000 O.2    86  ALA86      -0.2864
     93  CB       182.5760   86.4890   34.8740 C.3    86  ALA86       0.0319
     94  N        184.3660   88.7540   40.2600 N.3    89  TYR89      -0.1227
     95  CA       183.2460   88.9660   41.1660 C.3    89  TYR89       0.1736
     96  C        182.7540   87.6580   41.7720 C.2    89  TYR89       0.2595
     97  O        182.4200   87.6020   42.9620 O.2    89  TYR89      -0.2718
     98  CB       182.0870   89.6630   40.4540 C.3    89  TYR89       0.0548
     99  CG       180.9780   89.9210   41.4340 C.ar   89  TYR89      -0.0200
    100  CD1      181.0280   91.0140   42.2760 C.ar   89  TYR89      -0.0009
    101  CD2      179.9180   89.0320   41.5710 C.ar   89  TYR89      -0.0009
    102  CE1      180.0450   91.2460   43.2050 C.ar   89  TYR89       0.0417
    103  CE2      178.9230   89.2560   42.5110 C.ar   89  TYR89       0.0417
    104  CZ       179.0020   90.3720   43.3240 C.ar   89  TYR89       0.1957
    105  OH       178.0420   90.6310   44.2680 O.3    89  TYR89      -0.2866
    106  N        182.6990   86.6040   40.9760 N.am   90  ASN90      -0.1974
    107  CA       182.0640   85.3650   41.3980 C.3    90  ASN90       0.1688
    108  C        183.0600   84.4280   42.0630 C.2    90  ASN90       0.2292
    109  O        184.2570   84.4270   41.7490 O.2    90  ASN90      -0.2864
    110  CB       181.4110   84.6810   40.1990 C.3    90  ASN90       0.1181
    111  CG       180.3540   85.5540   39.5570 C.2    90  ASN90       0.2629
    112  OD1      179.2260   85.6400   40.0450 O.2    90  ASN90      -0.2716
    113  ND2      180.7140   86.2200   38.4590 N.am   90  ASN90      -0.0877
    114  N        178.0980   78.9980   39.7670 N.3    95  ARG95      -0.1231
    115  CA       177.6340   78.6940   38.4150 C.3    95  ARG95       0.1694
    116  C        178.2990   79.6000   37.3850 C.2    95  ARG95       0.2591
    117  O        178.8540   79.1260   36.3880 O.2    95  ARG95      -0.2718
    118  CB       176.1040   78.8350   38.3560 C.3    95  ARG95       0.0321
    119  CG       175.4960   78.9130   36.9490 C.3    95  ARG95       0.0489
    120  CD       173.9770   79.2120   36.9590 C.3    95  ARG95       0.2205
    121  NE       173.6610   80.6330   37.1350 N.pl3  95  ARG95      -0.0865
    122  CZ       172.8340   81.1190   38.0580 C.cat  95  ARG95       0.5346
    123  NH1      172.2200   80.2990   38.8960 N.pl3  95  ARG95       0.1354
    124  NH2      172.6010   82.4320   38.1360 N.pl3  95  ARG95       0.1354
    125  N        178.2580   80.9120   37.6180 N.am   96  VAL96      -0.1980
    126  CA       178.7410   81.8540   36.6100 C.3    96  VAL96       0.1595
    127  C        180.2520   81.7430   36.4230 C.2    96  VAL96       0.2287
    128  O        180.7570   81.8960   35.3030 O.2    96  VAL96      -0.2864
    129  CB       178.3130   83.2860   36.9830 C.3    96  VAL96       0.0276
    130  CG1      178.9550   84.2970   36.0610 C.3    96  VAL96       0.0022
    131  CG2      176.7940   83.4190   36.9270 C.3    96  VAL96       0.0022
@<TRIPOS>BOND
     1    71    72    1
     2    71    70    1
     3    80    79    1
     4    11    10    2
     5    70    69    1
     6    79    78    1
     7    10     9    1
     8    12     9    1
     9    12    13    1
    10    77    78    1
    11    77    74    1
    12    69    66    1
    13     9     8    1
    14    67    66    1
    15    67    68    2
    16    66    65    1
    17    73    74    1
    18     8     3   am
    19    13    14   ar
    20    13    15   ar
    21    74    75    1
    22    14    16   ar
    23    15    17   ar
    24     1     7    1
    25     1     2    1
    26    75    76    2
    27     3     4    2
    28     3     2    1
    29     7     6    1
    30    16    18   ar
    31    17    18   ar
    32     2     5    1
    33     6     5    1
    34    19    20    1
    35    88    86   am
    36    86    85    1
    37    86    87    2
    38    20    21    1
    39    20    23    1
    40    81    82    1
    41    85    82    1
    42    93    90    1
    43    25    23    1
    44    22    21    2
    45   128   127    2
    46    89    90    1
    47    89    83   am
    48    23    24    1
    49    82    83    1
    50    64    63    1
    51    90    91    1
    52   130   129    1
    53    83    84    2
    54   117   116    2
    55   127   126    1
    56   126   129    1
    57   126   125    1
    58   131   129    1
    59    91    92    2
    60   119   120    1
    61   119   118    1
    62   120   121    1
    63    63    62   ar
    64    63    61   ar
    65   121   122    2
    66    62    60   ar
    67   116   125   am
    68   116   115    1
    69    32    31    1
    70    33    31    1
    71   122   124    1
    72   122   123    1
    73    31    30    1
    74    61    59   ar
    75   118   115    1
    76    60    58   ar
    77   115   114    1
    78   113   111   am
    79    59    58   ar
    80    58    57    1
    81   111   112    2
    82   111   110    1
    83    30    27    1
    84    45    43    1
    85    26    27    1
    86   110   107    1
    87    94    95    1
    88    98    95    1
    89    98    99    1
    90    27    28    1
    91    56    55    2
    92    57    54    1
    93   106   107    1
    94   106    96   am
    95    55    54    1
    96    95    96    1
    97    43    42    1
    98   107   108    1
    99    99   101   ar
   100    99   100   ar
   101   101   103   ar
   102    54    53    1
   103   109   108    2
   104    96    97    2
   105    28    29    2
   106    28    34   am
   107    42    44    1
   108    42    39    1
   109   100   102   ar
   110   103   104   ar
   111    34    35    1
   112   102   104   ar
   113   104   105    1
   114    38    39    1
   115    38    36   am
   116    39    40    1
   117    41    40    2
   118    35    36    1
   119    40    46   am
   120    36    37    2
   121    49    48    2
   122    46    52    1
   123    46    47    1
   124    48    47    1
   125    52    51    1
   126    47    50    1
   127    51    50    1
