@<TRIPOS>MOLECULE
tmp/5eihA00.pdb
 203 202 0 0 0
SMALL
GASTEIGER

@<TRIPOS>ATOM
      1  N         35.0960   28.0790   16.3690 N.3    74  ASP74      -0.1239
      2  CA        34.4890   28.8080   15.2430 C.3    74  ASP74       0.1674
      3  C         34.3350   30.2710   15.5950 C.2    74  ASP74       0.2266
      4  O         33.7510   30.6010   16.6250 O.2    74  ASP74      -0.2867
      5  CB        33.1250   28.2070   14.8700 C.3    74  ASP74       0.1410
      6  CG        32.5010   28.6670   13.5620 C.2    74  ASP74       0.3668
      7  OD1       32.4740   29.8980   13.3120 O.co2  74  ASP74      -0.2456
      8  OD2       31.9120   27.8180   12.8570 O.co2  74  ASP74      -0.2456
      9  N         23.7170   30.5380   16.2600 N.3    82  GLY82      -0.1210
     10  CA        23.8200   29.4350   15.3020 C.3    82  GLY82       0.1956
     11  C         25.1430   28.6910   15.3280 C.2    82  GLY82       0.2612
     12  O         25.1690   27.4600   15.2690 O.2    82  GLY82      -0.2717
     13  N         26.2470   29.4370   15.4490 N.am   83  THR83      -0.1952
     14  CA        27.5890   28.8660   15.5270 C.3    83  THR83       0.1897
     15  C         28.0740   28.7310   16.9770 C.2    83  THR83       0.2313
     16  O         28.5360   27.6540   17.3670 O.2    83  THR83      -0.2863
     17  CB        28.5770   29.6260   14.6320 C.3    83  THR83       0.1794
     18  OG1       28.6250   31.0010   15.0010 O.3    83  THR83      -0.2208
     19  CG2       28.2420   29.4820   13.1540 C.3    83  THR83       0.0378
     20  N         27.6020   25.6210   19.6790 N.3    86  TRP86      -0.1241
     21  CA        28.3850   24.4150   19.4890 C.3    86  TRP86       0.1605
     22  C         29.8230   24.6210   19.9530 C.2    86  TRP86       0.2264
     23  O         30.5860   23.6540   20.0550 O.2    86  TRP86      -0.2867
     24  CB        28.3610   24.0360   17.9970 C.3    86  TRP86       0.0550
     25  CG        26.9860   23.8790   17.4420 C.ar   86  TRP86       0.0003
     26  CD1       26.3410   24.7430   16.6120 C.ar   86  TRP86       0.0946
     27  CD2       26.0360   22.8480   17.7700 C.ar   86  TRP86       0.0152
     28  NE1       25.0650   24.2860   16.3510 N.ar   86  TRP86      -0.2442
     29  CE2       24.8500   23.1280   17.0560 C.ar   86  TRP86       0.0810
     30  CE3       26.0900   21.6890   18.5640 C.ar   86  TRP86       0.0012
     31  CZ2       23.7460   22.2690   17.0710 C.ar   86  TRP86       0.0191
     32  CZ3       24.9850   20.8550   18.6070 C.ar   86  TRP86       0.0001
     33  CH2       23.8390   21.1340   17.8450 C.ar   86  TRP86       0.0015
     34  N         28.9780   14.8270   18.5230 N.3   120  GLY120     -0.1210
     35  CA        29.5620   15.0250   17.1990 C.3   120  GLY120      0.1956
     36  C         30.4720   16.2570   17.1660 C.2   120  GLY120      0.2612
     37  O         30.7700   16.8550   18.2130 O.2   120  GLY120     -0.2717
     38  N         30.8730   16.6660   15.9590 N.am  121  GLY121     -0.1942
     39  CA        31.7490   17.8150   15.7180 C.3   121  GLY121      0.2014
     40  C         32.9090   17.4770   14.8100 C.2   121  GLY121      0.2639
     41  O         34.0370   17.9360   15.0390 O.2   121  GLY121     -0.2714
     42  N         32.6100   16.6410   13.8070 N.am  122  GLY122     -0.1954
     43  CA        33.4930   16.1560   12.7560 C.3   122  GLY122      0.1869
     44  C         34.7710   15.5160   13.2360 C.2   122  GLY122      0.2309
     45  O         35.7490   15.4960   12.4860 O.2   122  GLY122     -0.2863
     46  N         36.7310   16.8070   15.2840 N.3   124  TYR124     -0.1227
     47  CA        37.6680   17.9060   15.5390 C.3   124  TYR124      0.1736
     48  C         37.1610   18.8600   16.6240 C.2   124  TYR124      0.2596
     49  O         37.8920   19.7440   17.0450 O.2   124  TYR124     -0.2718
     50  CB        37.9960   18.6840   14.2410 C.3   124  TYR124      0.0548
     51  CG        36.8880   19.5800   13.7280 C.ar  124  TYR124     -0.0200
     52  CD1       36.8000   20.9120   14.1280 C.ar  124  TYR124     -0.0009
     53  CD2       35.9740   19.1200   12.7800 C.ar  124  TYR124     -0.0009
     54  CE1       35.7970   21.7460   13.6470 C.ar  124  TYR124      0.0417
     55  CE2       34.9700   19.9520   12.2820 C.ar  124  TYR124      0.0417
     56  CZ        34.8750   21.2580   12.7360 C.ar  124  TYR124      0.1957
     57  OH        33.8780   22.0790   12.2860 O.3   124  TYR124     -0.2866
     58  N         35.9110   18.7030   17.0470 N.am  125  SER125     -0.1938
     59  CA        35.3040   19.5930   18.0120 C.3   125  SER125      0.2055
     60  C         34.2420   18.8660   18.8000 C.2   125  SER125      0.2643
     61  O         33.9630   17.6920   18.5310 O.2   125  SER125     -0.2714
     62  CB        34.6980   20.8040   17.2940 C.3   125  SER125      0.2130
     63  OG        33.6470   20.4160   16.4230 O.3   125  SER125     -0.2179
     64  N         33.6640   19.5790   19.7580 N.am  126  GLY126     -0.1954
     65  CA        32.6130   19.0810   20.6380 C.3   126  GLY126      0.1869
     66  C         33.0250   19.0230   22.0990 C.2   126  GLY126      0.2309
     67  O         34.2170   19.0940   22.4280 O.2   126  GLY126     -0.2863
     68  N         28.0210   20.9860   26.6610 N.3   130  LEU130     -0.1245
     69  CA        27.1560   21.8850   25.8950 C.3   130  LEU130      0.1561
     70  C         25.7520   21.8380   26.4190 C.2   130  LEU130      0.2260
     71  O         25.3110   20.7940   26.8710 O.2   130  LEU130     -0.2867
     72  CB        27.1650   21.5470   24.3890 C.3   130  LEU130      0.0270
     73  CG        28.4960   21.5400   23.5980 C.3   130  LEU130      0.0019
     74  CD1       28.2170   21.4580   22.0840 C.3   130  LEU130      0.0001
     75  CD2       29.3940   22.7770   23.9190 C.3   130  LEU130      0.0001
     76  N         23.2010   19.0950   25.3800 N.3   133  TYR133     -0.1241
     77  CA        23.4910   17.7350   25.8540 C.3   133  TYR133      0.1605
     78  C         23.1760   17.5780   27.3520 C.2   133  TYR133      0.2264
     79  O         23.6500   16.6210   27.9600 O.2   133  TYR133     -0.2867
     80  CB        24.9610   17.3450   25.5800 C.3   133  TYR133      0.0534
     81  CG        25.4380   17.5530   24.1710 C.ar  133  TYR133     -0.0201
     82  CD1       24.5730   17.4020   23.0890 C.ar  133  TYR133     -0.0009
     83  CD2       26.7730   17.8260   23.9030 C.ar  133  TYR133     -0.0009
     84  CE1       25.0080   17.6000   21.7810 C.ar  133  TYR133      0.0417
     85  CE2       27.2260   18.0190   22.5910 C.ar  133  TYR133      0.0417
     86  CZ        26.3380   17.8970   21.5350 C.ar  133  TYR133      0.1957
     87  OH        26.7690   18.0840   20.2460 O.3   133  TYR133     -0.2866
     88  N         25.2610   11.6550   17.8080 N.3   202  GLU202     -0.1231
     89  CA        24.8830   12.3460   16.5980 C.3   202  GLU202      0.1699
     90  C         26.1170   12.7490   15.8010 C.2   202  GLU202      0.2592
     91  O         27.1270   13.1720   16.3770 O.2   202  GLU202     -0.2718
     92  CB        23.9640   13.5270   16.9250 C.3   202  GLU202      0.0402
     93  CG        23.3840   14.2640   15.7350 C.3   202  GLU202      0.1161
     94  CD        24.2370   15.4140   15.2260 C.2   202  GLU202      0.3649
     95  OE1       25.2040   15.8020   15.9140 O.co2 202  GLU202     -0.2457
     96  OE2       23.9390   15.9290   14.1280 O.co2 202  GLU202     -0.2457
     97  N         26.0280   12.6080   14.4560 N.am  203  SER203     -0.1952
     98  CA        27.0650   12.9490   13.4960 C.3   203  SER203      0.1924
     99  C         28.3640   12.1610   13.7590 C.2   203  SER203      0.2314
    100  O         28.3000   10.9270   13.6840 O.2   203  SER203     -0.2863
    101  CB        27.2630   14.4470   13.4890 C.3   203  SER203      0.2116
    102  OG        27.5520   14.8140   12.1630 O.3   203  SER203     -0.2180
    103  N         37.0310   16.0170    7.2130 N.3   292  PHE292     -0.1241
    104  CA        37.7590   16.3840    8.4060 C.3   292  PHE292      0.1605
    105  C         39.1440   15.7450    8.3860 C.2   292  PHE292      0.2264
    106  O         39.2870   14.6200    7.9000 O.2   292  PHE292     -0.2867
    107  CB        36.9040   16.0420    9.6450 C.3   292  PHE292      0.0534
    108  CG        35.4280   16.3500    9.4090 C.ar  292  PHE292     -0.0203
    109  CD1       34.9680   17.6790    9.3460 C.ar  292  PHE292     -0.0042
    110  CD2       34.5140   15.3260    9.1650 C.ar  292  PHE292     -0.0042
    111  CE1       33.6150   17.9650    9.1070 C.ar  292  PHE292     -0.0003
    112  CE2       33.1610   15.6200    8.9060 C.ar  292  PHE292     -0.0003
    113  CZ        32.7220   16.9350    8.8930 C.ar  292  PHE292     -0.0000
    114  N         24.0480   23.2290    6.3170 N.3   332  TYR332     -0.1227
    115  CA        25.1110   23.8950    7.0820 C.3   332  TYR332      0.1736
    116  C         26.4530   23.9780    6.3240 C.2   332  TYR332      0.2595
    117  O         27.0810   25.0340    6.2810 O.2   332  TYR332     -0.2718
    118  CB        25.3220   23.2440    8.4850 C.3   332  TYR332      0.0548
    119  CG        26.5990   23.7130    9.1670 C.ar  332  TYR332     -0.0200
    120  CD1       26.8240   25.0650    9.4170 C.ar  332  TYR332     -0.0009
    121  CD2       27.6310   22.8220    9.4530 C.ar  332  TYR332     -0.0009
    122  CE1       28.0320   25.5180    9.9530 C.ar  332  TYR332      0.0417
    123  CE2       28.8470   23.2650    9.9830 C.ar  332  TYR332      0.0417
    124  CZ        29.0320   24.6180   10.2500 C.ar  332  TYR332      0.1957
    125  OH        30.1760   25.1370   10.8240 O.3   332  TYR332     -0.2866
    126  N         26.8900   22.8450    5.7620 N.am  333  PHE333     -0.1976
    127  CA        28.1820   22.6780    5.1020 C.3   333  PHE333      0.1639
    128  C         28.3850   23.5340    3.8640 C.2   333  PHE333      0.2290
    129  O         29.5230   23.7900    3.4830 O.2   333  PHE333     -0.2864
    130  CB        28.4090   21.2060    4.8080 C.3   333  PHE333      0.0560
    131  CG        28.4040   20.4240    6.1120 C.ar  333  PHE333     -0.0200
    132  CD1       29.5530   20.3410    6.9000 C.ar  333  PHE333     -0.0042
    133  CD2       27.2290   19.8390    6.5910 C.ar  333  PHE333     -0.0042
    134  CE1       29.5310   19.6670    8.1220 C.ar  333  PHE333     -0.0003
    135  CE2       27.2170   19.1470    7.8070 C.ar  333  PHE333     -0.0003
    136  CZ        28.3710   19.0510    8.5500 C.ar  333  PHE333     -0.0000
    137  N         29.8290   27.1470    4.6040 N.3   336  TYR336     -0.1241
    138  CA        31.1920   26.9430    5.0010 C.3   336  TYR336      0.1605
    139  C         32.1580   27.1720    3.8000 C.2   336  TYR336      0.2264
    140  O         32.8650   28.1790    3.8000 O.2   336  TYR336     -0.2867
    141  CB        31.3090   25.5360    5.6360 C.3   336  TYR336      0.0534
    142  CG        31.8340   25.4730    7.0610 C.ar  336  TYR336     -0.0201
    143  CD1       32.2440   26.6280    7.7340 C.ar  336  TYR336     -0.0009
    144  CD2       32.0030   24.2470    7.7090 C.ar  336  TYR336     -0.0009
    145  CE1       32.7940   26.5660    9.0200 C.ar  336  TYR336      0.0417
    146  CE2       32.5410   24.1720    9.0000 C.ar  336  TYR336      0.0417
    147  CZ        32.9550   25.3350    9.6440 C.ar  336  TYR336      0.1957
    148  OH        33.4960   25.2730   10.9140 O.3   336  TYR336     -0.2866
    149  N         19.3550   30.1770   11.9590 N.3   434  TRP434     -0.1241
    150  CA        19.8920   29.9490   10.6200 C.3   434  TRP434      0.1605
    151  C         18.7730   30.3440    9.6530 C.2   434  TRP434      0.2264
    152  O         17.6150   30.3590   10.0870 O.2   434  TRP434     -0.2867
    153  CB        20.2520   28.4840   10.4430 C.3   434  TRP434      0.0550
    154  CG        21.4790   28.0960   11.2030 C.ar  434  TRP434      0.0003
    155  CD1       21.5380   27.4270   12.3960 C.ar  434  TRP434      0.0946
    156  CD2       22.8290   28.4370   10.8660 C.ar  434  TRP434      0.0152
    157  NE1       22.8490   27.3020   12.8050 N.ar  434  TRP434     -0.2442
    158  CE2       23.6630   27.9080   11.8800 C.ar  434  TRP434      0.0810
    159  CE3       23.4180   29.1500    9.8030 C.ar  434  TRP434      0.0012
    160  CZ2       25.0550   28.0440   11.8410 C.ar  434  TRP434      0.0191
    161  CZ3       24.7950   29.2640    9.7540 C.ar  434  TRP434      0.0001
    162  CH2       25.5970   28.7320   10.7720 C.ar  434  TRP434      0.0015
    163  N         18.7390   21.9450    9.8160 N.3   441  PRO441     -0.2102
    164  CA        20.1370   21.5260    9.6280 C.3   441  PRO441      0.1504
    165  C         20.5750   20.4450   10.6070 C.2   441  PRO441      0.2576
    166  O         19.8650   20.1760   11.5820 O.2   441  PRO441     -0.2718
    167  CB        20.9410   22.8180    9.8370 C.3   441  PRO441      0.0282
    168  CG        19.9470   23.8770   10.1390 C.3   441  PRO441      0.0208
    169  CD        18.6680   23.2450   10.5010 C.3   441  PRO441      0.0893
    170  N         21.7610   19.8430   10.3430 N.am  442  HIS442     -0.1962
    171  CA        22.4480   18.8110   11.1280 C.3   442  HIS442      0.1787
    172  C         22.4710   19.2060   12.6210 C.2   442  HIS442      0.2621
    173  O         22.8870   20.3180   12.9130 O.2   442  HIS442     -0.2715
    174  CB        23.9110   18.7760   10.6280 C.3   442  HIS442      0.0785
    175  CG        24.5110   17.4160   10.4300 C.ar  442  HIS442      0.0821
    176  ND1       24.6100   16.8510    9.1690 N.ar  442  HIS442     -0.2267
    177  CD2       25.1330   16.6070   11.3170 C.ar  442  HIS442      0.1154
    178  CE1       25.2290   15.6930    9.3470 C.ar  442  HIS442      0.1986
    179  NE2       25.5310   15.4890   10.6230 N.ar  442  HIS442     -0.2212
    180  N         22.0470   18.3290   13.5190 N.am  443  GLY443     -0.1940
    181  CA        22.1020   18.5460   14.9540 C.3   443  GLY443      0.2014
    182  C         20.9420   19.2620   15.5780 C.2   443  GLY443      0.2638
    183  O         20.9080   19.3750   16.8070 O.2   443  GLY443     -0.2714
    184  N         19.9730   19.7520   14.7780 N.am  444  TYR444     -0.1973
    185  CA        18.8790   20.5350   15.3800 C.3   444  TYR444      0.1639
    186  C         17.6530   19.7010   15.8450 C.2   444  TYR444      0.2290
    187  O         16.5880   20.2540   16.1390 O.2   444  TYR444     -0.2864
    188  CB        18.4970   21.7130   14.4880 C.3   444  TYR444      0.0560
    189  CG        19.5180   22.8190   14.6720 C.ar  444  TYR444     -0.0198
    190  CD1       19.4720   23.6590   15.7870 C.ar  444  TYR444     -0.0009
    191  CD2       20.6050   22.9420   13.8090 C.ar  444  TYR444     -0.0009
    192  CE1       20.4310   24.6510   15.9860 C.ar  444  TYR444      0.0417
    193  CE2       21.5880   23.9120   14.0160 C.ar  444  TYR444      0.0417
    194  CZ        21.4850   24.7750   15.0960 C.ar  444  TYR444      0.1957
    195  OH        22.4440   25.7340   15.3160 O.3   444  TYR444     -0.2866
    196  N         18.6350   17.3430   18.3790 N.3   446  ILE446     -0.1245
    197  CA        19.2610   17.0200   19.6550 C.3   446  ILE446      0.1561
    198  C         18.5280   17.6670   20.8150 C.2   446  ILE446      0.2260
    199  O         18.1670   16.9480   21.7610 O.2   446  ILE446     -0.2867
    200  CB        20.7810   17.2980   19.6510 C.3   446  ILE446      0.0252
    201  CG1       21.5010   16.5110   18.5040 C.3   446  ILE446      0.0019
    202  CG2       21.3950   16.9520   21.0080 C.3   446  ILE446      0.0019
    203  CD1       22.9730   16.9730   18.2210 C.3   446  ILE446      0.0001
@<TRIPOS>BOND
     1   129   128    2
     2   140   139    2
     3   139   138    1
     4   128   127    1
     5   137   138    1
     6   130   127    1
     7   130   131    1
     8   138   141    1
     9   127   126    1
    10   141   142    1
    11   126   116   am
    12   131   133   ar
    13   131   132   ar
    14   117   116    2
    15   114   115    1
    16   116   115    1
    17   133   135   ar
    18   132   134   ar
    19   142   144   ar
    20   142   143   ar
    21   115   118    1
    22   103   104    1
    23   144   146   ar
    24   143   145   ar
    25   135   136   ar
    26   106   105    2
    27   134   136   ar
    28   105   104    1
    29   104   107    1
    30   118   119    1
    31   113   112   ar
    32   113   111   ar
    33   112   110   ar
    34   146   147   ar
    35   145   147   ar
    36   111   109   ar
    37   110   108   ar
    38   119   120   ar
    39   119   121   ar
    40   176   178   ar
    41   176   175   ar
    42   109   108   ar
    43   178   179   ar
    44   108   107    1
    45   120   122   ar
    46   121   123   ar
    47   164   163    1
    48   164   167    1
    49   164   165    1
    50   147   148    1
    51   151   152    2
    52   151   150    1
    53   161   159   ar
    54   161   162   ar
    55   159   156   ar
    56   163   169    1
    57   167   168    1
    58   122   124   ar
    59   123   124   ar
    60   168   169    1
    61   124   125    1
    62   170   165   am
    63   170   171    1
    64   175   174    1
    65   175   177   ar
    66   153   150    1
    67   153   154    1
    68   165   166    2
    69   150   149    1
    70   179   177   ar
    71   174   171    1
    72   162   160   ar
    73   156   154   ar
    74   156   158   ar
    75   171   172    1
    76   154   155   ar
    77   160   158   ar
    78   158   157   ar
    79   102   101    1
    80    55    56   ar
    81    55    53   ar
    82    57    56    1
    83   155   157   ar
    84    45    44    2
    85   172   173    2
    86   172   180   am
    87    56    54   ar
    88    43    44    1
    89    43    42    1
    90    53    51   ar
    91     8     6   ar
    92    19    17    1
    93     7     6   ar
    94   101    98    1
    95    98    99    1
    96    98    97    1
    97   180   181    1
    98     6     5    1
    99    54    52   ar
   100   100    99    2
   101    51    52   ar
   102    51    50    1
   103    42    40   am
   104   191   193   ar
   105   191   189   ar
   106   193   194   ar
   107    96    94   ar
   108    50    47    1
   109    97    90   am
   110   188   189    1
   111   188   185    1
   112    17    18    1
   113    17    14    1
   114   189   190   ar
   115   184   185    1
   116   184   182   am
   117    40    41    2
   118    40    39    1
   119     5     2    1
   120   181   182    1
   121   194   195    1
   122   194   192   ar
   123    94    93    1
   124    94    95   ar
   125     2     3    1
   126     2     1    1
   127    12    11    2
   128    46    47    1
   129    10    11    1
   130    10     9    1
   131    11    13   am
   132   185   186    1
   133    13    14    1
   134    14    15    1
   135    47    48    1
   136   182   183    2
   137     3     4    2
   138    39    38    1
   139    93    92    1
   140   190   192   ar
   141    90    91    2
   142    90    89    1
   143   186   187    2
   144    38    36   am
   145    28    26   ar
   146    28    29   ar
   147    63    62    1
   148    89    92    1
   149    89    88    1
   150    26    25   ar
   151    48    49    2
   152    48    58   am
   153    15    16    2
   154    58    59    1
   155    29    31   ar
   156    29    27   ar
   157    31    33   ar
   158    36    35    1
   159    36    37    2
   160    35    34    1
   161    62    59    1
   162    25    27   ar
   163    25    24    1
   164    27    30   ar
   165    33    32   ar
   166    24    21    1
   167    59    60    1
   168   203   201    1
   169   196   197    1
   170   201   200    1
   171    61    60    2
   172    30    32   ar
   173    60    64   am
   174    21    20    1
   175    21    22    1
   176   200   197    1
   177   200   202    1
   178   197   198    1
   179    64    65    1
   180    22    23    2
   181    87    86    1
   182    65    66    1
   183   198   199    2
   184    86    84   ar
   185    86    85   ar
   186    84    82   ar
   187    74    73    1
   188    66    67    2
   189    85    83   ar
   190    82    81   ar
   191    73    75    1
   192    73    72    1
   193    83    81   ar
   194    81    80    1
   195    72    69    1
   196    76    77    1
   197    80    77    1
   198    77    78    1
   199    69    70    1
   200    69    68    1
   201    70    71    2
   202    78    79    2
