@<TRIPOS>MOLECULE
tmp/5eihA01.pdb
 106 107 0 0 0
SMALL
GASTEIGER

@<TRIPOS>ATOM
      1  N         39.4860   23.4370   17.6410 N.3    72  TYR72      -0.1241
      2  CA        39.2410   24.6420   16.8570 C.3    72  TYR72       0.1605
      3  C         37.9580   25.3070   17.3650 C.2    72  TYR72       0.2264
      4  O         36.9550   24.6260   17.5770 O.2    72  TYR72      -0.2867
      5  CB        39.1390   24.2810   15.3600 C.3    72  TYR72       0.0534
      6  CG        38.6950   25.4140   14.4520 C.ar   72  TYR72      -0.0201
      7  CD1       37.3420   25.6730   14.2380 C.ar   72  TYR72      -0.0009
      8  CD2       39.6260   26.1860   13.7570 C.ar   72  TYR72      -0.0009
      9  CE1       36.9260   26.7040   13.4020 C.ar   72  TYR72       0.0417
     10  CE2       39.2200   27.2030   12.8920 C.ar   72  TYR72       0.0417
     11  CZ        37.8670   27.4700   12.7300 C.ar   72  TYR72       0.1957
     12  OH        37.4390   28.4900   11.9080 O.3    72  TYR72      -0.2866
     13  N         46.1270   25.2960   14.7220 N.3   278  ASP278     -0.1239
     14  CA        46.3210   26.3130   13.6770 C.3   278  ASP278      0.1674
     15  C         46.5660   25.7350   12.2700 C.2   278  ASP278      0.2266
     16  O         46.2330   26.4030   11.2810 O.2   278  ASP278     -0.2867
     17  CB        47.4440   27.3020   14.0540 C.3   278  ASP278      0.1410
     18  CG        47.1420   28.3400   15.1500 C.2   278  ASP278      0.3668
     19  OD1       45.9520   28.4830   15.5350 O.co2 278  ASP278     -0.2456
     20  OD2       48.1050   29.0110   15.6210 O.co2 278  ASP278     -0.2456
     21  N         43.5750   22.1290    9.5200 N.3   281  TRP281     -0.1227
     22  CA        42.8070   22.2020    8.2890 C.3   281  TRP281      0.1737
     23  C         43.6410   22.2070    7.0080 C.2   281  TRP281      0.2595
     24  O         43.1100   21.9170    5.9360 O.2   281  TRP281     -0.2718
     25  CB        41.8850   23.4180    8.3600 C.3   281  TRP281      0.0564
     26  CG        40.7680   23.2260    9.3440 C.ar  281  TRP281      0.0003
     27  CD1       40.7110   23.6790   10.6400 C.ar  281  TRP281      0.0946
     28  CD2       39.5840   22.4310    9.1430 C.ar  281  TRP281      0.0152
     29  NE1       39.5430   23.2490   11.2410 N.ar  281  TRP281     -0.2442
     30  CE2       38.8300   22.4890   10.3420 C.ar  281  TRP281      0.0810
     31  CE3       39.0690   21.6990    8.0470 C.ar  281  TRP281      0.0012
     32  CZ2       37.5760   21.8800   10.4610 C.ar  281  TRP281      0.0191
     33  CZ3       37.8280   21.0850    8.1760 C.ar  281  TRP281      0.0001
     34  CH2       37.0930   21.1880    9.3630 C.ar  281  TRP281      0.0015
     35  N         44.9370   22.4930    7.1130 N.am  282  HIS282     -0.1975
     36  CA        45.8330   22.5820    5.9730 C.3   282  HIS282      0.1656
     37  C         46.3310   21.2380    5.4080 C.2   282  HIS282      0.2291
     38  O         47.1480   21.2560    4.4760 O.2   282  HIS282     -0.2864
     39  CB        47.0180   23.4910    6.3080 C.3   282  HIS282      0.0771
     40  CG        46.6250   24.8690    6.7250 C.ar  282  HIS282      0.0820
     41  ND1       45.7800   25.6610    5.9540 N.ar  282  HIS282     -0.2267
     42  CD2       46.9210   25.5260    7.8600 C.ar  282  HIS282      0.1154
     43  CE1       45.6200   26.7800    6.6370 C.ar  282  HIS282      0.1986
     44  NE2       46.2770   26.7390    7.7950 N.ar  282  HIS282     -0.2212
     45  N         44.0750   18.5690    4.3410 N.3   284  LEU284     -0.1231
     46  CA        43.0490   17.9240    3.4970 C.3   284  LEU284      0.1678
     47  C         43.5310   17.8860    2.0550 C.2   284  LEU284      0.2434
     48  O         44.1460   18.8560    1.6070 O.2   284  LEU284     -0.2733
     49  CB        41.6790   18.6170    3.5930 C.3   284  LEU284      0.0284
     50  CG        40.9440   18.4620    4.9120 C.3   284  LEU284      0.0019
     51  CD1       39.8890   19.5360    5.0520 C.3   284  LEU284      0.0001
     52  CD2       40.3470   17.0600    5.0550 C.3   284  LEU284      0.0001
     53  N         43.3470   16.7540    1.3510 N.am  285  PRO285     -0.2718
     54  CA        43.9420   16.6120    0.0140 C.3   285  PRO285      0.1535
     55  C         43.3580   17.4470   -1.1110 C.2   285  PRO285      0.2598
     56  O         44.0160   17.5990   -2.1300 O.2   285  PRO285     -0.2715
     57  CB        43.7870   15.1240   -0.2820 C.3   285  PRO285      0.0310
     58  CG        42.6820   14.6790    0.5510 C.3   285  PRO285      0.0237
     59  CD        42.7020   15.5030    1.7840 C.3   285  PRO285      0.0939
     60  N         42.1280   17.9450   -0.9570 N.am  286  GLN286     -0.1964
     61  CA        41.4090   18.7300   -1.9710 C.3   286  GLN286      0.1733
     62  C         40.5580   19.7960   -1.2570 C.2   286  GLN286      0.2619
     63  O         40.2450   19.6660   -0.0530 O.2   286  GLN286     -0.2715
     64  CB        40.4230   17.8360   -2.7920 C.3   286  GLN286      0.0408
     65  CG        40.9330   16.4960   -3.3340 C.3   286  GLN286      0.0908
     66  CD        40.6410   15.3400   -2.4130 C.2   286  GLN286      0.2608
     67  OE1       39.8230   15.4360   -1.4950 O.2   286  GLN286     -0.2717
     68  NE2       41.2970   14.2030   -2.6270 N.am  286  GLN286     -0.0878
     69  N         40.1140   20.8130   -2.0280 N.am  287  GLU287     -0.1918
     70  CA        39.1900   21.8290   -1.5290 C.3   287  GLU287      0.1949
     71  C         37.8890   21.0190   -1.3240 C.2   287  GLU287      0.2659
     72  O         37.4810   20.2890   -2.2410 O.2   287  GLU287     -0.2711
     73  CB        39.0380   22.9580   -2.5580 C.2   287  GLU287      0.0111
     74  CG        38.1030   24.0840   -2.1520 C.2   287  GLU287      0.0838
     75  CD        37.7270   25.0540   -3.2590 C.2   287  GLU287      0.3877
     76  OE1       38.2440   24.9080   -4.3930 O.co2 287  GLU287     -0.2406
     77  OE2       36.9190   25.9740   -2.9850 O.co2 287  GLU287     -0.2406
     78  N         37.3560   21.0070   -0.0950 N.am  288  SER288     -0.1947
     79  CA        36.1960   20.1790    0.2280 C.3   288  SER288      0.1924
     80  C         35.3360   20.7060    1.3570 C.2   288  SER288      0.2314
     81  O         35.7320   21.6360    2.0610 O.2   288  SER288     -0.2863
     82  CB        36.6370   18.7480    0.5620 C.3   288  SER288      0.2116
     83  OG        37.7830   18.6450    1.3870 O.3   288  SER288     -0.2180
     84  N         37.0310   16.0170    7.2130 N.3   292  PHE292     -0.1241
     85  CA        37.7590   16.3840    8.4060 C.3   292  PHE292      0.1605
     86  C         39.1440   15.7450    8.3860 C.2   292  PHE292      0.2264
     87  O         39.2870   14.6200    7.9000 O.2   292  PHE292     -0.2867
     88  CB        36.9040   16.0420    9.6450 C.3   292  PHE292      0.0534
     89  CG        35.4280   16.3500    9.4090 C.ar  292  PHE292     -0.0203
     90  CD1       34.9680   17.6790    9.3460 C.ar  292  PHE292     -0.0042
     91  CD2       34.5140   15.3260    9.1650 C.ar  292  PHE292     -0.0042
     92  CE1       33.6150   17.9650    9.1070 C.ar  292  PHE292     -0.0003
     93  CE2       33.1610   15.6200    8.9060 C.ar  292  PHE292     -0.0003
     94  CZ        32.7220   16.9350    8.8930 C.ar  292  PHE292     -0.0000
     95  N         29.8290   27.1470    4.6040 N.3   336  TYR336     -0.1241
     96  CA        31.1920   26.9430    5.0010 C.3   336  TYR336      0.1605
     97  C         32.1580   27.1720    3.8000 C.2   336  TYR336      0.2264
     98  O         32.8650   28.1790    3.8000 O.2   336  TYR336     -0.2867
     99  CB        31.3090   25.5360    5.6360 C.3   336  TYR336      0.0534
    100  CG        31.8340   25.4730    7.0610 C.ar  336  TYR336     -0.0201
    101  CD1       32.2440   26.6280    7.7340 C.ar  336  TYR336     -0.0009
    102  CD2       32.0030   24.2470    7.7090 C.ar  336  TYR336     -0.0009
    103  CE1       32.7940   26.5660    9.0200 C.ar  336  TYR336      0.0417
    104  CE2       32.5410   24.1720    9.0000 C.ar  336  TYR336      0.0417
    105  CZ        32.9550   25.3350    9.6440 C.ar  336  TYR336      0.1957
    106  OH        33.4960   25.2730   10.9140 O.3   336  TYR336     -0.2866
@<TRIPOS>BOND
     1    76    75   ar
     2    65    64    1
     3    65    66    1
     4    75    77   ar
     5    75    74    1
     6    64    61    1
     7    68    66   am
     8    73    74    2
     9    73    70    1
    10    66    67    2
    11    72    71    2
    12    56    55    2
    13    69    70    1
    14    69    62   am
    15    61    62    1
    16    61    60    1
    17    70    71    1
    18    71    78   am
    19    62    63    2
    20    55    60   am
    21    55    54    1
    22    57    54    1
    23    57    58    1
    24    78    79    1
    25    54    53    1
    26    79    82    1
    27    79    80    1
    28    58    59    1
    29    82    83    1
    30    53    59    1
    31    53    47   am
    32    80    81    2
    33    48    47    2
    34    47    46    1
    35    46    49    1
    36    46    45    1
    37    49    50    1
    38    98    97    2
    39    97    96    1
    40    38    37    2
    41    95    96    1
    42    50    51    1
    43    50    52    1
    44    96    99    1
    45    37    36    1
    46    99   100    1
    47    24    23    2
    48    41    43   ar
    49    41    40   ar
    50    36    39    1
    51    36    35    1
    52    39    40    1
    53    43    44   ar
    54    40    42   ar
    55    23    35   am
    56    23    22    1
    57   100   102   ar
    58   100   101   ar
    59    84    85    1
    60   102   104   ar
    61   101   103   ar
    62    44    42   ar
    63    87    86    2
    64    31    33   ar
    65    31    28   ar
    66    33    34   ar
    67    22    25    1
    68    22    21    1
    69    25    26    1
    70    86    85    1
    71    85    88    1
    72    94    93   ar
    73    94    92   ar
    74    93    91   ar
    75   104   105   ar
    76   103   105   ar
    77    92    90   ar
    78    28    26   ar
    79    28    30   ar
    80    91    89   ar
    81    26    27   ar
    82    90    89   ar
    83    34    32   ar
    84    89    88    1
    85   105   106    1
    86    30    32   ar
    87    30    29   ar
    88    27    29   ar
    89    16    15    2
    90    12    11    1
    91    15    14    1
    92    11    10   ar
    93    11     9   ar
    94    10     8   ar
    95     9     7   ar
    96    14    17    1
    97    14    13    1
    98     8     6   ar
    99    17    18    1
   100     7     6   ar
   101     6     5    1
   102    18    19   ar
   103    18    20   ar
   104     5     2    1
   105     2     3    1
   106     2     1    1
   107     3     4    2
