@<TRIPOS>MOLECULE
tmp/5eijA00.pdb
 160 154 0 0 0
SMALL
GASTEIGER

@<TRIPOS>ATOM
      1  N         -8.4170    0.4320    5.9010 N.3    64  ASN64      -0.1240
      2  CA        -9.2620    1.3680    6.6340 C.3    64  ASN64       0.1653
      3  C        -10.4730    1.8080    5.8160 C.2    64  ASN64       0.2266
      4  O        -10.3450    2.1700    4.6480 O.2    64  ASN64      -0.2867
      5  CB        -8.4890    2.6260    7.0530 C.3    64  ASN64       0.1155
      6  CG        -7.3290    2.3390    7.9850 C.2    64  ASN64       0.2627
      7  OD1       -7.2320    1.2710    8.5760 O.2    64  ASN64      -0.2716
      8  ND2       -6.4400    3.3130    8.1210 N.am   64  ASN64      -0.0877
      9  N        -13.9690    8.2880   12.8660 N.3    88  ILE88      -0.1231
     10  CA       -13.1050    8.7020   11.7650 C.3    88  ILE88       0.1692
     11  C        -12.8330    7.5310   10.8210 C.2    88  ILE88       0.2591
     12  O        -12.7940    7.7160    9.6120 O.2    88  ILE88      -0.2718
     13  CB       -11.7590    9.3130   12.2790 C.3    88  ILE88       0.0266
     14  CG1      -10.8340    9.6750   11.1090 C.3    88  ILE88       0.0019
     15  CG2      -11.0310    8.3750   13.2420 C.3    88  ILE88       0.0020
     16  CD1       -9.6450   10.5350   11.5280 C.3    88  ILE88       0.0001
     17  N        -12.6680    6.3270   11.3650 N.am   89  GLN89      -0.1979
     18  CA       -12.3940    5.1550   10.5340 C.3    89  GLN89       0.1601
     19  C        -12.6060    3.8620   11.3060 C.2    89  GLN89       0.2287
     20  O        -12.6330    3.8750   12.5410 O.2    89  GLN89      -0.2864
     21  CB       -10.9590    5.2040    9.9890 C.3    89  GLN89       0.0394
     22  CG        -9.8730    5.2080   11.0640 C.3    89  GLN89       0.0908
     23  CD        -9.1180    3.8920   11.1470 C.2    89  GLN89       0.2608
     24  OE1       -9.7120    2.8300   11.2970 O.2    89  GLN89      -0.2717
     25  NE2       -7.8020    3.9610   11.0480 N.am   89  GLN89      -0.0878
     26  N        -11.1180   -0.4360   11.0780 N.3    91  HIS91      -0.1241
     27  CA       -10.2300   -1.4090   10.4640 C.3    91  HIS91       0.1621
     28  C        -10.3580   -2.7300   11.2130 C.2    91  HIS91       0.2264
     29  O        -11.0630   -2.8140   12.2290 O.2    91  HIS91      -0.2867
     30  CB        -8.7790   -0.9220   10.4980 C.3    91  HIS91       0.0745
     31  CG        -8.2990   -0.6020   11.8780 C.ar   91  HIS91       0.0817
     32  ND1       -8.4240    0.6520   12.4400 N.ar   91  HIS91      -0.2268
     33  CD2       -7.7290   -1.3850   12.8250 C.ar   91  HIS91       0.1154
     34  CE1       -7.9390    0.6280   13.6690 C.ar   91  HIS91       0.1986
     35  NE2       -7.5080   -0.5950   13.9260 N.ar   91  HIS91      -0.2212
     36  N         -8.0660   -6.4280   12.5390 N.3    93  HIS93      -0.1241
     37  CA        -6.8640   -7.2480   12.6850 C.3    93  HIS93       0.1621
     38  C         -7.3070   -8.6950   12.5820 C.2    93  HIS93       0.2264
     39  O         -8.3620   -9.0460   13.1090 O.2    93  HIS93      -0.2867
     40  CB        -6.1710   -7.0070   14.0340 C.3    93  HIS93       0.0745
     41  CG        -5.9100   -5.5610   14.3230 C.ar   93  HIS93       0.0817
     42  ND1       -4.6870   -4.9680   14.0930 N.ar   93  HIS93      -0.2268
     43  CD2       -6.7200   -4.5870   14.8050 C.ar   93  HIS93       0.1154
     44  CE1       -4.7540   -3.6900   14.4270 C.ar   93  HIS93       0.1986
     45  NE2       -5.9770   -3.4330   14.8580 N.ar   93  HIS93      -0.2212
     46  N        -11.9500   -2.6500   14.9710 N.3   116  HIS116     -0.1241
     47  CA       -11.7440   -1.4240   15.7430 C.3   116  HIS116      0.1621
     48  C        -12.4060   -0.2420   15.0590 C.2   116  HIS116      0.2264
     49  O        -12.0120    0.1340   13.9480 O.2   116  HIS116     -0.2867
     50  CB       -10.2350   -1.1530   15.9340 C.3   116  HIS116      0.0745
     51  CG        -9.5600   -2.1710   16.8090 C.ar  116  HIS116      0.0817
     52  ND1       -8.2000   -2.3900   16.7970 N.ar  116  HIS116     -0.2268
     53  CD2      -10.0680   -3.0180   17.7390 C.ar  116  HIS116      0.1154
     54  CE1       -7.8990   -3.3370   17.6670 C.ar  116  HIS116      0.1986
     55  NE2       -9.0140   -3.7330   18.2550 N.ar  116  HIS116     -0.2212
     56  N        -12.7990    3.6170   15.3270 N.3   118  VAL118     -0.1245
     57  CA       -11.9310    4.5930   15.9660 C.3   118  VAL118      0.1561
     58  C        -12.6380    5.9380   16.0340 C.2   118  VAL118      0.2260
     59  O        -13.1480    6.4150   15.0140 O.2   118  VAL118     -0.2867
     60  CB       -10.5890    4.7620   15.1940 C.3   118  VAL118      0.0252
     61  CG1       -9.7020    5.7530   15.9010 C.3   118  VAL118      0.0019
     62  CG2       -9.8820    3.4280   14.9980 C.3   118  VAL118      0.0019
     63  N         -8.1700   15.1680   14.9460 N.3   127  PHE127     -0.1241
     64  CA        -7.6190   13.8740   15.3460 C.3   127  PHE127      0.1605
     65  C         -6.1590   13.9910   15.7720 C.2   127  PHE127      0.2264
     66  O         -5.7530   13.3860   16.7630 O.2   127  PHE127     -0.2867
     67  CB        -7.7510   12.8690   14.2080 C.3   127  PHE127      0.0534
     68  CG        -7.1510   11.5320   14.5050 C.ar  127  PHE127     -0.0203
     69  CD1       -7.8990   10.5460   15.1350 C.ar  127  PHE127     -0.0042
     70  CD2       -5.8520   11.2390   14.1250 C.ar  127  PHE127     -0.0042
     71  CE1       -7.3480    9.2920   15.4000 C.ar  127  PHE127     -0.0003
     72  CE2       -5.2980    9.9890   14.3860 C.ar  127  PHE127     -0.0003
     73  CZ        -6.0500    9.0190   15.0330 C.ar  127  PHE127     -0.0000
     74  N         -4.8270   12.6590   19.6320 N.3   131  VAL131     -0.1245
     75  CA        -3.9560   11.5230   19.9620 C.3   131  VAL131      0.1561
     76  C         -2.8580   11.9220   20.9300 C.2   131  VAL131      0.2260
     77  O         -2.1400   11.0600   21.4380 O.2   131  VAL131     -0.2867
     78  CB        -3.3050   10.8890   18.7070 C.3   131  VAL131      0.0252
     79  CG1       -4.3820   10.3220   17.8100 C.3   131  VAL131      0.0019
     80  CG2       -2.4490   11.9090   17.9580 C.3   131  VAL131      0.0019
     81  N         -8.8620    9.5680   22.3700 N.3   137  LEU137     -0.1245
     82  CA        -9.5600    8.6200   21.5050 C.3   137  LEU137      0.1561
     83  C        -10.4340    7.6510   22.2820 C.2   137  LEU137      0.2260
     84  O        -10.1830    7.3620   23.4490 O.2   137  LEU137     -0.2867
     85  CB        -8.5820    7.8070   20.6500 C.3   137  LEU137      0.0270
     86  CG        -7.6230    8.4660   19.6530 C.3   137  LEU137      0.0019
     87  CD1       -7.0560    7.4140   18.6870 C.3   137  LEU137      0.0001
     88  CD2       -8.2300    9.6400   18.8840 C.3   137  LEU137      0.0001
     89  N        -11.8790    3.8170   21.2200 N.3   139  VAL139     -0.1245
     90  CA       -11.9570    2.7770   20.2090 C.3   139  VAL139      0.1561
     91  C        -12.8980    1.6740   20.6730 C.2   139  VAL139      0.2260
     92  O        -12.7390    1.1200   21.7650 O.2   139  VAL139     -0.2867
     93  CB       -10.5700    2.1830   19.8720 C.3   139  VAL139      0.0252
     94  CG1      -10.6820    1.1820   18.7220 C.3   139  VAL139      0.0019
     95  CG2       -9.5940    3.3000   19.5040 C.3   139  VAL139      0.0019
     96  N         -3.0190    3.1390   21.3860 N.3   194  LEU194     -0.1231
     97  CA        -3.0140    2.5740   20.0370 C.3   194  LEU194      0.1693
     98  C         -2.2870    1.2300   20.0760 C.2   194  LEU194      0.2593
     99  O         -1.3380    1.0710   20.8450 O.2   194  LEU194     -0.2718
    100  CB        -2.3080    3.5090   19.0360 C.3   194  LEU194      0.0284
    101  CG        -2.7090    4.9920   19.0180 C.3   194  LEU194      0.0019
    102  CD1       -1.7830    5.7800   18.1030 C.3   194  LEU194      0.0001
    103  CD2       -4.1550    5.1290   18.5810 C.3   194  LEU194      0.0001
    104  N         -2.6880    0.2720   19.2400 N.am  195  THR195     -0.1939
    105  CA        -1.9930   -1.0100   19.2350 C.3   195  THR195      0.2028
    106  C         -0.9730   -1.1230   18.1100 C.2   195  THR195      0.2643
    107  O         -0.3870   -2.1840   17.9260 O.2   195  THR195     -0.2714
    108  CB        -2.9550   -2.1910   19.1000 C.3   195  THR195      0.1808
    109  OG1       -3.5710   -2.1410   17.8050 O.3   195  THR195     -0.2208
    110  CG2       -4.0160   -2.1800   20.2320 C.3   195  THR195      0.0379
    111  N         -0.7850   -0.0540   17.3390 N.am  196  THR196     -0.1937
    112  CA         0.3060   -0.0030   16.3570 C.3   196  THR196      0.2013
    113  C          1.1420    1.2420   16.6300 C.2   196  THR196      0.2484
    114  O          0.6740    2.1620   17.3090 O.2   196  THR196     -0.2729
    115  CB        -0.2050    0.0490   14.8980 C.3   196  THR196      0.1807
    116  OG1       -0.7930    1.3300   14.6490 O.3   196  THR196     -0.2208
    117  CG2       -1.2180   -1.0520   14.6310 C.3   196  THR196      0.0379
    118  N          2.3770    1.2830   16.1110 N.am  197  PRO197     -0.2715
    119  CA         3.1210    2.5310   16.2530 C.3   197  PRO197      0.1521
    120  C          2.2960    3.7150   15.7590 C.2   197  PRO197      0.2440
    121  O          1.5320    3.5550   14.8030 O.2   197  PRO197     -0.2731
    122  CB         4.3490    2.2820   15.3800 C.3   197  PRO197      0.0310
    123  CG         4.5970    0.8230   15.5620 C.3   197  PRO197      0.0237
    124  CD         3.2190    0.2170   15.5360 C.3   197  PRO197      0.0939
    125  N          2.4200    4.8780   16.4060 N.am  198  PRO198     -0.2727
    126  CA         3.3260    5.2490   17.5080 C.3   198  PRO198      0.1402
    127  C          2.9000    4.8270   18.9350 C.2   198  PRO198      0.2269
    128  O          3.5230    5.2930   19.9080 O.2   198  PRO198     -0.2865
    129  CB         3.3630    6.7790   17.4080 C.3   198  PRO198      0.0296
    130  CG         2.0230    7.1410   16.8840 C.3   198  PRO198      0.0237
    131  CD         1.6290    6.0270   15.9300 C.3   198  PRO198      0.0939
    132  N          0.6060    5.5750   21.0220 N.3   200  LEU200     -0.1245
    133  CA         0.3040    6.6670   21.9470 C.3   200  LEU200      0.1561
    134  C         -0.7080    6.2130   22.9850 C.2   200  LEU200      0.2260
    135  O         -1.6710    5.5270   22.6550 O.2   200  LEU200     -0.2867
    136  CB        -0.2260    7.8990   21.1840 C.3   200  LEU200      0.0270
    137  CG         0.8100    8.4410   20.1830 C.3   200  LEU200      0.0019
    138  CD1        0.2120    9.5320   19.3050 C.3   200  LEU200      0.0001
    139  CD2        2.0250    8.9680   20.9320 C.3   200  LEU200      0.0001
    140  N         -6.0380    6.2810   24.4780 N.3   203  VAL203     -0.1245
    141  CA        -7.2760    5.5750   24.1460 C.3   203  VAL203      0.1561
    142  C         -8.0790    5.0840   25.3560 C.2   203  VAL203      0.2260
    143  O         -7.5360    4.4470   26.2690 O.2   203  VAL203     -0.2867
    144  CB        -6.9970    4.3370   23.2400 C.3   203  VAL203      0.0252
    145  CG1       -8.3050    3.6070   22.9020 C.3   203  VAL203      0.0019
    146  CG2       -6.2480    4.7500   21.9560 C.3   203  VAL203      0.0019
    147  N        -10.4800    2.2650   25.8570 N.3   205  TRP205     -0.1241
    148  CA       -10.8860    1.0630   25.1540 C.3   205  TRP205      0.1605
    149  C        -12.2270    0.5770   25.6480 C.2   205  TRP205      0.2264
    150  O        -12.4600    0.4980   26.8490 O.2   205  TRP205     -0.2867
    151  CB        -9.8310   -0.0410   25.3100 C.3   205  TRP205      0.0550
    152  CG        -8.7690    0.0700   24.2820 C.ar  205  TRP205      0.0003
    153  CD1       -7.5340    0.6190   24.4340 C.ar  205  TRP205      0.0946
    154  CD2       -8.8650   -0.3460   22.9150 C.ar  205  TRP205      0.0152
    155  NE1       -6.8440    0.5670   23.2420 N.ar  205  TRP205     -0.2442
    156  CE2       -7.6360   -0.0420   22.3000 C.ar  205  TRP205      0.0810
    157  CE3       -9.8630   -0.9780   22.1600 C.ar  205  TRP205      0.0012
    158  CZ2       -7.3830   -0.3350   20.9640 C.ar  205  TRP205      0.0191
    159  CZ3       -9.6110   -1.2720   20.8430 C.ar  205  TRP205      0.0001
    160  CH2       -8.3810   -0.9450   20.2510 C.ar  205  TRP205      0.0015
@<TRIPOS>BOND
     1     4     3    2
     2     3     2    1
     3     1     2    1
     4     2     5    1
     5     5     6    1
     6     6     8   am
     7     6     7    2
     8    12    11    2
     9    21    18    1
    10    21    22    1
    11    27    30    1
    12    27    26    1
    13    27    28    1
    14    30    31    1
    15    18    19    1
    16    18    17    1
    17    11    17   am
    18    11    10    1
    19    25    23   am
    20    22    23    1
    21    14    16    1
    22    14    13    1
    23    23    24    2
    24    28    29    2
    25    19    20    2
    26    10    13    1
    27    10     9    1
    28    31    32   ar
    29    31    33   ar
    30    13    15    1
    31    32    34   ar
    32    36    37    1
    33    38    37    1
    34    38    39    2
    35    37    40    1
    36    33    35   ar
    37    34    35   ar
    38    49    48    2
    39    40    41    1
    40    42    41   ar
    41    42    44   ar
    42    70    72   ar
    43    70    68   ar
    44    67    68    1
    45    67    64    1
    46    41    43   ar
    47    72    73   ar
    48    44    45   ar
    49    68    69   ar
    50   117   115    1
    51   116   115    1
    52   121   120    2
    53    43    45   ar
    54   115   112    1
    55    63    64    1
    56    46    47    1
    57    62    60    1
    58    59    58    2
    59    73    71   ar
    60    48    47    1
    61    69    71   ar
    62    60    61    1
    63    60    57    1
    64    56    57    1
    65    64    65    1
    66   122   123    1
    67   122   119    1
    68   124   123    1
    69   124   118    1
    70    47    50    1
    71   120   119    1
    72   120   125   am
    73    65    66    2
    74   131   125    1
    75   131   130    1
    76    50    51    1
    77    57    58    1
    78   118   119    1
    79   118   113   am
    80   112   113    1
    81   112   111    1
    82   125   126    1
    83   113   114    2
    84    52    51   ar
    85    52    54   ar
    86    51    53   ar
    87   130   129    1
    88   111   106   am
    89   129   126    1
    90   126   127    1
    91    54    55   ar
    92    53    55   ar
    93   109   108    1
    94    79    78    1
    95   107   106    2
    96    80    78    1
    97   102   101    1
    98   106   105    1
    99   103   101    1
   100    87    86    1
   101    78    75    1
   102    94    93    1
   103    88    86    1
   104   127   128    2
   105   101   100    1
   106   100    97    1
   107   108   105    1
   108   108   110    1
   109   105   104    1
   110   104    98   am
   111   138   137    1
   112    95    93    1
   113    74    75    1
   114    86    85    1
   115    93    90    1
   116    75    76    1
   117    97    98    1
   118    97    96    1
   119    98    99    2
   120   137   139    1
   121   137   136    1
   122    90    91    1
   123    90    89    1
   124   160   159   ar
   125   160   158   ar
   126    85    82    1
   127    91    92    2
   128   159   157   ar
   129    76    77    2
   130   158   156   ar
   131   132   133    1
   132   136   133    1
   133    82    83    1
   134    82    81    1
   135   133   134    1
   136   146   144    1
   137   157   154   ar
   138    83    84    2
   139   156   154   ar
   140   156   155   ar
   141   135   134    2
   142   145   144    1
   143   154   152   ar
   144   144   141    1
   145   155   153   ar
   146   141   140    1
   147   141   142    1
   148   152   153   ar
   149   152   151    1
   150   148   151    1
   151   148   149    1
   152   148   147    1
   153   142   143    2
   154   149   150    2
