@<TRIPOS>MOLECULE
tmp/5eikA03.pdb
 114 114 0 0 0
SMALL
GASTEIGER

@<TRIPOS>ATOM
      1  N         -6.9990   36.1810   40.0940 N.3    12  TYR12      -0.1241
      2  CA        -8.3820   36.0380   39.6860 C.3    12  TYR12       0.1605
      3  C         -8.6040   34.7400   38.9150 C.2    12  TYR12       0.2264
      4  O         -9.4010   33.8880   39.3170 O.2    12  TYR12      -0.2867
      5  CB        -8.7760   37.2290   38.8130 C.3    12  TYR12       0.0534
      6  CG       -10.0730   37.0160   38.0890 C.ar   12  TYR12      -0.0201
      7  CD1      -11.2540   36.8640   38.7960 C.ar   12  TYR12      -0.0009
      8  CD2      -10.1150   36.9160   36.6960 C.ar   12  TYR12      -0.0009
      9  CE1      -12.4390   36.6150   38.1460 C.ar   12  TYR12       0.0417
     10  CE2      -11.3110   36.6650   36.0290 C.ar   12  TYR12       0.0417
     11  CZ       -12.4700   36.5150   36.7640 C.ar   12  TYR12       0.1957
     12  OH       -13.6620   36.2660   36.1250 O.3    12  TYR12      -0.2866
     13  N         -8.2140   31.4590   40.7370 N.3    15  LYS15      -0.1231
     14  CA        -9.2360   31.0750   41.7090 C.3    15  LYS15       0.1693
     15  C        -10.5710   30.6820   41.0760 C.2    15  LYS15       0.2592
     16  O        -11.4820   30.2290   41.7700 O.2    15  LYS15      -0.2718
     17  CB        -9.4610   32.2100   42.7150 C.3    15  LYS15       0.0285
     18  CG        -8.5360   32.1730   43.9290 C.3    15  LYS15       0.0035
     19  CD        -7.0660   32.1250   43.5340 C.3    15  LYS15       0.0206
     20  CE        -6.1600   32.1530   44.7570 C.3    15  LYS15       0.1093
     21  NZ        -6.2810   33.4310   45.5150 N.3    15  LYS15      -0.1314
     22  N        -10.6850   30.8600   39.7640 N.am   16  LEU16      -0.1966
     23  CA       -11.9080   30.5190   39.0450 C.3    16  LEU16       0.1728
     24  C        -12.3740   29.1030   39.3470 C.2    16  LEU16       0.2616
     25  O        -11.5900   28.1600   39.2770 O.2    16  LEU16      -0.2715
     26  CB       -11.6830   30.6400   37.5440 C.3    16  LEU16       0.0311
     27  CG       -11.5800   32.0420   36.9700 C.3    16  LEU16       0.0022
     28  CD1      -11.1270   31.9670   35.5220 C.3    16  LEU16       0.0001
     29  CD2      -12.9350   32.7310   37.0840 C.3    16  LEU16       0.0001
     30  N        -13.6510   28.9520   39.6830 N.am   17  LYS17      -0.1977
     31  CA       -14.1960   27.6280   39.9530 C.3    17  LYS17       0.1596
     32  C        -14.4490   26.9680   38.5930 C.2    17  LYS17       0.2287
     33  O        -15.3830   27.3300   37.8700 O.2    17  LYS17      -0.2864
     34  CB       -15.4990   27.7260   40.7490 C.3    17  LYS17       0.0298
     35  CG       -16.0500   26.3660   41.1440 C.3    17  LYS17       0.0038
     36  CD       -15.0630   25.6140   42.0240 C.3    17  LYS17       0.0206
     37  CE       -15.1210   24.1130   41.7720 C.3    17  LYS17       0.1093
     38  NZ       -14.6160   23.7510   40.4130 N.3    17  LYS17      -0.1314
     39  N        -15.4910   23.8930   37.7580 N.3    19  TYR19      -0.1228
     40  CA       -16.7390   23.1600   37.6240 C.3    19  TYR19       0.1721
     41  C        -17.9100   24.1570   37.6960 C.2    19  TYR19       0.2437
     42  O        -17.9420   25.0320   38.5640 O.2    19  TYR19      -0.2733
     43  CB       -16.8620   22.1290   38.7500 C.3    19  TYR19       0.0547
     44  CG       -18.0980   21.2710   38.6490 C.ar   19  TYR19      -0.0200
     45  CD1      -18.1130   20.1210   37.8560 C.ar   19  TYR19      -0.0009
     46  CD2      -19.2620   21.6140   39.3340 C.ar   19  TYR19      -0.0009
     47  CE1      -19.2610   19.3320   37.7560 C.ar   19  TYR19       0.0417
     48  CE2      -20.4070   20.8400   39.2380 C.ar   19  TYR19       0.0417
     49  CZ       -20.4010   19.6990   38.4520 C.ar   19  TYR19       0.1957
     50  OH       -21.5300   18.9180   38.3780 O.3    19  TYR19      -0.2866
     51  N        -18.8870   24.0350   36.7840 N.am   20  PRO20      -0.2718
     52  CA       -18.9470   23.0310   35.7170 C.3    20  PRO20       0.1535
     53  C        -18.6750   23.6020   34.3210 C.2    20  PRO20       0.2599
     54  O        -18.5330   22.8550   33.3590 O.2    20  PRO20      -0.2715
     55  CB       -20.3720   22.5240   35.8350 C.3    20  PRO20       0.0310
     56  CG       -21.1220   23.8280   36.0430 C.3    20  PRO20       0.0237
     57  CD       -20.2310   24.5950   37.0370 C.3    20  PRO20       0.0939
     58  N        -18.5900   24.9220   34.2150 N.am   21  TYR21      -0.1960
     59  CA       -18.3980   25.5540   32.9170 C.3    21  TYR21       0.1771
     60  C        -17.0510   25.4000   32.2360 C.2    21  TYR21       0.2619
     61  O        -16.9860   25.1970   31.0180 O.2    21  TYR21      -0.2715
     62  CB       -18.7770   27.0310   33.0090 C.3    21  TYR21       0.0574
     63  CG       -20.2460   27.2010   33.2930 C.ar   21  TYR21      -0.0198
     64  CD1      -21.2020   26.7210   32.3980 C.ar   21  TYR21      -0.0009
     65  CD2      -20.6890   27.7820   34.4790 C.ar   21  TYR21      -0.0009
     66  CE1      -22.5650   26.8090   32.6800 C.ar   21  TYR21       0.0417
     67  CE2      -22.0470   27.8750   34.7710 C.ar   21  TYR21       0.0417
     68  CZ       -22.9790   27.3850   33.8670 C.ar   21  TYR21       0.1957
     69  OH       -24.3270   27.4630   34.1450 O.3    21  TYR21      -0.2866
     70  N        -15.9640   25.5020   32.9780 N.am   22  PHE22      -0.1974
     71  CA       -14.6910   25.3280   32.3150 C.3    22  PHE22       0.1639
     72  C        -14.5200   23.8410   31.9840 C.2    22  PHE22       0.2290
     73  O        -13.9740   23.4900   30.9380 O.2    22  PHE22      -0.2864
     74  CB       -13.5570   25.8630   33.1850 C.3    22  PHE22       0.0560
     75  CG       -13.5290   27.3700   33.2720 C.ar   22  PHE22      -0.0200
     76  CD1      -14.3840   28.0500   34.1400 C.ar   22  PHE22      -0.0042
     77  CD2      -12.6570   28.1100   32.4730 C.ar   22  PHE22      -0.0042
     78  CE1      -14.3670   29.4450   34.2100 C.ar   22  PHE22      -0.0003
     79  CE2      -12.6320   29.5010   32.5330 C.ar   22  PHE22      -0.0003
     80  CZ       -13.4880   30.1720   33.4040 C.ar   22  PHE22      -0.0000
     81  N        -17.2940   31.3490   16.4140 N.3   112  PRO112     -0.2102
     82  CA       -17.2650   32.2130   17.6030 C.3   112  PRO112      0.1504
     83  C        -17.3430   31.4260   18.9150 C.2   112  PRO112      0.2575
     84  O        -16.6540   31.7450   19.8860 O.2   112  PRO112     -0.2718
     85  CB       -18.4860   33.1150   17.4080 C.3   112  PRO112      0.0282
     86  CG       -18.6220   33.1820   15.9110 C.3   112  PRO112      0.0208
     87  CD       -18.3710   31.7520   15.4910 C.3   112  PRO112      0.0893
     88  N        -18.1890   30.4000   18.9320 N.am  113  VAL113     -0.1980
     89  CA       -18.3730   29.5720   20.1200 C.3   113  VAL113      0.1595
     90  C        -17.1780   28.6510   20.3560 C.2   113  VAL113      0.2287
     91  O        -16.6470   28.5680   21.4750 O.2   113  VAL113     -0.2864
     92  CB       -19.6680   28.7190   19.9960 C.3   113  VAL113      0.0276
     93  CG1      -19.7900   27.7480   21.1740 C.3   113  VAL113      0.0022
     94  CG2      -20.8830   29.6400   19.9420 C.3   113  VAL113      0.0022
     95  N        -14.6510   30.5170   21.9540 N.3   116  GLY116     -0.1210
     96  CA       -14.8820   30.8110   23.3540 C.3   116  GLY116      0.1956
     97  C        -14.5940   29.5850   24.1990 C.2   116  GLY116      0.2611
     98  O        -14.0210   29.6860   25.2850 O.2   116  GLY116     -0.2717
     99  N        -14.9880   28.4180   23.6980 N.am  117  LEU117     -0.1979
    100  CA       -14.7580   27.1790   24.4220 C.3   117  LEU117      0.1596
    101  C        -13.2650   26.9120   24.5640 C.2   117  LEU117      0.2287
    102  O        -12.7940   26.4840   25.6160 O.2   117  LEU117     -0.2864
    103  CB       -15.4300   26.0190   23.6940 C.3   117  LEU117      0.0297
    104  CG       -16.9530   26.1160   23.6240 C.3   117  LEU117      0.0022
    105  CD1      -17.4860   25.0820   22.6570 C.3   117  LEU117      0.0001
    106  CD2      -17.5460   25.9300   25.0100 C.3   117  LEU117      0.0001
    107  N        -11.7420   28.8630   27.4570 N.3   120  LEU120     -0.1245
    108  CA       -12.0490   28.2420   28.7390 C.3   120  LEU120      0.1561
    109  C        -11.2300   26.9660   28.9310 C.2   120  LEU120      0.2260
    110  O        -10.7430   26.6910   30.0310 O.2   120  LEU120     -0.2867
    111  CB       -13.5380   27.9060   28.8420 C.3   120  LEU120      0.0270
    112  CG       -14.5300   29.0640   28.6730 C.3   120  LEU120      0.0019
    113  CD1      -15.9360   28.5550   28.9360 C.3   120  LEU120      0.0001
    114  CD2      -14.1980   30.1950   29.6270 C.3   120  LEU120      0.0001
@<TRIPOS>BOND
     1    87    86    1
     2    87    81    1
     3    86    85    1
     4    81    82    1
     5    85    82    1
     6    82    83    1
     7    83    88   am
     8    83    84    2
     9    88    89    1
    10    94    92    1
    11    92    89    1
    12    92    93    1
    13    89    90    1
    14    90    91    2
    15    95    96    1
    16   105   104    1
    17    96    97    1
    18   104   103    1
    19   104   106    1
    20   103   100    1
    21    99    97   am
    22    99   100    1
    23    97    98    2
    24   100   101    1
    25   101   102    2
    26   107   108    1
    27   112   111    1
    28   112   113    1
    29   112   114    1
    30   108   111    1
    31   108   109    1
    32   109   110    2
    33    73    72    2
    34    61    60    2
    35    72    71    1
    36    60    59    1
    37    60    70   am
    38    71    70    1
    39    71    74    1
    40    64    66   ar
    41    64    63   ar
    42    77    79   ar
    43    77    75   ar
    44    79    80   ar
    45    66    68   ar
    46    59    62    1
    47    59    58    1
    48    62    63    1
    49    74    75    1
    50    75    76   ar
    51    63    65   ar
    52    54    53    2
    53    80    78   ar
    54    68    69    1
    55    68    67   ar
    56    76    78   ar
    57    58    53   am
    58    53    52    1
    59    65    67   ar
    60    28    27    1
    61    52    55    1
    62    52    51    1
    63    55    56    1
    64    10     8   ar
    65    10    11   ar
    66    56    57    1
    67    12    11    1
    68     8     6   ar
    69    11     9   ar
    70    51    57    1
    71    51    41   am
    72    27    29    1
    73    27    26    1
    74    26    23    1
    75    40    41    1
    76    40    39    1
    77    40    43    1
    78    41    42    2
    79    47    45   ar
    80    47    49   ar
    81    45    44   ar
    82    33    32    2
    83     6     7   ar
    84     6     5    1
    85     9     7   ar
    86    50    49    1
    87    49    48   ar
    88    32    31    1
    89    44    43    1
    90    44    46   ar
    91     5     2    1
    92     3     4    2
    93     3     2    1
    94    23    24    1
    95    23    22    1
    96    48    46   ar
    97    25    24    2
    98    24    30   am
    99    30    31    1
   100     2     1    1
   101    22    15   am
   102    31    34    1
   103    38    37    1
   104    13    14    1
   105    34    35    1
   106    15    14    1
   107    15    16    2
   108    35    36    1
   109    14    17    1
   110    37    36    1
   111    17    18    1
   112    19    18    1
   113    19    20    1
   114    20    21    1
