@<TRIPOS>MOLECULE
tmp/5eikA01.pdb
 117 117 0 0 0
SMALL
GASTEIGER

@<TRIPOS>ATOM
      1  N        -17.0140   21.6260   31.3400 N.3    24  ALA24      -0.1245
      2  CA       -17.8990   21.3250   30.2260 C.3    24  ALA24       0.1562
      3  C        -17.2670   21.7580   28.8940 C.2    24  ALA24       0.2260
      4  O        -17.4090   21.0750   27.8780 O.2    24  ALA24      -0.2867
      5  CB       -19.2500   22.0190   30.4310 C.3    24  ALA24       0.0290
      6  N        -24.7310    5.4480   17.2500 N.3    47  ARG47      -0.1245
      7  CA       -26.0400    4.8870   17.5450 C.3    47  ARG47       0.1563
      8  C        -26.0150    3.3610   17.6030 C.2    47  ARG47       0.2260
      9  O        -26.8690    2.7420   18.2380 O.2    47  ARG47      -0.2867
     10  CB       -27.0650    5.4070   16.5320 C.3    47  ARG47       0.0307
     11  CG       -27.3560    6.8920   16.7380 C.3    47  ARG47       0.0489
     12  CD       -28.3260    7.4620   15.7170 C.3    47  ARG47       0.2205
     13  NE       -28.5970    8.8810   15.9540 N.pl3  47  ARG47      -0.0865
     14  CZ       -29.2780    9.3580   16.9940 C.cat  47  ARG47       0.5346
     15  NH1      -29.7720    8.5350   17.9110 N.pl3  47  ARG47       0.1354
     16  NH2      -29.4630   10.6660   17.1190 N.pl3  47  ARG47       0.1354
     17  N        -23.0950    2.7110   21.3300 N.3    50  PRO50      -0.2102
     18  CA       -23.1150    3.7760   22.3340 C.3    50  PRO50       0.1504
     19  C        -22.1560    3.5890   23.5020 C.2    50  PRO50       0.2575
     20  O        -21.5260    4.5480   23.9430 O.2    50  PRO50      -0.2718
     21  CB       -24.5810    3.8050   22.7660 C.3    50  PRO50       0.0282
     22  CG       -24.9900    2.3680   22.6220 C.3    50  PRO50       0.0208
     23  CD       -24.3850    2.0010   21.2910 C.3    50  PRO50       0.0893
     24  N        -22.0450    2.3650   24.0050 N.am   51  PHE51      -0.1977
     25  CA       -21.1510    2.1050   25.1230 C.3    51  PHE51       0.1639
     26  C        -19.7110    2.3860   24.7090 C.2    51  PHE51       0.2290
     27  O        -18.9500    3.0230   25.4450 O.2    51  PHE51      -0.2864
     28  CB       -21.2870    0.6580   25.5970 C.3    51  PHE51       0.0560
     29  CG       -22.6550    0.3170   26.1160 C.ar   51  PHE51      -0.0200
     30  CD1      -23.2520    1.0950   27.0990 C.ar   51  PHE51      -0.0042
     31  CD2      -23.3420   -0.7950   25.6370 C.ar   51  PHE51      -0.0042
     32  CE1      -24.5120    0.7760   27.6020 C.ar   51  PHE51      -0.0003
     33  CE2      -24.6070   -1.1220   26.1360 C.ar   51  PHE51      -0.0003
     34  CZ       -25.1900   -0.3320   27.1230 C.ar   51  PHE51      -0.0000
     35  N        -20.4500   12.4020   35.5570 N.3    87  LEU87      -0.1231
     36  CA       -21.8250   12.6710   35.1570 C.3    87  LEU87       0.1693
     37  C        -21.8600   13.8190   34.1560 C.2    87  LEU87       0.2591
     38  O        -22.4650   13.6960   33.0920 O.2    87  LEU87      -0.2718
     39  CB       -22.6980   13.0250   36.3550 C.3    87  LEU87       0.0284
     40  CG       -24.1410   13.3150   35.9330 C.3    87  LEU87       0.0019
     41  CD1      -24.7570   12.0990   35.2540 C.3    87  LEU87       0.0001
     42  CD2      -24.9430   13.6770   37.1330 C.3    87  LEU87       0.0001
     43  N        -21.1950   14.9260   34.4880 N.am   88  LEU88      -0.1980
     44  CA       -21.1640   16.0820   33.5970 C.3    88  LEU88       0.1596
     45  C        -20.5640   15.6810   32.2460 C.2    88  LEU88       0.2287
     46  O        -21.0490   16.0960   31.1920 O.2    88  LEU88      -0.2864
     47  CB       -20.3520   17.2310   34.2190 C.3    88  LEU88       0.0297
     48  CG       -20.1930   18.5170   33.3840 C.3    88  LEU88       0.0022
     49  CD1      -21.5450   19.1120   33.0420 C.3    88  LEU88       0.0001
     50  CD2      -19.3650   19.5360   34.1410 C.3    88  LEU88       0.0001
     51  N        -20.5280   12.6600   30.8620 N.3    90  SER90      -0.1202
     52  CA       -21.4480   11.7920   30.1350 C.3    90  SER90       0.2020
     53  C        -22.6060   12.5990   29.5320 C.2    90  SER90       0.2619
     54  O        -23.0750   12.3070   28.4230 O.2    90  SER90      -0.2717
     55  CB       -21.9980   10.7220   31.0700 C.3    90  SER90       0.2103
     56  OG       -20.9360   10.0560   31.7180 O.3    90  SER90      -0.2182
     57  N        -23.0610   13.6150   30.2570 N.am   91  ILE91      -0.1965
     58  CA       -24.1550   14.4480   29.7660 C.3    91  ILE91       0.1727
     59  C        -23.7110   15.2220   28.5300 C.2    91  ILE91       0.2616
     60  O        -24.4280   15.2770   27.5270 O.2    91  ILE91      -0.2715
     61  CB       -24.6420   15.4110   30.8480 C.3    91  ILE91       0.0290
     62  CG1      -25.3780   14.6200   31.9320 C.3    91  ILE91       0.0022
     63  CG2      -25.5630   16.4660   30.2450 C.3    91  ILE91       0.0023
     64  CD1      -25.7540   15.4510   33.1470 C.3    91  ILE91       0.0001
     65  N        -22.5200   15.8030   28.5940 N.am   92  VAL92      -0.1963
     66  CA       -21.9940   16.5390   27.4550 C.3    92  VAL92       0.1727
     67  C        -21.8780   15.5880   26.2660 C.2    92  VAL92       0.2616
     68  O        -22.3010   15.9160   25.1570 O.2    92  VAL92      -0.2715
     69  CB       -20.6050   17.1550   27.7610 C.3    92  VAL92       0.0290
     70  CG1      -19.9240   17.5930   26.4690 C.3    92  VAL92       0.0023
     71  CG2      -20.7630   18.3480   28.7000 C.3    92  VAL92       0.0023
     72  N        -21.3060   14.4080   26.5030 N.am   93  TRP93      -0.1960
     73  CA       -21.1450   13.4080   25.4500 C.3    93  TRP93       0.1771
     74  C        -22.5030   13.0540   24.8380 C.2    93  TRP93       0.2620
     75  O        -22.6390   12.9580   23.6170 O.2    93  TRP93      -0.2715
     76  CB       -20.4870   12.1360   26.0000 C.3    93  TRP93       0.0590
     77  CG       -20.7290   10.9350   25.1360 C.ar   93  TRP93       0.0006
     78  CD1      -20.0970   10.6240   23.9580 C.ar   93  TRP93       0.0946
     79  CD2      -21.7410    9.9430   25.3230 C.ar   93  TRP93       0.0152
     80  NE1      -20.6620    9.5000   23.3980 N.ar   93  TRP93      -0.2442
     81  CE2      -21.6720    9.0590   24.2110 C.ar   93  TRP93       0.0810
     82  CE3      -22.7040    9.7130   26.3170 C.ar   93  TRP93       0.0012
     83  CZ2      -22.5290    7.9630   24.0680 C.ar   93  TRP93       0.0191
     84  CZ3      -23.5620    8.6170   26.1760 C.ar   93  TRP93       0.0001
     85  CH2      -23.4650    7.7570   25.0580 C.ar   93  TRP93       0.0015
     86  N        -23.5030   12.8490   25.6880 N.am   94  TYR94      -0.1960
     87  CA       -24.8390   12.5250   25.2050 C.3    94  TYR94       0.1771
     88  C        -25.3840   13.6440   24.3240 C.2    94  TYR94       0.2619
     89  O        -25.9530   13.3910   23.2560 O.2    94  TYR94      -0.2715
     90  CB       -25.8050   12.3090   26.3640 C.3    94  TYR94       0.0574
     91  CG       -27.2010   12.0010   25.8850 C.ar   94  TYR94      -0.0198
     92  CD1      -27.5300   10.7370   25.4080 C.ar   94  TYR94      -0.0009
     93  CD2      -28.1760   12.9940   25.8410 C.ar   94  TYR94      -0.0009
     94  CE1      -28.7920   10.4680   24.8960 C.ar   94  TYR94       0.0417
     95  CE2      -29.4400   12.7370   25.3310 C.ar   94  TYR94       0.0417
     96  CZ       -29.7420   11.4730   24.8620 C.ar   94  TYR94       0.1957
     97  OH       -30.9980   11.2030   24.3700 O.3    94  TYR94      -0.2866
     98  N        -25.2060   14.8800   24.7790 N.am   95  LEU95      -0.1977
     99  CA       -25.6780   16.0320   24.0340 C.3    95  LEU95       0.1596
    100  C        -24.9260   16.2360   22.7190 C.2    95  LEU95       0.2287
    101  O        -25.5280   16.5780   21.7060 O.2    95  LEU95      -0.2864
    102  CB       -25.5640   17.2960   24.8890 C.3    95  LEU95       0.0297
    103  CG       -26.4450   17.3700   26.1390 C.3    95  LEU95       0.0022
    104  CD1      -26.1830   18.6700   26.8710 C.3    95  LEU95       0.0001
    105  CD2      -27.9090   17.2920   25.7420 C.3    95  LEU95       0.0001
    106  N        -26.1140   13.0220   20.5250 N.3    98  TYR98      -0.1241
    107  CA       -27.5380   12.7670   20.3090 C.3    98  TYR98       0.1605
    108  C        -28.5670   13.8930   20.4240 C.2    98  TYR98       0.2264
    109  O        -29.7600   13.6250   20.2990 O.2    98  TYR98      -0.2867
    110  CB       -27.9660   11.6230   21.2240 C.3    98  TYR98       0.0534
    111  CG       -27.0280   10.4430   21.1770 C.ar   98  TYR98      -0.0201
    112  CD1      -26.8600    9.7020   20.0090 C.ar   98  TYR98      -0.0009
    113  CD2      -26.3030   10.0670   22.3050 C.ar   98  TYR98      -0.0009
    114  CE1      -25.9910    8.6150   19.9670 C.ar   98  TYR98       0.0417
    115  CE2      -25.4340    8.9850   22.2750 C.ar   98  TYR98       0.0417
    116  CZ       -25.2800    8.2620   21.1040 C.ar   98  TYR98       0.1957
    117  OH       -24.4030    7.2000   21.0720 O.3    98  TYR98      -0.2866
@<TRIPOS>BOND
     1    12    13    1
     2    12    11    1
     3    13    14    2
     4    10    11    1
     5    10     7    1
     6    14    16    1
     7    14    15    1
     8     6     7    1
     9     7     8    1
    10     8     9    2
    11   114   112   ar
    12   114   116   ar
    13   112   111   ar
    14   109   108    2
    15   107   108    1
    16   107   106    1
    17   107   110    1
    18   117   116    1
    19   116   115   ar
    20   111   110    1
    21   111   113   ar
    22    23    17    1
    23    23    22    1
    24    17    18    1
    25   101   100    2
    26   115   113   ar
    27    18    21    1
    28    18    19    1
    29    22    21    1
    30   100    99    1
    31    89    88    2
    32    80    78   ar
    33    80    81   ar
    34    19    20    2
    35    19    24   am
    36    75    74    2
    37    78    77   ar
    38    24    25    1
    39    99    98    1
    40    99   102    1
    41    83    81   ar
    42    83    85   ar
    43    81    79   ar
    44    88    98   am
    45    88    87    1
    46    97    96    1
    47    26    25    1
    48    26    27    2
    49    74    73    1
    50    74    86   am
    51    96    94   ar
    52    96    95   ar
    53   102   103    1
    54    94    92   ar
    55    85    84   ar
    56    25    28    1
    57    77    79   ar
    58    77    76    1
    59    68    67    2
    60    87    86    1
    61    87    90    1
    62    79    82   ar
    63    95    93   ar
    64    92    91   ar
    65    73    76    1
    66    73    72    1
    67    28    29    1
    68    31    29   ar
    69    31    33   ar
    70   105   103    1
    71    93    91   ar
    72    91    90    1
    73    29    30   ar
    74    33    34   ar
    75   103   104    1
    76    84    82   ar
    77    67    72   am
    78    67    66    1
    79    70    69    1
    80    30    32   ar
    81    34    32   ar
    82    66    69    1
    83    66    65    1
    84    60    59    2
    85    69    71    1
    86     4     3    2
    87    54    53    2
    88    59    65   am
    89    59    58    1
    90     3     2    1
    91    53    52    1
    92    53    57   am
    93    58    57    1
    94    58    61    1
    95    52    51    1
    96    52    55    1
    97     2     5    1
    98     2     1    1
    99    63    61    1
   100    61    62    1
   101    55    56    1
   102    46    45    2
   103    62    64    1
   104    45    44    1
   105    49    48    1
   106    38    37    2
   107    48    50    1
   108    48    47    1
   109    44    47    1
   110    44    43    1
   111    37    43   am
   112    37    36    1
   113    36    35    1
   114    36    39    1
   115    41    40    1
   116    40    39    1
   117    40    42    1
