@<TRIPOS>MOLECULE
tmp/5eikA00.pdb
 168 154 0 0 0
SMALL
GASTEIGER

@<TRIPOS>ATOM
      1  N        -13.7540   16.3300   19.1440 N.3    33  SER33      -0.1217
      2  CA       -12.5500   15.7310   18.5890 C.3    33  SER33       0.1889
      3  C        -12.7830   14.2470   18.2970 C.2    33  SER33       0.2288
      4  O        -12.4630   13.7550   17.2120 O.2    33  SER33      -0.2866
      5  CB       -11.3830   15.9190   19.5620 C.3    33  SER33       0.2089
      6  OG       -10.1860   15.3910   19.0250 O.3    33  SER33      -0.2183
      7  N        -10.8150   10.0590   26.7160 N.3    60  MET60      -0.1245
      8  CA       -10.1780   11.2650   26.2250 C.3    60  MET60       0.1570
      9  C        -10.4620   12.4490   27.1480 C.2    60  MET60       0.2261
     10  O         -9.6030   13.2950   27.3620 O.2    60  MET60      -0.2867
     11  CB       -10.6710   11.5810   24.8140 C.3    60  MET60       0.0387
     12  CG       -10.1240   10.6600   23.7470 C.3    60  MET60       0.0595
     13  SD        -8.3300   10.7960   23.6080 S.3    60  MET60      -0.1393
     14  CE        -8.1990   12.3960   22.8400 C.3    60  MET60       0.0692
     15  N         -3.3550    9.0450   32.6670 N.3    67  LEU67      -0.1245
     16  CA        -1.9180    8.9310   32.4770 C.3    67  LEU67       0.1561
     17  C         -1.1980    9.2100   33.7950 C.2    67  LEU67       0.2260
     18  O         -0.2470    8.5150   34.1670 O.2    67  LEU67      -0.2867
     19  CB        -1.4460    9.9110   31.4060 C.3    67  LEU67       0.0270
     20  CG         0.0260    9.7730   31.0040 C.3    67  LEU67       0.0019
     21  CD1        0.3500    8.3050   30.7410 C.3    67  LEU67       0.0001
     22  CD2        0.2930   10.6180   29.7600 C.3    67  LEU67       0.0001
     23  N         -1.3880    6.3170   36.0190 N.3    70  PHE70      -0.1227
     24  CA        -0.5180    5.3020   35.4600 C.3    70  PHE70       0.1736
     25  C          0.9370    5.5460   35.8870 C.2    70  PHE70       0.2595
     26  O          1.6190    4.6280   36.3280 O.2    70  PHE70      -0.2718
     27  CB        -0.6230    5.3060   33.9360 C.3    70  PHE70       0.0547
     28  CG         0.3530    4.3870   33.2580 C.ar   70  PHE70      -0.0202
     29  CD1        0.2090    3.0060   33.3360 C.ar   70  PHE70      -0.0042
     30  CD2        1.4330    4.9070   32.5580 C.ar   70  PHE70      -0.0042
     31  CE1        1.1360    2.1530   32.7300 C.ar   70  PHE70      -0.0003
     32  CE2        2.3650    4.0640   31.9520 C.ar   70  PHE70      -0.0003
     33  CZ         2.2140    2.6870   32.0380 C.ar   70  PHE70      -0.0000
     34  N          1.4020    6.7860   35.7760 N.am   71  LEU71      -0.1980
     35  CA         2.7770    7.1080   36.1410 C.3    71  LEU71       0.1596
     36  C          3.0750    6.9540   37.6280 C.2    71  LEU71       0.2287
     37  O          4.1610    6.5130   38.0080 O.2    71  LEU71      -0.2864
     38  CB         3.1190    8.5370   35.7150 C.3    71  LEU71       0.0297
     39  CG         2.9880    8.8570   34.2250 C.3    71  LEU71       0.0022
     40  CD1        3.3560   10.3090   34.0160 C.3    71  LEU71       0.0001
     41  CD2        3.8870    7.9380   33.3970 C.3    71  LEU71       0.0001
     42  N        -11.0710   26.1860   27.8640 N.3   121  LYS121     -0.1245
     43  CA       -10.3080   24.9530   27.9720 C.3   121  LYS121      0.1561
     44  C         -8.8520   25.2310   28.3450 C.2   121  LYS121      0.2260
     45  O         -8.2680   24.5250   29.1710 O.2   121  LYS121     -0.2867
     46  CB       -10.3490   24.1590   26.6650 C.3   121  LYS121      0.0271
     47  CG        -9.5780   22.8490   26.7620 C.3   121  LYS121      0.0035
     48  CD        -9.3840   22.1960   25.4220 C.3   121  LYS121      0.0206
     49  CE        -8.4140   21.0280   25.5310 C.3   121  LYS121      0.1093
     50  NZ        -7.9880   20.5520   24.1800 N.3   121  LYS121     -0.1314
     51  N         -6.7120   23.7040   31.3880 N.3   125  ARG125     -0.1245
     52  CA        -5.4820   22.9450   31.1950 C.3   125  ARG125      0.1563
     53  C         -4.3910   23.4450   32.1490 C.2   125  ARG125      0.2260
     54  O         -3.6650   22.6470   32.7570 O.2   125  ARG125     -0.2867
     55  CB        -4.9820   23.0810   29.7580 C.3   125  ARG125      0.0307
     56  CG        -3.7230   22.2640   29.4890 C.3   125  ARG125      0.0489
     57  CD        -2.9890   22.7550   28.2560 C.3   125  ARG125      0.2205
     58  NE        -3.8500   22.7830   27.0760 N.pl3 125  ARG125     -0.0865
     59  CZ        -4.1530   21.7220   26.3350 C.cat 125  ARG125      0.5346
     60  NH1       -3.6610   20.5280   26.6420 N.pl3 125  ARG125      0.1354
     61  NH2       -4.9520   21.8570   25.2860 N.pl3 125  ARG125      0.1354
     62  N          7.2440   15.7720   34.8290 N.3   149  LEU149     -0.1245
     63  CA         6.5650   14.8110   33.9710 C.3   149  LEU149      0.1561
     64  C          5.0920   14.6430   34.3350 C.2   149  LEU149      0.2260
     65  O          4.2320   14.5510   33.4570 O.2   149  LEU149     -0.2867
     66  CB         7.2950   13.4680   34.0170 C.3   149  LEU149      0.0270
     67  CG         8.7360   13.5810   33.5150 C.3   149  LEU149      0.0019
     68  CD1        9.4590   12.2570   33.6990 C.3   149  LEU149      0.0001
     69  CD2        8.7300   14.0100   32.0480 C.3   149  LEU149      0.0001
     70  N          3.2040   17.5430   33.0270 N.3   152  VAL152     -0.1231
     71  CA         3.0340   17.4340   31.5860 C.3   152  VAL152      0.1692
     72  C          1.9740   16.3830   31.2470 C.2   152  VAL152      0.2591
     73  O          1.1780   16.5660   30.3230 O.2   152  VAL152     -0.2718
     74  CB         4.3710   17.0600   30.9100 C.3   152  VAL152      0.0266
     75  CG1        4.1880   16.9090   29.4150 C.3   152  VAL152      0.0020
     76  CG2        5.4060   18.1340   31.1970 C.3   152  VAL152      0.0020
     77  N          1.9590   15.2900   32.0040 N.am  153  ALA153     -0.1980
     78  CA         0.9960   14.2150   31.7710 C.3   153  ALA153      0.1597
     79  C         -0.4220   14.7300   31.9710 C.2   153  ALA153      0.2287
     80  O         -1.3220   14.3920   31.2070 O.2   153  ALA153     -0.2864
     81  CB         1.2700   13.0350   32.7110 C.3   153  ALA153      0.0319
     82  N         -1.3850   17.7920   31.6000 N.3   155  GLY155     -0.1210
     83  CA        -1.6970   18.7660   30.5670 C.3   155  GLY155      0.1956
     84  C         -1.7230   18.2850   29.1270 C.2   155  GLY155      0.2611
     85  O         -2.4560   18.8410   28.3100 O.2   155  GLY155     -0.2717
     86  N         -0.9480   17.2560   28.8010 N.am  156  ALA156     -0.1979
     87  CA        -0.9000   16.7660   27.4220 C.3   156  ALA156      0.1597
     88  C         -1.0760   15.2540   27.2400 C.2   156  ALA156      0.2287
     89  O         -0.7330   14.7100   26.1940 O.2   156  ALA156     -0.2864
     90  CB         0.4180   17.2020   26.7840 C.3   156  ALA156      0.0319
     91  N         -3.6210   13.5140   26.5520 N.3   158  SER158     -0.1202
     92  CA        -4.6260   13.0620   25.6010 C.3   158  SER158      0.2020
     93  C         -4.0090   12.3830   24.3720 C.2   158  SER158      0.2619
     94  O         -4.6460   11.5440   23.7320 O.2   158  SER158     -0.2717
     95  CB        -5.5360   14.2360   25.1760 C.3   158  SER158      0.2103
     96  OG        -4.8550   15.1540   24.3450 O.3   158  SER158     -0.2182
     97  N         -2.7670   12.7370   24.0570 N.am  159  GLY159     -0.1942
     98  CA        -2.0960   12.1530   22.9100 C.3   159  GLY159      0.2014
     99  C         -1.8660   10.6580   23.0610 C.2   159  GLY159      0.2638
    100  O         -1.9370    9.8960   22.0890 O.2   159  GLY159     -0.2714
    101  N         -1.5820   10.2350   24.2850 N.am  160  VAL160     -0.1977
    102  CA        -1.3550    8.8310   24.5500 C.3   160  VAL160      0.1596
    103  C         -2.6610    8.0710   24.4290 C.2   160  VAL160      0.2287
    104  O         -2.7390    7.0560   23.7350 O.2   160  VAL160     -0.2864
    105  CB        -0.7790    8.6140   25.9640 C.3   160  VAL160      0.0276
    106  CG1       -0.8280    7.1440   26.3280 C.3   160  VAL160      0.0022
    107  CG2        0.6490    9.0950   26.0040 C.3   160  VAL160      0.0022
    108  N         -5.3330    8.8610   22.8620 N.3   162  LYS162     -0.1231
    109  CA        -5.8500    8.8530   21.5000 C.3   162  LYS162      0.1693
    110  C         -5.3040    7.6180   20.7730 C.2   162  LYS162      0.2592
    111  O         -6.0530    6.8620   20.1670 O.2   162  LYS162     -0.2718
    112  CB        -5.4290   10.1260   20.7660 C.3   162  LYS162      0.0285
    113  CG        -6.1030   10.3130   19.4180 C.3   162  LYS162      0.0035
    114  CD        -5.8090   11.6950   18.8590 C.3   162  LYS162      0.0206
    115  CE        -6.6560   12.0030   17.6310 C.3   162  LYS162      0.1093
    116  NZ        -6.4830   13.4160   17.1720 N.3   162  LYS162     -0.1314
    117  N         -3.9910    7.4200   20.8450 N.am  163  ILE163     -0.1966
    118  CA        -3.3470    6.2760   20.2120 C.3   163  ILE163      0.1727
    119  C         -4.0000    4.9810   20.6980 C.2   163  ILE163      0.2616
    120  O         -4.2920    4.0830   19.8990 O.2   163  ILE163     -0.2715
    121  CB        -1.8410    6.2350   20.5470 C.3   163  ILE163      0.0290
    122  CG1       -1.1520    7.4340   19.8890 C.3   163  ILE163      0.0022
    123  CG2       -1.2220    4.8970   20.1000 C.3   163  ILE163      0.0023
    124  CD1        0.3140    7.5470   20.2220 C.3   163  ILE163      0.0001
    125  N         -4.2220    4.8880   22.0070 N.am  164  VAL164     -0.1977
    126  CA        -4.8550    3.7140   22.5720 C.3   164  VAL164      0.1596
    127  C         -6.2130    3.4700   21.9220 C.2   164  VAL164      0.2287
    128  O         -6.5370    2.3370   21.5650 O.2   164  VAL164     -0.2864
    129  CB        -5.0660    3.8460   24.0990 C.3   164  VAL164      0.0276
    130  CG1       -5.9200    2.6960   24.5950 C.3   164  VAL164      0.0022
    131  CG2       -3.7250    3.8120   24.8110 C.3   164  VAL164      0.0022
    132  N         -6.1130    2.2510   18.3060 N.3   167  LEU167     -0.1245
    133  CA        -5.6710    0.8720   18.2260 C.3   167  LEU167      0.1561
    134  C         -6.8830   -0.0200   18.5150 C.2   167  LEU167      0.2260
    135  O         -7.1400   -0.9940   17.8080 O.2   167  LEU167     -0.2867
    136  CB        -4.5620    0.6090   19.2480 C.3   167  LEU167      0.0270
    137  CG        -3.1720    1.1730   18.9360 C.3   167  LEU167      0.0019
    138  CD1       -2.2610    0.9930   20.1490 C.3   167  LEU167      0.0001
    139  CD2       -2.5990    0.4660   17.7080 C.3   167  LEU167      0.0001
    140  N          1.8460   22.0840   16.1480 N.3   183  SER183     -0.1217
    141  CA         1.2200   22.1390   17.4660 C.3   183  SER183      0.1889
    142  C          2.2750   22.3810   18.5420 C.2   183  SER183      0.2288
    143  O          3.2240   21.6100   18.6750 O.2   183  SER183     -0.2866
    144  CB         0.4760   20.8340   17.7540 C.3   183  SER183      0.2089
    145  OG        -0.2580   20.9240   18.9630 O.3   183  SER183     -0.2183
    146  N          1.2960   22.8850   21.7850 N.3   185  THR185     -0.1203
    147  CA         0.6350   22.5220   23.0300 C.3   185  THR185      0.1994
    148  C          1.4800   21.7740   24.0600 C.2   185  THR185      0.2618
    149  O          1.7000   22.2730   25.1700 O.2   185  THR185     -0.2717
    150  CB        -0.6300   21.6900   22.7580 C.3   185  THR185      0.1784
    151  OG1       -1.4470   22.3740   21.8000 O.3   185  THR185     -0.2211
    152  CG2       -1.4320   21.4970   24.0490 C.3   185  THR185      0.0376
    153  N          1.9510   20.5820   23.7030 N.am  186  THR186     -0.1952
    154  CA         2.7320   19.7890   24.6360 C.3   186  THR186      0.1897
    155  C          4.0820   20.4140   24.9840 C.2   186  THR186      0.2313
    156  O          4.5470   20.2980   26.1180 O.2   186  THR186     -0.2863
    157  CB         2.8830   18.3060   24.1440 C.3   186  THR186      0.1794
    158  OG1        4.2090   17.8270   24.4130 O.3   186  THR186     -0.2208
    159  CG2        2.5540   18.1770   22.6810 C.3   186  THR186      0.0378
    160  N         -3.0000   28.7590   21.2890 N.3   224  LYS224     -0.1245
    161  CA        -4.2250   28.0790   20.9020 C.3   224  LYS224      0.1561
    162  C         -5.0150   28.9180   19.8970 C.2   224  LYS224      0.2260
    163  O         -5.4400   28.4120   18.8570 O.2   224  LYS224     -0.2867
    164  CB        -5.0840   27.7860   22.1350 C.3   224  LYS224      0.0271
    165  CG        -6.4850   27.2800   21.8200 C.3   224  LYS224      0.0035
    166  CD        -6.4750   26.0730   20.8910 C.3   224  LYS224      0.0206
    167  CE        -5.7400   24.8970   21.5060 C.3   224  LYS224      0.1093
    168  NZ        -5.9200   23.6560   20.6990 N.3   224  LYS224     -0.1314
@<TRIPOS>BOND
     1   140   141    1
     2   116   115    1
     3     4     3    2
     4   141   144    1
     5   141   142    1
     6   115   114    1
     7   139   137    1
     8   144   145    1
     9   135   134    2
    10   133   132    1
    11   133   134    1
    12   133   136    1
    13     3     2    1
    14   142   143    2
    15     2     1    1
    16     2     5    1
    17   163   162    2
    18   114   113    1
    19   137   136    1
    20   137   138    1
    21     6     5    1
    22   113   112    1
    23   122   124    1
    24   122   121    1
    25   162   161    1
    26   120   119    2
    27   123   121    1
    28   111   110    2
    29   118   121    1
    30   118   119    1
    31   118   117    1
    32   119   125   am
    33   168   167    1
    34   112   109    1
    35   110   117   am
    36   110   109    1
    37   166   167    1
    38   166   165    1
    39   161   160    1
    40   161   164    1
    41   109   108    1
    42   128   127    2
    43   146   147    1
    44   151   150    1
    45   165   164    1
    46   127   126    1
    47   125   126    1
    48   100    99    2
    49   126   129    1
    50   159   157    1
    51   150   147    1
    52   150   152    1
    53    14    13    1
    54    98    99    1
    55    98    97    1
    56   147   148    1
    57    99   101   am
    58    13    12    1
    59   153   148   am
    60   153   154    1
    61    94    93    2
    62   104   103    2
    63    12    11    1
    64    97    93   am
    65   148   149    2
    66   129   130    1
    67   129   131    1
    68   157   158    1
    69   157   154    1
    70    50    49    1
    71   101   102    1
    72    96    95    1
    73    93    92    1
    74   103   102    1
    75   102   105    1
    76   154   155    1
    77    11     8    1
    78   155   156    2
    79    95    92    1
    80    61    59    1
    81    48    49    1
    82    48    47    1
    83    92    91    1
    84   105   107    1
    85   105   106    1
    86    89    88    2
    87     8     7    1
    88     8     9    1
    89    59    60    1
    90    59    58    2
    91    46    47    1
    92    46    43    1
    93    90    87    1
    94    58    57    1
    95     9    10    2
    96    88    87    1
    97    87    86    1
    98    42    43    1
    99    43    44    1
   100    57    56    1
   101    85    84    2
   102    44    45    2
   103    86    84   am
   104    84    83    1
   105    75    74    1
   106    56    55    1
   107    55    52    1
   108    22    20    1
   109    73    72    2
   110    83    82    1
   111    21    20    1
   112    74    76    1
   113    74    71    1
   114    20    19    1
   115    52    51    1
   116    52    53    1
   117    80    79    2
   118    72    71    1
   119    72    77   am
   120    19    16    1
   121    71    70    1
   122    78    79    1
   123    78    77    1
   124    78    81    1
   125    32    33   ar
   126    32    30   ar
   127    33    31   ar
   128    69    67    1
   129    53    54    2
   130    16    15    1
   131    16    17    1
   132    30    28   ar
   133    31    29   ar
   134    28    29   ar
   135    28    27    1
   136    41    39    1
   137    65    64    2
   138    67    68    1
   139    67    66    1
   140    17    18    2
   141    27    24    1
   142    63    66    1
   143    63    64    1
   144    63    62    1
   145    40    39    1
   146    39    38    1
   147    24    25    1
   148    24    23    1
   149    38    35    1
   150    34    25   am
   151    34    35    1
   152    25    26    2
   153    35    36    1
   154    36    37    2
