@<TRIPOS>MOLECULE
tmp/5eikA05.pdb
 86 77 0 0 0
SMALL
GASTEIGER

@<TRIPOS>ATOM
      1  N         12.1680   15.9150   38.4680 N.3   145  LEU145     -0.1245
      2  CA        11.8250   15.3290   37.1860 C.3   145  LEU145      0.1561
      3  C         10.4280   14.7230   37.2060 C.2   145  LEU145      0.2260
      4  O          9.6260   14.9860   36.3180 O.2   145  LEU145     -0.2867
      5  CB        12.8530   14.2710   36.8170 C.3   145  LEU145      0.0270
      6  CG        12.8830   13.8670   35.3460 C.3   145  LEU145      0.0019
      7  CD1       12.8530   15.1120   34.4710 C.3   145  LEU145      0.0001
      8  CD2       14.1400   13.0480   35.0840 C.3   145  LEU145      0.0001
      9  N          7.8030   17.3620   37.1450 N.3   148  ILE148     -0.1231
     10  CA         7.6050   17.9590   35.8420 C.3   148  ILE148      0.1692
     11  C          6.8170   17.0260   34.9220 C.2   148  ILE148      0.2591
     12  O          5.8220   17.4340   34.3220 O.2   148  ILE148     -0.2718
     13  CB         8.9600   18.3270   35.2050 C.3   148  ILE148      0.0266
     14  CG1        9.6310   19.4190   36.0380 C.3   148  ILE148      0.0019
     15  CG2        8.7660   18.8530   33.7990 C.3   148  ILE148      0.0020
     16  CD1       11.0750   19.7010   35.6290 C.3   148  ILE148      0.0001
     17  N          7.2440   15.7720   34.8290 N.am  149  LEU149     -0.1980
     18  CA         6.5650   14.8110   33.9710 C.3   149  LEU149      0.1596
     19  C          5.0920   14.6430   34.3350 C.2   149  LEU149      0.2287
     20  O          4.2320   14.5510   33.4570 O.2   149  LEU149     -0.2864
     21  CB         7.2950   13.4680   34.0170 C.3   149  LEU149      0.0297
     22  CG         8.7360   13.5810   33.5150 C.3   149  LEU149      0.0022
     23  CD1        9.4590   12.2570   33.6990 C.3   149  LEU149      0.0001
     24  CD2        8.7300   14.0100   32.0480 C.3   149  LEU149      0.0001
     25  N          3.2040   17.5430   33.0270 N.3   152  VAL152     -0.1245
     26  CA         3.0340   17.4340   31.5860 C.3   152  VAL152      0.1561
     27  C          1.9740   16.3830   31.2470 C.2   152  VAL152      0.2260
     28  O          1.1780   16.5660   30.3230 O.2   152  VAL152     -0.2867
     29  CB         4.3710   17.0600   30.9100 C.3   152  VAL152      0.0252
     30  CG1        4.1880   16.9090   29.4150 C.3   152  VAL152      0.0019
     31  CG2        5.4060   18.1340   31.1970 C.3   152  VAL152      0.0019
     32  N          1.9760    8.2760   10.7830 N.3   175  THR175     -0.1218
     33  CA         1.6740    9.6700   10.5030 C.3   175  THR175      0.1862
     34  C          2.8550   10.2980    9.7660 C.2   175  THR175      0.2287
     35  O          3.1330   11.4890    9.9080 O.2   175  THR175     -0.2866
     36  CB         1.3950   10.4480   11.8110 C.3   175  THR175      0.1770
     37  OG1        0.8260   11.7240   11.4960 O.3   175  THR175     -0.2211
     38  CG2        2.6820   10.6510   12.6060 C.3   175  THR175      0.0375
     39  N          1.2980   19.7560   10.6080 N.3   181  ARG181     -0.1245
     40  CA         0.5130   20.2990   11.7110 C.3   181  ARG181      0.1563
     41  C          1.4010   20.8600   12.8220 C.2   181  ARG181      0.2260
     42  O          1.9680   20.1060   13.6160 O.2   181  ARG181     -0.2867
     43  CB        -0.4000   19.2100   12.2770 C.3   181  ARG181      0.0307
     44  CG        -1.3110   18.5760   11.2390 C.3   181  ARG181      0.0489
     45  CD        -2.2730   19.5970   10.6610 C.3   181  ARG181      0.2205
     46  NE        -3.2030   20.0900   11.6710 N.pl3 181  ARG181     -0.0865
     47  CZ        -4.0770   21.0700   11.4680 C.cat 181  ARG181      0.5346
     48  NH1       -4.1430   21.6700   10.2870 N.pl3 181  ARG181      0.1354
     49  NH2       -4.8880   21.4480   12.4470 N.pl3 181  ARG181      0.1354
     50  N          1.8460   22.0840   16.1480 N.3   183  SER183     -0.1217
     51  CA         1.2200   22.1390   17.4660 C.3   183  SER183      0.1889
     52  C          2.2750   22.3810   18.5420 C.2   183  SER183      0.2288
     53  O          3.2240   21.6100   18.6750 O.2   183  SER183     -0.2866
     54  CB         0.4760   20.8340   17.7540 C.3   183  SER183      0.2089
     55  OG        -0.2580   20.9240   18.9630 O.3   183  SER183     -0.2183
     56  N          1.9510   20.5820   23.7030 N.3   186  THR186     -0.1203
     57  CA         2.7320   19.7890   24.6360 C.3   186  THR186      0.1994
     58  C          4.0820   20.4140   24.9840 C.2   186  THR186      0.2617
     59  O          4.5470   20.2980   26.1180 O.2   186  THR186     -0.2717
     60  CB         2.8830   18.3060   24.1440 C.3   186  THR186      0.1784
     61  OG1        4.2090   17.8270   24.4130 O.3   186  THR186     -0.2211
     62  CG2        2.5540   18.1770   22.6810 C.3   186  THR186      0.0376
     63  N          4.7020   21.0980   24.0340 N.am  187  LYS187     -0.1979
     64  CA         5.9660   21.7610   24.3220 C.3   187  LYS187      0.1596
     65  C          5.6620   22.8900   25.3280 C.2   187  LYS187      0.2287
     66  O          6.4650   23.1830   26.2170 O.2   187  LYS187     -0.2864
     67  CB         6.5710   22.3270   23.0350 C.3   187  LYS187      0.0298
     68  CG         8.0730   22.4890   23.0700 C.3   187  LYS187      0.0038
     69  CD         8.6630   22.3420   21.6700 C.3   187  LYS187      0.0206
     70  CE         8.3770   20.9500   21.1030 C.3   187  LYS187      0.1093
     71  NZ         8.8200   20.7790   19.6920 N.3   187  LYS187     -0.1314
     72  N          5.2100   21.4720   28.7460 N.3   190  VAL190     -0.1245
     73  CA         6.5080   21.1490   29.3320 C.3   190  VAL190      0.1561
     74  C          7.0370   22.3920   30.0240 C.2   190  VAL190      0.2260
     75  O          7.4090   22.3490   31.2020 O.2   190  VAL190     -0.2867
     76  CB         7.5210   20.6730   28.2550 C.3   190  VAL190      0.0252
     77  CG1        8.9150   20.4890   28.8690 C.3   190  VAL190      0.0019
     78  CG2        7.0500   19.3470   27.6590 C.3   190  VAL190      0.0019
     79  N          7.6300   22.9490   34.0200 N.3   194  ILE194     -0.1245
     80  CA         8.9300   23.2820   34.5860 C.3   194  ILE194      0.1561
     81  C          8.7730   24.5320   35.4570 C.2   194  ILE194      0.2260
     82  O          9.2030   24.5660   36.6140 O.2   194  ILE194     -0.2867
     83  CB         9.9580   23.5660   33.4700 C.3   194  ILE194      0.0252
     84  CG1       10.3920   22.2550   32.8210 C.3   194  ILE194      0.0019
     85  CG2       11.1460   24.3420   34.0280 C.3   194  ILE194      0.0019
     86  CD1       11.2470   22.4460   31.5890 C.3   194  ILE194      0.0001
@<TRIPOS>BOND
     1    34    35    2
     2    34    33    1
     3    48    47    1
     4    33    32    1
     5    33    36    1
     6    39    40    1
     7    45    44    1
     8    45    46    1
     9    44    43    1
    10    47    46    2
    11    47    49    1
    12    37    36    1
    13    40    43    1
    14    40    41    1
    15    36    38    1
    16    41    42    2
    17    50    51    1
    18    51    54    1
    19    51    52    1
    20    54    55    1
    21    52    53    2
    22    71    70    1
    23    70    69    1
    24    69    68    1
    25    62    60    1
    26    67    68    1
    27    67    64    1
    28    56    57    1
    29    63    64    1
    30    63    58   am
    31    60    61    1
    32    60    57    1
    33    64    65    1
    34    57    58    1
    35    58    59    2
    36    65    66    2
    37    78    76    1
    38    76    77    1
    39    76    73    1
    40    72    73    1
    41    73    74    1
    42    30    29    1
    43    74    75    2
    44    28    27    2
    45    29    31    1
    46    29    26    1
    47    27    26    1
    48    26    25    1
    49    86    84    1
    50    24    22    1
    51    84    83    1
    52    20    19    2
    53    83    85    1
    54    83    80    1
    55    22    23    1
    56    22    21    1
    57    15    13    1
    58    18    21    1
    59    18    19    1
    60    18    17    1
    61    79    80    1
    62    12    11    2
    63     7     6    1
    64    80    81    1
    65    17    11   am
    66    11    10    1
    67     8     6    1
    68    13    10    1
    69    13    14    1
    70     6     5    1
    71    81    82    2
    72    16    14    1
    73    10     9    1
    74     4     3    2
    75     5     2    1
    76     2     3    1
    77     2     1    1
