@<TRIPOS>MOLECULE
tmp/5eitA01.pdb
 167 156 0 0 0
SMALL
GASTEIGER

@<TRIPOS>ATOM
      1  N        -25.5240  -32.9170   -3.6460 N.3    39  MET39      -0.1245
      2  CA       -25.6320  -31.5810   -4.2200 C.3    39  MET39       0.1570
      3  C        -26.2630  -30.6180   -3.2200 C.2    39  MET39       0.2261
      4  O        -25.9230  -29.4350   -3.1800 O.2    39  MET39      -0.2867
      5  CB       -26.4430  -31.6120   -5.5140 C.3    39  MET39       0.0387
      6  CG       -25.6890  -32.1900   -6.6960 C.3    39  MET39       0.0595
      7  SD       -24.1650  -31.2860   -7.0330 S.3    39  MET39      -0.1393
      8  CE       -24.8050  -29.6450   -7.3520 C.3    39  MET39       0.0692
      9  N        -23.4700  -29.5870   -0.6270 N.3    42  LEU42      -0.1231
     10  CA       -22.4800  -28.6890   -1.2110 C.3    42  LEU42       0.1693
     11  C        -23.0200  -27.2730   -1.3730 C.2    42  LEU42       0.2592
     12  O        -22.3650  -26.3030   -0.9900 O.2    42  LEU42      -0.2718
     13  CB       -22.0100  -29.2220   -2.5650 C.3    42  LEU42       0.0284
     14  CG       -20.7580  -30.1030   -2.5740 C.3    42  LEU42       0.0019
     15  CD1      -20.8870  -31.2640   -1.6010 C.3    42  LEU42       0.0001
     16  CD2      -20.4860  -30.6090   -3.9810 C.3    42  LEU42       0.0001
     17  N        -24.2160  -27.1580   -1.9400 N.am   43  THR43      -0.1953
     18  CA       -24.8120  -25.8510   -2.1870 C.3    43  THR43       0.1897
     19  C        -25.2180  -25.1680   -0.8830 C.2    43  THR43       0.2313
     20  O        -25.0830  -23.9520   -0.7460 O.2    43  THR43      -0.2863
     21  CB       -26.0360  -25.9550   -3.1160 C.3    43  THR43       0.1794
     22  OG1      -26.9860  -26.8740   -2.5640 O.3    43  THR43      -0.2208
     23  CG2      -25.6150  -26.4400   -4.4940 C.3    43  THR43       0.0378
     24  N        -23.7510  -25.5970    2.0120 N.3    45  LEU45      -0.1231
     25  CA       -22.4910  -25.1780    2.6110 C.3    45  LEU45       0.1693
     26  C        -21.9550  -23.9280    1.9250 C.2    45  LEU45       0.2591
     27  O        -21.5120  -22.9900    2.5850 O.2    45  LEU45      -0.2718
     28  CB       -21.4590  -26.3040    2.5270 C.3    45  LEU45       0.0284
     29  CG       -20.0520  -25.9900    3.0350 C.3    45  LEU45       0.0019
     30  CD1      -20.0300  -25.9090    4.5540 C.3    45  LEU45       0.0001
     31  CD2      -19.0650  -27.0280    2.5280 C.3    45  LEU45       0.0001
     32  N        -22.0020  -23.9260    0.5960 N.am   46  ALA46      -0.1980
     33  CA       -21.5230  -22.7980   -0.1950 C.3    46  ALA46       0.1597
     34  C        -22.3440  -21.5410    0.0680 C.2    46  ALA46       0.2287
     35  O        -21.8060  -20.4340    0.1060 O.2    46  ALA46      -0.2864
     36  CB       -21.5520  -23.1420   -1.6710 C.3    46  ALA46       0.0319
     37  N        -21.0710  -20.3130    3.2900 N.3    49  GLU49      -0.1245
     38  CA       -19.6840  -19.8700    3.1420 C.3    49  GLU49       0.1567
     39  C        -19.5870  -18.5270    2.4240 C.2    49  GLU49       0.2260
     40  O        -18.6900  -17.7290    2.7030 O.2    49  GLU49      -0.2867
     41  CB       -18.8580  -20.9060    2.3780 C.3    49  GLU49       0.0388
     42  CG       -18.4710  -22.1330    3.1740 C.3    49  GLU49       0.1160
     43  CD       -17.4720  -22.9980    2.4320 C.2    49  GLU49       0.3649
     44  OE1      -17.8960  -23.8080    1.5810 O.co2  49  GLU49      -0.2457
     45  OE2      -16.2590  -22.8560    2.6930 O.co2  49  GLU49      -0.2457
     46  N        -15.9970  -16.2180   -6.9510 N.3    79  TRP79      -0.1227
     47  CA       -16.5190  -16.8100   -5.7180 C.3    79  TRP79       0.1737
     48  C        -16.3180  -18.3260   -5.6790 C.2    79  TRP79       0.2595
     49  O        -16.0510  -18.8920   -4.6190 O.2    79  TRP79      -0.2718
     50  CB       -18.0020  -16.4710   -5.5330 C.3    79  TRP79       0.0564
     51  CG       -18.9150  -17.1170   -6.5240 C.ar   79  TRP79       0.0003
     52  CD1      -19.3200  -16.6020   -7.7190 C.ar   79  TRP79       0.0946
     53  CD2      -19.5460  -18.3990   -6.4040 C.ar   79  TRP79       0.0152
     54  NE1      -20.1630  -17.4840   -8.3520 N.ar   79  TRP79      -0.2442
     55  CE2      -20.3160  -18.5970   -7.5660 C.ar   79  TRP79       0.0810
     56  CE3      -19.5320  -19.4010   -5.4270 C.ar   79  TRP79       0.0012
     57  CZ2      -21.0670  -19.7540   -7.7800 C.ar   79  TRP79       0.0191
     58  CZ3      -20.2760  -20.5500   -5.6420 C.ar   79  TRP79       0.0001
     59  CH2      -21.0330  -20.7160   -6.8080 C.ar   79  TRP79       0.0015
     60  N        -16.4270  -18.9780   -6.8310 N.am   80  LEU80      -0.1980
     61  CA       -16.2470  -20.4250   -6.8920 C.3    80  LEU80       0.1596
     62  C        -14.7660  -20.7960   -6.8360 C.2    80  LEU80       0.2287
     63  O        -14.4050  -21.8380   -6.2920 O.2    80  LEU80      -0.2864
     64  CB       -16.8950  -20.9990   -8.1530 C.3    80  LEU80       0.0297
     65  CG       -16.9730  -22.5260   -8.2200 C.3    80  LEU80       0.0022
     66  CD1      -17.6160  -23.0900   -6.9600 C.3    80  LEU80       0.0001
     67  CD2      -17.7330  -22.9760   -9.4590 C.3    80  LEU80       0.0001
     68  N        -13.9270  -20.4590   -3.1550 N.3    83  LEU83      -0.1231
     69  CA       -14.4580  -21.6150   -2.4390 C.3    83  LEU83       0.1693
     70  C        -13.5960  -22.8520   -2.6610 C.2    83  LEU83       0.2591
     71  O        -13.3450  -23.6190   -1.7310 O.2    83  LEU83      -0.2718
     72  CB       -15.8960  -21.9110   -2.8710 C.3    83  LEU83       0.0284
     73  CG       -17.0160  -21.0480   -2.2910 C.3    83  LEU83       0.0019
     74  CD1      -18.3670  -21.5890   -2.7290 C.3    83  LEU83       0.0001
     75  CD2      -16.9250  -20.9890   -0.7760 C.3    83  LEU83       0.0001
     76  N        -13.1420  -23.0400   -3.8960 N.am   84  MET84      -0.1979
     77  CA       -12.3970  -24.2410   -4.2590 C.3    84  MET84       0.1605
     78  C        -10.9730  -24.2360   -3.7100 C.2    84  MET84       0.2287
     79  O        -10.4930  -25.2600   -3.2290 O.2    84  MET84      -0.2864
     80  CB       -12.3790  -24.4140   -5.7790 C.3    84  MET84       0.0413
     81  CG       -13.6840  -24.9710   -6.3350 C.3    84  MET84       0.0598
     82  SD       -13.7100  -25.1150   -8.1290 S.3    84  MET84      -0.1393
     83  CE       -15.2230  -26.0430   -8.3730 C.3    84  MET84       0.0692
     84  N        -11.3000  -25.1530   -0.2930 N.3    87  LEU87      -0.1245
     85  CA       -11.5360  -26.5910   -0.2280 C.3    87  LEU87       0.1561
     86  C        -10.2440  -27.3690   -0.4490 C.2    87  LEU87       0.2260
     87  O         -9.9590  -28.3340    0.2610 O.2    87  LEU87      -0.2867
     88  CB       -12.5840  -27.0060   -1.2630 C.3    87  LEU87       0.0270
     89  CG       -12.7000  -28.4980   -1.5810 C.3    87  LEU87       0.0019
     90  CD1      -13.1700  -29.2820   -0.3700 C.3    87  LEU87       0.0001
     91  CD2      -13.6340  -28.7190   -2.7600 C.3    87  LEU87       0.0001
     92  N         -7.9740  -27.0040    2.6740 N.3    90  ARG90      -0.1245
     93  CA        -8.4080  -27.7940    3.8250 C.3    90  ARG90       0.1563
     94  C         -8.1710  -29.2840    3.5980 C.2    90  ARG90       0.2260
     95  O         -7.9750  -30.0410    4.5490 O.2    90  ARG90      -0.2867
     96  CB        -9.8890  -27.5500    4.1320 C.3    90  ARG90       0.0307
     97  CG       -10.2340  -26.1200    4.5100 C.3    90  ARG90       0.0489
     98  CD       -11.6810  -26.0020    4.9710 C.3    90  ARG90       0.2205
     99  NE       -12.6290  -26.5420    3.9980 N.pl3  90  ARG90      -0.0865
    100  CZ       -13.2260  -25.8220    3.0520 C.cat  90  ARG90       0.5346
    101  NH1      -12.9750  -24.5240    2.9440 N.pl3  90  ARG90       0.1354
    102  NH2      -14.0760  -26.4000    2.2130 N.pl3  90  ARG90       0.1354
    103  N        -14.7080  -30.7790    2.4190 N.3   100  PHE100     -0.1241
    104  CA       -15.7070  -29.7290    2.2410 C.3   100  PHE100      0.1605
    105  C        -16.0500  -29.1260    3.5930 C.2   100  PHE100      0.2264
    106  O        -16.2200  -27.9170    3.7280 O.2   100  PHE100     -0.2867
    107  CB       -16.9670  -30.2800    1.5680 C.3   100  PHE100      0.0534
    108  CG       -16.7790  -30.6260    0.1200 C.ar  100  PHE100     -0.0203
    109  CD1      -17.0720  -29.7000   -0.8690 C.ar  100  PHE100     -0.0042
    110  CD2      -16.3100  -31.8740   -0.2540 C.ar  100  PHE100     -0.0042
    111  CE1      -16.9010  -30.0130   -2.2050 C.ar  100  PHE100     -0.0003
    112  CE2      -16.1360  -32.1940   -1.5900 C.ar  100  PHE100     -0.0003
    113  CZ       -16.4320  -31.2610   -2.5670 C.ar  100  PHE100     -0.0000
    114  N        -19.4790  -35.1320  -11.5820 N.3   117  MET117     -0.1245
    115  CA       -18.7860  -34.6250  -10.4040 C.3   117  MET117      0.1570
    116  C        -17.3930  -35.2320  -10.2700 C.2   117  MET117      0.2261
    117  O        -16.4680  -34.5880   -9.7700 O.2   117  MET117     -0.2867
    118  CB       -19.6030  -34.9090   -9.1420 C.3   117  MET117      0.0387
    119  CG       -18.9670  -34.4060   -7.8580 C.3   117  MET117      0.0595
    120  SD       -19.0090  -32.6090   -7.7120 S.3   117  MET117     -0.1393
    121  CE       -20.7610  -32.3440   -7.4690 C.3   117  MET117      0.0692
    122  N        -14.4960  -33.3530  -11.6810 N.3   120  ILE120     -0.1245
    123  CA       -14.2040  -32.1790  -10.8630 C.3   120  ILE120      0.1561
    124  C        -13.4790  -32.5840   -9.5830 C.2   120  ILE120      0.2260
    125  O        -12.5670  -31.8940   -9.1260 O.2   120  ILE120     -0.2867
    126  CB       -15.4920  -31.4080  -10.5090 C.3   120  ILE120      0.0252
    127  CG1      -16.2120  -30.9650  -11.7850 C.3   120  ILE120      0.0019
    128  CG2      -15.1830  -30.2070   -9.6270 C.3   120  ILE120      0.0019
    129  CD1      -17.4640  -30.1520  -11.5320 C.3   120  ILE120      0.0001
    130  N         -9.6840  -31.3640   -8.2500 N.3   124  LEU124     -0.1245
    131  CA        -9.5230  -30.7820   -6.9250 C.3   124  LEU124      0.1561
    132  C         -8.5050  -31.5670   -6.1060 C.2   124  LEU124      0.2260
    133  O         -7.6920  -30.9860   -5.3890 O.2   124  LEU124     -0.2867
    134  CB       -10.8670  -30.7320   -6.1980 C.3   124  LEU124      0.0270
    135  CG       -11.8900  -29.7440   -6.7620 C.3   124  LEU124      0.0019
    136  CD1      -13.2680  -30.0120   -6.1830 C.3   124  LEU124      0.0001
    137  CD2      -11.4570  -28.3150   -6.4760 C.3   124  LEU124      0.0001
    138  N        -16.9350  -26.2860  -12.8240 N.3   206  GLY206     -0.1225
    139  CA       -17.8860  -26.3320  -11.7280 C.3   206  GLY206      0.1811
    140  C        -19.1240  -25.4910  -11.9770 C.2   206  GLY206      0.2280
    141  O        -20.2170  -25.8440  -11.5380 O.2   206  GLY206     -0.2866
    142  N        -21.3820  -27.3510  -14.3230 N.3   209  HIS209     -0.1226
    143  CA       -21.9470  -28.4740  -13.5840 C.3   209  HIS209      0.1752
    144  C        -23.0650  -28.0140  -12.6570 C.2   209  HIS209      0.2595
    145  O        -24.1180  -28.6490  -12.5740 O.2   209  HIS209     -0.2718
    146  CB       -20.8640  -29.1910  -12.7780 C.3   209  HIS209      0.0759
    147  CG       -21.3580  -30.4030  -12.0520 C.ar  209  HIS209      0.0818
    148  ND1      -21.9970  -30.3330  -10.8330 N.ar  209  HIS209     -0.2268
    149  CD2      -21.3160  -31.7170  -12.3790 C.ar  209  HIS209      0.1154
    150  CE1      -22.3240  -31.5500  -10.4380 C.ar  209  HIS209      0.1986
    151  NE2      -21.9220  -32.4080  -11.3580 N.ar  209  HIS209     -0.2212
    152  N        -22.8240  -26.9100  -11.9570 N.am  210  LEU210     -0.1980
    153  CA       -23.8150  -26.3350  -11.0560 C.3   210  LEU210      0.1596
    154  C        -25.0250  -25.8500  -11.8450 C.2   210  LEU210      0.2287
    155  O        -26.1630  -25.9460  -11.3850 O.2   210  LEU210     -0.2864
    156  CB       -23.2040  -25.1880  -10.2480 C.3   210  LEU210      0.0297
    157  CG       -24.0890  -24.5440   -9.1790 C.3   210  LEU210      0.0022
    158  CD1      -24.5370  -25.5830   -8.1640 C.3   210  LEU210      0.0001
    159  CD2      -23.3560  -23.4010   -8.4920 C.3   210  LEU210      0.0001
    160  N        -27.0740  -17.8250   -4.3080 N.3   225  LEU225     -0.1245
    161  CA       -26.2900  -18.7310   -5.1360 C.3   225  LEU225      0.1561
    162  C        -26.7870  -18.7070   -6.5790 C.2   225  LEU225      0.2260
    163  O        -26.0210  -18.9320   -7.5160 O.2   225  LEU225     -0.2867
    164  CB       -26.3510  -20.1510   -4.5730 C.3   225  LEU225      0.0270
    165  CG       -25.2620  -21.1200   -5.0320 C.3   225  LEU225      0.0019
    166  CD1      -23.8910  -20.6010   -4.6320 C.3   225  LEU225      0.0001
    167  CD2      -25.5030  -22.5010   -4.4500 C.3   225  LEU225      0.0001
@<TRIPOS>BOND
     1   142   143    1
     2   143   146    1
     3   143   144    1
     4   138   139    1
     5   146   147    1
     6   144   145    2
     7   144   152   am
     8   149   147   ar
     9   149   151   ar
    10   147   148   ar
    11   140   139    1
    12   140   141    2
    13   152   153    1
    14   154   155    2
    15   154   153    1
    16   127   129    1
    17   127   126    1
    18   122   123    1
    19   114   115    1
    20   151   150   ar
    21   153   156    1
    22   123   126    1
    23   123   124    1
    24   148   150   ar
    25   126   128    1
    26   115   116    1
    27   115   118    1
    28   116   117    2
    29   156   157    1
    30   124   125    2
    31    67    65    1
    32   157   159    1
    33   157   158    1
    34   118   119    1
    35    83    82    1
    36    54    52   ar
    37    54    55   ar
    38   130   131    1
    39    65    64    1
    40    65    66    1
    41    64    61    1
    42    82    81    1
    43   119   120    1
    44    57    55   ar
    45    57    59   ar
    46    52    51   ar
    47   120   121    1
    48    55    53   ar
    49   163   162    2
    50     8     7    1
    51     7     6    1
    52    46    47    1
    53   131   134    1
    54   131   132    1
    55    61    62    1
    56    61    60    1
    57    62    63    2
    58    60    48   am
    59    59    58   ar
    60   135   137    1
    61   135   134    1
    62   135   136    1
    63     6     5    1
    64   162   161    1
    65    51    53   ar
    66    51    50    1
    67    53    56   ar
    68    81    80    1
    69   132   133    2
    70    80    77    1
    71    47    48    1
    72    47    50    1
    73    48    49    2
    74    58    56   ar
    75     5     2    1
    76   161   164    1
    77   161   160    1
    78   165   166    1
    79   165   164    1
    80   165   167    1
    81    23    21    1
    82    77    76    1
    83    77    78    1
    84     2     1    1
    85     2     3    1
    86    16    14    1
    87    76    70   am
    88    78    79    2
    89     3     4    2
    90    68    69    1
    91    21    22    1
    92    21    18    1
    93    72    69    1
    94    72    73    1
    95    91    89    1
    96    74    73    1
    97    70    69    1
    98    70    71    2
    99    14    13    1
   100    14    15    1
   101   113   111   ar
   102   113   112   ar
   103    13    10    1
   104    73    75    1
   105   111   109   ar
   106    18    17    1
   107    18    19    1
   108    17    11   am
   109    36    33    1
   110   112   110   ar
   111    89    88    1
   112    89    90    1
   113    11    10    1
   114    11    12    2
   115    88    85    1
   116    10     9    1
   117    19    20    2
   118   109   108   ar
   119    86    85    1
   120    86    87    2
   121    84    85    1
   122   110   108   ar
   123    33    34    1
   124    33    32    1
   125    34    35    2
   126   108   107    1
   127    32    26   am
   128   107   104    1
   129    44    43   ar
   130    26    27    2
   131    26    25    1
   132    24    25    1
   133   102   100    1
   134   104   103    1
   135   104   105    1
   136    41    38    1
   137    41    42    1
   138    39    40    2
   139    39    38    1
   140    43    45   ar
   141    43    42    1
   142    28    25    1
   143    28    29    1
   144    31    29    1
   145    92    93    1
   146   101   100    1
   147    29    30    1
   148   100    99    2
   149    38    37    1
   150   105   106    2
   151    94    93    1
   152    94    95    2
   153    93    96    1
   154    99    98    1
   155    96    97    1
   156    97    98    1
