@<TRIPOS>MOLECULE
tmp/5ej0A01.pdb
 112 109 0 0 0
SMALL
GASTEIGER

@<TRIPOS>ATOM
      1  N         27.9820   21.7390   43.9120 N.3     9  PRO9       -0.2116
      2  CA        27.0070   20.6550   43.7580 C.3     9  PRO9        0.1372
      3  C         25.8450   20.7580   44.7300 C.2     9  PRO9        0.2244
      4  O         26.0660   20.8240   45.9340 O.2     9  PRO9       -0.2868
      5  CB        27.8340   19.3930   44.0380 C.3     9  PRO9        0.0268
      6  CG        29.2470   19.7990   43.7990 C.3     9  PRO9        0.0207
      7  CD        29.3200   21.2350   44.2510 C.3     9  PRO9        0.0892
      8  N         22.8460   18.9590   43.4180 N.3    11  ILE11      -0.1231
      9  CA        22.2640   17.6700   43.0200 C.3    11  ILE11       0.1692
     10  C         23.3660   16.7290   42.5550 C.2    11  ILE11       0.2592
     11  O         24.4920   17.1550   42.3120 O.2    11  ILE11      -0.2718
     12  CB        21.2070   17.8020   41.9010 C.3    11  ILE11       0.0266
     13  CG1       21.7850   18.4880   40.6610 C.3    11  ILE11       0.0019
     14  CG2       19.9830   18.5470   42.3950 C.3    11  ILE11       0.0020
     15  CD1       20.7760   18.6090   39.5240 C.3    11  ILE11       0.0001
     16  N         23.0550   15.4440   42.4450 N.am   12  ASP12      -0.1960
     17  CA        24.0800   14.4830   42.0650 C.3    12  ASP12       0.1840
     18  C         24.1600   14.3390   40.5610 C.2    12  ASP12       0.2622
     19  O         23.3800   13.6010   39.9580 O.2    12  ASP12      -0.2715
     20  CB        23.8190   13.1140   42.7000 C.3    12  ASP12       0.1450
     21  CG        25.0440   12.1970   42.6470 C.2    12  ASP12       0.3671
     22  OD1       25.9000   12.3700   41.7520 O.co2  12  ASP12      -0.2456
     23  OD2       25.1520   11.2980   43.5090 O.co2  12  ASP12      -0.2456
     24  N         25.1090   15.0500   39.9620 N.am   13  ARG13      -0.1963
     25  CA        25.4480   14.8530   38.5650 C.3    13  ARG13       0.1729
     26  C         26.7670   15.5410   38.2670 C.2    13  ARG13       0.2616
     27  O         27.2170   16.4010   39.0300 O.2    13  ARG13      -0.2715
     28  CB        24.3430   15.3740   37.6420 C.3    13  ARG13       0.0348
     29  CG        24.3170   16.8740   37.4560 C.3    13  ARG13       0.0492
     30  CD        23.0550   17.2770   36.7140 C.3    13  ARG13       0.2205
     31  NE        23.0880   18.6770   36.3100 N.pl3  13  ARG13      -0.0865
     32  CZ        22.0580   19.3240   35.7800 C.cat  13  ARG13       0.5346
     33  NH1       20.9000   18.6990   35.5890 N.pl3  13  ARG13       0.1354
     34  NH2       22.1870   20.6000   35.4460 N.pl3  13  ARG13       0.1354
     35  N         27.3850   15.1520   37.1560 N.am   14  LEU14      -0.1964
     36  CA        28.6970   15.6600   36.7850 C.3    14  LEU14       0.1713
     37  C         28.6420   17.1590   36.5320 C.2    14  LEU14       0.2458
     38  O         27.6190   17.6720   36.0890 O.2    14  LEU14      -0.2730
     39  CB        29.2200   14.9280   35.5450 C.3    14  LEU14       0.0310
     40  CG        29.5090   13.4340   35.7240 C.3    14  LEU14       0.0022
     41  CD1       30.1200   12.8460   34.4600 C.3    14  LEU14       0.0001
     42  CD2       30.4300   13.2210   36.9110 C.3    14  LEU14       0.0001
     43  N         29.7370   17.8680   36.8380 N.am   15  PRO15      -0.2727
     44  CA        29.7870   19.3150   36.6000 C.3    15  PRO15       0.1402
     45  C         29.7550   19.6440   35.1130 C.2    15  PRO15       0.2269
     46  O         29.3420   20.7380   34.7230 O.2    15  PRO15      -0.2865
     47  CB        31.1180   19.7320   37.2360 C.3    15  PRO15       0.0296
     48  CG        31.9260   18.4830   37.2990 C.3    15  PRO15       0.0237
     49  CD        30.9330   17.3870   37.5470 C.3    15  PRO15       0.0939
     50  N         38.2440   19.1310   41.3180 N.3    28  ASP28      -0.1239
     51  CA        37.6200   19.2000   42.6420 C.3    28  ASP28       0.1674
     52  C         38.4730   19.9620   43.6560 C.2    28  ASP28       0.2266
     53  O         39.6650   20.1740   43.4290 O.2    28  ASP28      -0.2867
     54  CB        37.3420   17.7900   43.1680 C.3    28  ASP28       0.1410
     55  CG        36.2650   17.0700   42.3780 C.2    28  ASP28       0.3668
     56  OD1       35.9030   17.5490   41.2830 O.co2  28  ASP28      -0.2456
     57  OD2       35.7850   16.0180   42.8510 O.co2  28  ASP28      -0.2456
     58  N         38.3350   21.1790   48.2870 N.3    30  LYS30      -0.1245
     59  CA        37.6380   21.2790   49.5730 C.3    30  LYS30       0.1561
     60  C         38.3990   22.1580   50.5860 C.2    30  LYS30       0.2260
     61  O         39.3220   22.8850   50.2130 O.2    30  LYS30      -0.2867
     62  CB        37.4280   19.8890   50.1780 C.3    30  LYS30       0.0271
     63  CG        36.0250   19.6510   50.7130 C.3    30  LYS30       0.0035
     64  CD        35.8620   18.2280   51.2200 C.3    30  LYS30       0.0206
     65  CE        34.4440   17.9730   51.7050 C.3    30  LYS30       0.1093
     66  NZ        34.2690   16.5810   52.2040 N.3    30  LYS30      -0.1314
     67  N         35.2560   22.4350   40.8440 N.3    38  GLN38      -0.1231
     68  CA        34.0860   22.0270   41.6040 C.3    38  GLN38       0.1698
     69  C         34.3840   22.1300   43.1020 C.2    38  GLN38       0.2592
     70  O         35.3490   21.5430   43.5810 O.2    38  GLN38      -0.2718
     71  CB        33.6650   20.6020   41.2310 C.3    38  GLN38       0.0381
     72  CG        32.3710   20.1550   41.8870 C.3    38  GLN38       0.0905
     73  CD        31.8210   18.8860   41.2690 C.2    38  GLN38       0.2608
     74  OE1       30.6160   18.7500   41.0710 O.2    38  GLN38      -0.2717
     75  NE2       32.7070   17.9530   40.9510 N.am   38  GLN38      -0.0878
     76  N         33.5720   22.9000   43.8260 N.am   39  TRP39      -0.1962
     77  CA        33.7390   23.0990   45.2690 C.3    39  TRP39       0.1771
     78  C         32.9060   22.1060   46.0590 C.2    39  TRP39       0.2620
     79  O         31.6840   22.1120   45.9630 O.2    39  TRP39      -0.2715
     80  CB        33.3530   24.5230   45.6690 C.3    39  TRP39       0.0590
     81  CG        33.0420   24.7120   47.1570 C.ar   39  TRP39       0.0006
     82  CD1       31.8050   24.7820   47.7380 C.ar   39  TRP39       0.0946
     83  CD2       33.9900   24.8900   48.2170 C.ar   39  TRP39       0.0152
     84  NE1       31.9260   24.9830   49.0930 N.ar   39  TRP39      -0.2442
     85  CE2       33.2580   25.0490   49.4120 C.ar   39  TRP39       0.0810
     86  CE3       35.3880   24.9270   48.2710 C.ar   39  TRP39       0.0012
     87  CZ2       33.8750   25.2390   50.6440 C.ar   39  TRP39       0.0191
     88  CZ3       35.9980   25.1200   49.4920 C.ar   39  TRP39       0.0001
     89  CH2       35.2430   25.2730   50.6650 C.ar   39  TRP39       0.0015
     90  N         33.5680   21.2780   46.8640 N.am   40  THR40      -0.1951
     91  CA        32.8900   20.1900   47.5670 C.3    40  THR40       0.1897
     92  C         32.8440   20.3540   49.0870 C.2    40  THR40       0.2313
     93  O         32.3710   19.4660   49.7970 O.2    40  THR40      -0.2863
     94  CB        33.5580   18.8470   47.2590 C.3    40  THR40       0.1794
     95  OG1       34.8620   18.8310   47.8450 O.3    40  THR40      -0.2208
     96  CG2       33.6790   18.6480   45.7600 C.3    40  THR40       0.0378
     97  N         29.5340   21.0690   53.0610 N.3    43  ASN43      -0.1240
     98  CA        28.4170   20.1290   53.0400 C.3    43  ASN43       0.1653
     99  C         27.9320   19.7130   54.4270 C.2    43  ASN43       0.2266
    100  O         28.6290   19.9040   55.4270 O.2    43  ASN43      -0.2867
    101  CB        28.7910   18.8940   52.2250 C.3    43  ASN43       0.1155
    102  CG        28.6080   19.1100   50.7350 C.2    43  ASN43       0.2627
    103  OD1       27.7710   18.4680   50.0990 O.2    43  ASN43      -0.2716
    104  ND2       29.3820   20.0330   50.1740 N.am   43  ASN43      -0.0877
    105  N         25.0130   23.4260   40.5570 N.3    98  ASN98      -0.1240
    106  CA        25.0250   22.5330   39.4040 C.3    98  ASN98       0.1653
    107  C         23.6410   22.0690   38.9440 C.2    98  ASN98       0.2266
    108  O         23.5360   21.2400   38.0410 O.2    98  ASN98      -0.2867
    109  CB        25.9360   21.3310   39.6860 C.3    98  ASN98       0.1155
    110  CG        25.3180   20.3200   40.6240 C.2    98  ASN98       0.2627
    111  OD1       24.3430   20.5980   41.3100 O.2    98  ASN98      -0.2716
    112  ND2       25.8970   19.1200   40.6560 N.am   98  ASN98      -0.0877
@<TRIPOS>BOND
     1    41    40    1
     2    46    45    2
     3    45    44    1
     4    34    32    1
     5    39    40    1
     6    39    36    1
     7    33    32    1
     8    40    42    1
     9    32    31    2
    10    38    37    2
    11    31    30    1
    12    37    36    1
    13    37    43   am
    14    44    43    1
    15    44    47    1
    16    30    29    1
    17    36    35    1
    18    43    49    1
    19    35    26   am
    20    47    48    1
    21    48    49    1
    22    29    28    1
    23    28    25    1
    24   108   107    2
    25    26    25    1
    26    26    27    2
    27    25    24    1
    28   107   106    1
    29   106   109    1
    30   106   105    1
    31    15    13    1
    32   109   110    1
    33    19    18    2
    34    24    18   am
    35    18    17    1
    36   110   112   am
    37   110   111    2
    38    13    12    1
    39    67    68    1
    40    75    73   am
    41    74    73    2
    42    71    68    1
    43    71    72    1
    44    73    72    1
    45    56    55   ar
    46    50    51    1
    47    68    69    1
    48    22    21   ar
    49    12    14    1
    50    12     9    1
    51    17    16    1
    52    17    20    1
    53    11    10    2
    54    55    57   ar
    55    55    54    1
    56    16    10   am
    57    10     9    1
    58    51    54    1
    59    51    52    1
    60    21    20    1
    61    21    23   ar
    62     9     8    1
    63    69    70    2
    64    69    76   am
    65    53    52    2
    66     2     1    1
    67     2     5    1
    68     2     3    1
    69     6     5    1
    70     6     7    1
    71    76    77    1
    72     1     7    1
    73     3     4    2
    74    77    80    1
    75    77    78    1
    76    80    81    1
    77    96    94    1
    78    79    78    2
    79    78    90   am
    80    90    91    1
    81    81    82   ar
    82    81    83   ar
    83    94    91    1
    84    94    95    1
    85    91    92    1
    86    82    84   ar
    87    83    86   ar
    88    83    85   ar
    89    86    88   ar
    90    58    59    1
    91    92    93    2
    92    84    85   ar
    93    85    87   ar
    94    88    89   ar
    95    59    62    1
    96    59    60    1
    97   103   102    2
    98   104   102   am
    99    62    63    1
   100    61    60    2
   101    87    89   ar
   102    63    64    1
   103   102   101    1
   104    64    65    1
   105    65    66    1
   106   101    98    1
   107    98    97    1
   108    98    99    1
   109    99   100    2
