@<TRIPOS>MOLECULE
tmp/5ej0A00.pdb
 77 76 0 0 0
SMALL
GASTEIGER

@<TRIPOS>ATOM
      1  N         17.2680   30.6820   66.7240 N.3    58  CYS58      -0.1221
      2  CA        16.1610   30.5310   65.7660 C.3    58  CYS58       0.1808
      3  C         14.9870   29.8020   66.4220 C.2    58  CYS58       0.2601
      4  O         14.6000   30.1360   67.5460 O.2    58  CYS58      -0.2717
      5  CB        16.5900   29.7370   64.4960 C.3    58  CYS58       0.0970
      6  SG        15.3720   29.7560   63.1720 S.3    58  CYS58      -0.0800
      7  N         14.4190   28.8200   65.7200 N.am   59  ASN59      -0.1974
      8  CA        13.2830   28.0480   66.2390 C.3    59  ASN59       0.1688
      9  C         13.7300   27.0950   67.3510 C.2    59  ASN59       0.2292
     10  O         14.4260   27.5000   68.2870 O.2    59  ASN59      -0.2864
     11  CB        12.5930   27.2570   65.0830 C.3    59  ASN59       0.1181
     12  CG        12.2870   28.0520   63.8330 C.2    59  ASN59       0.2629
     13  OD1       11.6160   29.0750   63.8850 O.2    59  ASN59      -0.2716
     14  ND2       12.7550   27.5500   62.7050 N.am   59  ASN59      -0.0877
     15  N         17.1570   25.8440   63.1800 N.3    62  CYS62      -0.1235
     16  CA        16.8170   25.9640   61.7650 C.3    62  CYS62       0.1677
     17  C         16.8800   24.5860   61.1220 C.2    62  CYS62       0.2270
     18  O         17.6460   23.7200   61.5600 O.2    62  CYS62      -0.2867
     19  CB        17.7550   26.9160   61.0200 C.3    62  CYS62       0.0956
     20  SG        17.7410   28.6370   61.5400 S.3    62  CYS62      -0.0801
     21  N         17.8590   24.3280   55.0090 N.3    66  THR66      -0.1218
     22  CA        18.0830   25.7350   54.6890 C.3    66  THR66       0.1862
     23  C         19.5070   26.1340   55.0600 C.2    66  THR66       0.2287
     24  O         20.2040   26.7920   54.2830 O.2    66  THR66      -0.2866
     25  CB        17.0780   26.6490   55.4100 C.3    66  THR66       0.1770
     26  OG1       16.9220   26.2070   56.7650 O.3    66  THR66      -0.2211
     27  CG2       15.7230   26.6000   54.7080 C.3    66  THR66       0.0375
     28  N         20.3190   34.3070   61.6400 N.3   181  SER181     -0.1202
     29  CA        19.3160   33.7820   62.5650 C.3   181  SER181      0.2020
     30  C         17.9960   33.4170   61.8710 C.2   181  SER181      0.2619
     31  O         17.5810   32.2530   61.8440 O.2   181  SER181     -0.2717
     32  CB        19.0680   34.8020   63.6630 C.3   181  SER181      0.2103
     33  OG        18.6870   36.0390   63.0890 O.3   181  SER181     -0.2182
     34  N         17.3400   34.4270   61.3230 N.am  182  SER182     -0.1937
     35  CA        16.1050   34.2510   60.5710 C.3   182  SER182      0.2055
     36  C         16.0910   35.2700   59.4420 C.2   182  SER182      0.2644
     37  O         16.6520   36.3550   59.5810 O.2   182  SER182     -0.2714
     38  CB        14.8940   34.4520   61.4730 C.3   182  SER182      0.2130
     39  OG        14.8670   35.7920   61.9390 O.3   182  SER182     -0.2179
     40  N         15.4560   34.9450   58.3310 N.am  183  GLY183     -0.1939
     41  CA        15.4970   35.8370   57.1880 C.3   183  GLY183      0.2014
     42  C         16.9200   35.9180   56.6550 C.2   183  GLY183      0.2639
     43  O         17.4660   37.0170   56.4800 O.2   183  GLY183     -0.2714
     44  N         17.5150   34.7510   56.4150 N.am  184  PHE184     -0.1959
     45  CA        18.8860   34.6510   55.9310 C.3   184  PHE184      0.1771
     46  C         19.1350   35.5700   54.7570 C.2   184  PHE184      0.2620
     47  O         20.0960   36.3180   54.7370 O.2   184  PHE184     -0.2715
     48  CB        19.2250   33.2240   55.4860 C.3   184  PHE184      0.0574
     49  CG        19.2250   32.2060   56.5930 C.ar  184  PHE184     -0.0200
     50  CD1       19.2830   30.8590   56.2930 C.ar  184  PHE184     -0.0042
     51  CD2       19.1940   32.5900   57.9220 C.ar  184  PHE184     -0.0042
     52  CE1       19.2910   29.9100   57.2960 C.ar  184  PHE184     -0.0003
     53  CE2       19.1980   31.6450   58.9320 C.ar  184  PHE184     -0.0003
     54  CZ        19.2490   30.3050   58.6160 C.ar  184  PHE184     -0.0000
     55  N         18.2720   35.5000   53.7530 N.am  185  TYR185     -0.1960
     56  CA        18.5760   36.2230   52.5340 C.3   185  TYR185      0.1771
     57  C         18.3000   37.6960   52.6900 C.2   185  TYR185      0.2619
     58  O         18.9650   38.5040   52.0680 O.2   185  TYR185     -0.2715
     59  CB        17.7840   35.6760   51.3620 C.3   185  TYR185      0.0574
     60  CG        18.1950   34.2950   50.9430 C.ar  185  TYR185     -0.0198
     61  CD1       19.4830   34.0370   50.5070 C.ar  185  TYR185     -0.0009
     62  CD2       17.2910   33.2440   50.9750 C.ar  185  TYR185     -0.0009
     63  CE1       19.8640   32.7630   50.1040 C.ar  185  TYR185      0.0417
     64  CE2       17.6590   31.9710   50.5720 C.ar  185  TYR185      0.0417
     65  CZ        18.9490   31.7410   50.1290 C.ar  185  TYR185      0.1957
     66  OH        19.3220   30.4760   49.7260 O.3   185  TYR185     -0.2866
     67  N         17.3050   38.0470   53.5040 N.am  186  PHE186     -0.1974
     68  CA        17.0970   39.4510   53.8430 C.3   186  PHE186      0.1639
     69  C         18.3480   40.0260   54.5230 C.2   186  PHE186      0.2290
     70  O         18.7640   41.1610   54.2390 O.2   186  PHE186     -0.2864
     71  CB        15.8880   39.6320   54.7740 C.3   186  PHE186      0.0560
     72  CG        14.5330   39.4950   54.0830 C.ar  186  PHE186     -0.0200
     73  CD1       14.3590   39.8630   52.7550 C.ar  186  PHE186     -0.0042
     74  CD2       13.4410   39.0090   54.7790 C.ar  186  PHE186     -0.0042
     75  CE1       13.1180   39.7430   52.1450 C.ar  186  PHE186     -0.0003
     76  CE2       12.1950   38.8900   54.1720 C.ar  186  PHE186     -0.0003
     77  CZ        12.0350   39.2520   52.8590 C.ar  186  PHE186     -0.0000
@<TRIPOS>BOND
     1    66    65    1
     2    63    65   ar
     3    63    61   ar
     4    65    64   ar
     5    61    60   ar
     6    64    62   ar
     7    60    62   ar
     8    60    59    1
     9    59    56    1
    10    58    57    2
    11    75    73   ar
    12    75    77   ar
    13    56    57    1
    14    56    55    1
    15    57    67   am
    16    73    72   ar
    17    77    76   ar
    18    67    68    1
    19    55    46   am
    20    68    69    1
    21    68    71    1
    22    72    71    1
    23    72    74   ar
    24    76    74   ar
    25    70    69    2
    26    24    23    2
    27    22    21    1
    28    22    23    1
    29    22    25    1
    30    27    25    1
    31    47    46    2
    32    46    45    1
    33    25    26    1
    34    48    45    1
    35    48    49    1
    36    45    44    1
    37    50    49   ar
    38    50    52   ar
    39    44    42   am
    40    43    42    2
    41    49    51   ar
    42    42    41    1
    43    41    40    1
    44    52    54   ar
    45    51    53   ar
    46    40    36   am
    47    54    53   ar
    48    36    37    2
    49    36    35    1
    50    35    34    1
    51    35    38    1
    52    19    20    1
    53    19    16    1
    54    17    18    2
    55    17    16    1
    56    34    30   am
    57    38    39    1
    58    28    29    1
    59    16    15    1
    60    31    30    2
    61    30    29    1
    62    29    32    1
    63    14    12   am
    64    33    32    1
    65     6     5    1
    66    12    13    2
    67    12    11    1
    68     5     2    1
    69    11     8    1
    70     7     8    1
    71     7     3   am
    72     2     3    1
    73     2     1    1
    74     8     9    1
    75     3     4    2
    76     9    10    2
