@<TRIPOS>MOLECULE
tmp/5ejdM00.pdb
 169 163 0 0 0
SMALL
GASTEIGER

@<TRIPOS>ATOM
      1  N        344.6810  139.0350  252.2900 N.3    43  PHE43      -0.1241
      2  CA       345.3800  137.8340  251.9270 C.3    43  PHE43       0.1605
      3  C        344.4380  136.7370  251.5130 C.2    43  PHE43       0.2264
      4  O        344.7310  135.9560  250.5930 O.2    43  PHE43      -0.2867
      5  CB       346.2310  137.3730  253.1030 C.3    43  PHE43       0.0534
      6  CG       347.4820  138.1900  253.3010 C.ar   43  PHE43      -0.0203
      7  CD1      348.3550  138.3880  252.2520 C.ar   43  PHE43      -0.0042
      8  CD2      347.8200  138.6700  254.5350 C.ar   43  PHE43      -0.0042
      9  CE1      349.5350  139.0800  252.4340 C.ar   43  PHE43      -0.0003
     10  CE2      348.9800  139.3860  254.7150 C.ar   43  PHE43      -0.0003
     11  CZ       349.8340  139.5950  253.6690 C.ar   43  PHE43      -0.0000
     12  N        347.9740  133.0080  254.7710 N.3   160  HIS160     -0.1241
     13  CA       348.7630  134.1590  255.2110 C.3   160  HIS160      0.1621
     14  C        348.0030  135.0430  256.2070 C.2   160  HIS160      0.2264
     15  O        348.5860  135.9290  256.8370 O.2   160  HIS160     -0.2867
     16  CB       349.2010  134.9810  254.0110 C.3   160  HIS160      0.0745
     17  CG       350.4390  135.7980  254.2440 C.ar  160  HIS160      0.0817
     18  ND1      350.7740  136.3270  255.4750 N.ar  160  HIS160     -0.2268
     19  CD2      351.4130  136.1930  253.3960 C.ar  160  HIS160      0.1154
     20  CE1      351.9120  136.9850  255.3790 C.ar  160  HIS160      0.1986
     21  NE2      352.3190  136.9220  254.1250 N.ar  160  HIS160     -0.2212
     22  N        349.8180  134.2250  259.6900 N.3   163  TRP163     -0.1241
     23  CA       351.2110  134.4400  260.0360 C.3   163  TRP163      0.1605
     24  C        351.7400  135.7230  259.4100 C.2   163  TRP163      0.2264
     25  O        351.1500  136.2780  258.5110 O.2   163  TRP163     -0.2867
     26  CB       352.0720  133.2360  259.5920 C.3   163  TRP163      0.0550
     27  CG       352.1400  133.0480  258.1120 C.ar  163  TRP163      0.0003
     28  CD1      351.2730  132.3670  257.3450 C.ar  163  TRP163      0.0946
     29  CD2      353.1170  133.5990  257.2220 C.ar  163  TRP163      0.0152
     30  NE1      351.6190  132.4740  256.0080 N.ar  163  TRP163     -0.2442
     31  CE2      352.7680  133.2050  255.9120 C.ar  163  TRP163      0.0810
     32  CE3      354.2230  134.4170  257.3990 C.ar  163  TRP163      0.0012
     33  CZ2      353.5010  133.6040  254.7840 C.ar  163  TRP163      0.0191
     34  CZ3      354.9990  134.7790  256.2620 C.ar  163  TRP163      0.0001
     35  CH2      354.6120  134.4050  254.9880 C.ar  163  TRP163      0.0015
     36  N        355.9240  137.8610  258.7890 N.3   165  GLY165     -0.1210
     37  CA       357.3660  137.6430  258.7150 C.3   165  GLY165      0.1956
     38  C        358.0510  137.6390  260.0710 C.2   165  GLY165      0.2611
     39  O        359.0590  136.9730  260.2730 O.2   165  GLY165     -0.2717
     40  N        357.5410  138.4420  260.9780 N.am  166  VAL166     -0.1979
     41  CA       358.1260  138.5530  262.2830 C.3   166  VAL166      0.1595
     42  C        357.9150  137.2780  263.0660 C.2   166  VAL166      0.2287
     43  O        358.7890  136.8640  263.8030 O.2   166  VAL166     -0.2864
     44  CB       357.5100  139.7350  263.0540 C.3   166  VAL166      0.0276
     45  CG1      357.9390  139.6900  264.5060 C.3   166  VAL166      0.0022
     46  CG2      357.8940  141.0550  262.4140 C.3   166  VAL166      0.0022
     47  N        367.5330  154.3480  257.0140 N.3   247  THR247     -0.1218
     48  CA       367.3520  152.9130  256.8920 C.3   247  THR247      0.1862
     49  C        367.1910  152.5440  255.4320 C.2   247  THR247      0.2287
     50  O        366.8760  153.3740  254.5990 O.2   247  THR247     -0.2866
     51  CB       366.1250  152.4110  257.6640 C.3   247  THR247      0.1770
     52  OG1      364.9480  152.9360  257.0540 O.3   247  THR247     -0.2211
     53  CG2      366.1930  152.8180  259.1170 C.3   247  THR247      0.0375
     54  N        364.8260  150.6400  254.2250 N.3   249  ALA249     -0.1231
     55  CA       363.4210  150.8150  253.8720 C.3   249  ALA249      0.1694
     56  C        363.1430  152.2310  253.3790 C.2   249  ALA249      0.2592
     57  O        362.3860  152.4150  252.4380 O.2   249  ALA249     -0.2718
     58  CB       362.5310  150.5130  255.0730 C.3   249  ALA249      0.0304
     59  N        363.7300  153.2220  254.0500 N.am  250  THR250     -0.1953
     60  CA       363.5320  154.6180  253.6800 C.3   250  THR250      0.1897
     61  C        364.0380  154.8480  252.2700 C.2   250  THR250      0.2313
     62  O        363.3940  155.4720  251.4380 O.2   250  THR250     -0.2863
     63  CB       364.2470  155.5580  254.6700 C.3   250  THR250      0.1794
     64  OG1      363.5870  155.5120  255.9450 O.3   250  THR250     -0.2208
     65  CG2      364.2360  156.9830  254.1560 C.3   250  THR250      0.0378
     66  N        361.6320  153.4400  249.7240 N.3   253  LYS253     -0.1245
     67  CA       360.3840  154.2000  249.6080 C.3   253  LYS253      0.1561
     68  C        360.5820  155.5630  248.9950 C.2   253  LYS253      0.2260
     69  O        359.7200  156.0390  248.2520 O.2   253  LYS253     -0.2867
     70  CB       359.7010  154.2980  250.9690 C.3   253  LYS253      0.0271
     71  CG       359.0360  152.9820  251.2770 C.3   253  LYS253      0.0035
     72  CD       358.7790  152.7330  252.7360 C.3   253  LYS253      0.0206
     73  CE       358.4350  151.2620  252.8990 C.3   253  LYS253      0.1093
     74  NZ       358.2380  150.8980  254.3250 N.3   253  LYS253     -0.1314
     75  N        353.6990  148.4440  253.6070 N.3   274  THR274     -0.1203
     76  CA       353.4540  147.4400  254.6190 C.3   274  THR274      0.1994
     77  C        354.2130  147.7460  255.9000 C.2   274  THR274      0.2618
     78  O        355.4010  147.9990  255.8680 O.2   274  THR274     -0.2717
     79  CB       353.9130  146.0970  254.1240 C.3   274  THR274      0.1784
     80  OG1      353.2860  145.8270  252.8660 O.3   274  THR274     -0.2211
     81  CG2      353.5710  145.0070  255.1160 C.3   274  THR274      0.0376
     82  N        353.5080  147.7250  257.0230 N.am  275  VAL275     -0.1965
     83  CA       354.1110  147.9430  258.3030 C.3   275  VAL275      0.1727
     84  C        353.7950  146.7650  259.1820 C.2   275  VAL275      0.2616
     85  O        352.8360  146.0730  258.9720 O.2   275  VAL275     -0.2715
     86  CB       353.6260  149.2610  258.9540 C.3   275  VAL275      0.0290
     87  CG1      354.0230  150.4570  258.1060 C.3   275  VAL275      0.0023
     88  CG2      352.1150  149.2490  259.1740 C.3   275  VAL275      0.0023
     89  N        354.6110  146.5640  260.1950 N.am  276  ASN276     -0.1972
     90  CA       354.5620  145.3270  260.9380 C.3   276  ASN276      0.1688
     91  C        353.4760  145.2680  262.0050 C.2   276  ASN276      0.2292
     92  O        353.1330  144.1830  262.4760 O.2   276  ASN276     -0.2864
     93  CB       355.9440  144.9770  261.5510 C.3   276  ASN276      0.1181
     94  CG       356.4300  146.0190  262.5280 C.2   276  ASN276      0.2629
     95  OD1      355.9060  146.1570  263.6080 O.2   276  ASN276     -0.2716
     96  ND2      357.4420  146.7670  262.1340 N.am  276  ASN276     -0.0877
     97  N        350.4560  142.4340  260.3190 N.3   293  LEU293     -0.1245
     98  CA       350.7690  143.3670  259.2400 C.3   293  LEU293      0.1561
     99  C        349.6450  144.3270  258.9820 C.2   293  LEU293      0.2260
    100  O        348.4890  143.9850  259.1040 O.2   293  LEU293     -0.2867
    101  CB       350.9250  142.6260  257.9130 C.3   293  LEU293      0.0270
    102  CG       352.0920  141.6910  257.7590 C.3   293  LEU293      0.0019
    103  CD1      352.0670  141.1460  256.3490 C.3   293  LEU293      0.0001
    104  CD2      353.3790  142.4310  258.0410 C.3   293  LEU293      0.0001
    105  N        361.5950  159.3270  255.6680 N.3   319  GLN319     -0.1245
    106  CA       361.7230  158.6300  256.9410 C.3   319  GLN319      0.1566
    107  C        360.8370  159.2200  258.0420 C.2   319  GLN319      0.2260
    108  O        360.2310  158.4920  258.8220 O.2   319  GLN319     -0.2867
    109  CB       363.1860  158.6150  257.3950 C.3   319  GLN319      0.0367
    110  CG       363.4700  157.6770  258.5430 C.3   319  GLN319      0.0905
    111  CD       364.8970  157.1400  258.5500 C.2   319  GLN319      0.2608
    112  OE1      365.3030  156.3120  257.6960 O.2   319  GLN319     -0.2717
    113  NE2      365.6620  157.5850  259.5290 N.am  319  GLN319     -0.0878
    114  N        357.2430  158.2450  257.7840 N.3   322  TYR322     -0.1241
    115  CA       356.9750  156.9260  258.3150 C.3   322  TYR322      0.1605
    116  C        356.9080  157.0280  259.8270 C.2   322  TYR322      0.2264
    117  O        355.9490  156.5690  260.4210 O.2   322  TYR322     -0.2867
    118  CB       358.0300  155.9010  257.8480 C.3   322  TYR322      0.0534
    119  CG       358.1440  154.6560  258.6970 C.ar  322  TYR322     -0.0201
    120  CD1      357.0670  153.7780  258.8450 C.ar  322  TYR322     -0.0009
    121  CD2      359.3050  154.3720  259.3740 C.ar  322  TYR322     -0.0009
    122  CE1      357.1580  152.6530  259.6490 C.ar  322  TYR322      0.0417
    123  CE2      359.4140  153.2480  260.1810 C.ar  322  TYR322      0.0417
    124  CZ       358.3430  152.3920  260.3170 C.ar  322  TYR322      0.1957
    125  OH       358.4930  151.2940  261.1430 O.3   322  TYR322     -0.2866
    126  N        356.6390  146.7530  250.0560 N.3   354  GLN354     -0.1231
    127  CA       357.0620  145.9990  251.2560 C.3   354  GLN354      0.1698
    128  C        358.5320  145.8020  251.3160 C.2   354  GLN354      0.2592
    129  O        359.0590  144.9920  250.5560 O.2   354  GLN354     -0.2718
    130  CB       356.7270  144.5270  251.3000 C.3   354  GLN354      0.0381
    131  CG       355.3110  144.1950  251.2740 C.3   354  GLN354      0.0905
    132  CD       354.9500  142.9590  252.0800 C.2   354  GLN354      0.2608
    133  OE1      355.6980  141.9730  252.2980 O.2   354  GLN354     -0.2717
    134  NE2      353.7400  143.0110  252.4940 N.am  354  GLN354     -0.0878
    135  N        359.1580  146.3790  252.3040 N.am  355  HIS355     -0.1962
    136  CA       360.5150  146.0770  252.4900 C.3   355  HIS355      0.1787
    137  C        360.6280  144.8880  253.4380 C.2   355  HIS355      0.2620
    138  O        360.0910  144.9250  254.5280 O.2   355  HIS355     -0.2715
    139  CB       361.2630  147.3220  252.9830 C.3   355  HIS355      0.0785
    140  CG       362.7120  147.0760  253.1640 C.ar  355  HIS355      0.0821
    141  ND1      363.5450  146.7940  252.1060 N.ar  355  HIS355     -0.2267
    142  CD2      363.4700  147.0110  254.2770 C.ar  355  HIS355      0.1154
    143  CE1      364.7690  146.6000  252.5600 C.ar  355  HIS355      0.1986
    144  NE2      364.7510  146.7200  253.8770 N.ar  355  HIS355     -0.2212
    145  N        361.3920  143.8700  253.0410 N.am  356  GLN356     -0.1963
    146  CA       361.4840  142.6260  253.7970 C.3   356  GLN356      0.1733
    147  C        362.6650  142.5770  254.7520 C.2   356  GLN356      0.2616
    148  O        363.5490  141.7680  254.5990 O.2   356  GLN356     -0.2715
    149  CB       361.6030  141.4620  252.8330 C.3   356  GLN356      0.0408
    150  CG       360.5700  141.4600  251.7340 C.3   356  GLN356      0.0908
    151  CD       359.2100  140.9660  252.2040 C.2   356  GLN356      0.2608
    152  OE1      358.7250  141.3430  253.2480 O.2   356  GLN356     -0.2717
    153  NE2      358.5980  140.1320  251.4160 N.am  356  GLN356     -0.0878
    154  N        362.6610  143.4160  255.7700 N.am  357  ASN357     -0.1958
    155  CA       363.7120  143.3740  256.7750 C.3   357  ASN357      0.1819
    156  C        363.3800  142.4160  257.9050 C.2   357  ASN357      0.2621
    157  O        363.4180  142.7500  259.0760 O.2   357  ASN357     -0.2715
    158  CB       364.0840  144.7910  257.2770 C.3   357  ASN357      0.1195
    159  CG       362.8840  145.6640  257.6230 C.2   357  ASN357      0.2630
    160  OD1      361.7190  145.2720  257.4590 O.2   357  ASN357     -0.2716
    161  ND2      363.1700  146.8560  258.1190 N.am  357  ASN357     -0.0877
    162  N        363.1370  141.1770  257.5290 N.am  358  ILE358     -0.1977
    163  CA       362.7700  140.0870  258.4550 C.3   358  ILE358      0.1596
    164  C        363.6440  138.8880  258.1040 C.2   358  ILE358      0.2287
    165  O        364.2850  138.9290  257.0630 O.2   358  ILE358     -0.2864
    166  CB       361.3160  139.6760  258.1940 C.3   358  ILE358      0.0276
    167  CG1      361.0870  139.6170  256.6710 C.3   358  ILE358      0.0022
    168  CG2      360.3760  140.6680  258.8220 C.3   358  ILE358      0.0022
    169  CD1      359.8830  138.8620  256.2340 C.3   358  ILE358      0.0001
@<TRIPOS>BOND
     1    69    68    2
     2    68    67    1
     3    67    66    1
     4    67    70    1
     5   126   127    1
     6   129   128    2
     7     4     3    2
     8    70    71    1
     9   127   130    1
    10   127   128    1
    11   131   130    1
    12   131   132    1
    13    71    72    1
    14   128   135   am
    15   153   151   am
    16    62    61    2
    17     3     2    1
    18   150   151    1
    19   150   149    1
    20     2     1    1
    21     2     5    1
    22   132   133    2
    23   132   134   am
    24   141   143   ar
    25   141   140   ar
    26   151   152    2
    27     7     9   ar
    28     7     6   ar
    29    61    60    1
    30   135   136    1
    31     9    11   ar
    32    57    56    2
    33   136   139    1
    34   136   137    1
    35   143   144   ar
    36    72    73    1
    37   149   146    1
    38    80    79    1
    39    73    74    1
    40   139   140    1
    41   145   137   am
    42   145   146    1
    43     5     6    1
    44   140   142   ar
    45     6     8   ar
    46    56    55    1
    47    56    59   am
    48    19    21   ar
    49    19    17   ar
    50   137   138    2
    51    75    76    1
    52    11    10   ar
    53    60    59    1
    54    60    63    1
    55   146   147    1
    56    55    54    1
    57    55    58    1
    58   144   142   ar
    59    16    17    1
    60    16    13    1
    61    79    76    1
    62    79    81    1
    63    21    20   ar
    64    65    63    1
    65    17    18   ar
    66     8    10   ar
    67   148   147    2
    68    50    49    2
    69    76    77    1
    70    63    64    1
    71   147   154   am
    72    12    13    1
    73    33    35   ar
    74    33    31   ar
    75    35    34   ar
    76    13    14    1
    77    20    18   ar
    78    49    48    1
    79   105   106    1
    80   154   155    1
    81    78    77    2
    82    77    82   am
    83    31    30   ar
    84    31    29   ar
    85    30    28   ar
    86    14    15    2
    87   169   167    1
    88    34    32   ar
    89   103   102    1
    90   167   166    1
    91   155   158    1
    92   155   156    1
    93    48    47    1
    94    48    51    1
    95   106   109    1
    96   106   107    1
    97    82    83    1
    98    52    51    1
    99   165   164    2
   100    29    32   ar
   101    29    27   ar
   102   158   159    1
   103    28    27   ar
   104   109   110    1
   105   160   159    2
   106   162   156   am
   107   162   163    1
   108   159   161   am
   109    51    53    1
   110   112   111    2
   111   102   101    1
   112   102   104    1
   113   114   115    1
   114   118   115    1
   115   118   119    1
   116   156   157    2
   117   101    98    1
   118   107   108    2
   119   164   163    1
   120    87    86    1
   121    27    26    1
   122   166   163    1
   123   166   168    1
   124    83    86    1
   125    83    84    1
   126   115   116    1
   127    25    24    2
   128   110   111    1
   129   111   113   am
   130   119   120   ar
   131   119   121   ar
   132    37    36    1
   133    37    38    1
   134   120   122   ar
   135    86    88    1
   136    85    84    2
   137    99   100    2
   138    99    98    1
   139    84    89   am
   140    98    97    1
   141   121   123   ar
   142    24    23    1
   143    26    23    1
   144   122   124   ar
   145    22    23    1
   146   116   117    2
   147    38    39    2
   148    38    40   am
   149   123   124   ar
   150    89    90    1
   151   124   125    1
   152    90    93    1
   153    90    91    1
   154    40    41    1
   155    93    94    1
   156    91    92    2
   157    96    94   am
   158    41    44    1
   159    41    42    1
   160    46    44    1
   161    94    95    2
   162    44    45    1
   163    42    43    2
