@<TRIPOS>MOLECULE
tmp/5ejhA00.pdb
 152 147 0 0 0
SMALL
GASTEIGER

@<TRIPOS>ATOM
      1  N         14.1500   13.3990   21.0180 N.3    44  GLY44      -0.1210
      2  CA        15.2740   12.9870   20.1960 C.3    44  GLY44       0.1956
      3  C         15.3440   13.8360   18.9450 C.2    44  GLY44       0.2612
      4  O         14.6530   14.8550   18.8600 O.2    44  GLY44      -0.2717
      5  N         16.1860   13.4550   17.9770 N.am   45  ASP45      -0.1959
      6  CA        16.2220   14.1830   16.7100 C.3    45  ASP45       0.1840
      7  C         14.9240   14.0350   15.9320 C.2    45  ASP45       0.2622
      8  O         14.5700   14.9330   15.1590 O.2    45  ASP45      -0.2715
      9  CB        17.4060   13.7270   15.8600 C.3    45  ASP45       0.1450
     10  CG        18.7150   14.2000   16.4210 C.2    45  ASP45       0.3671
     11  OD1       18.7100   15.2680   17.0610 O.co2  45  ASP45      -0.2456
     12  OD2       19.7340   13.5190   16.2250 O.co2  45  ASP45      -0.2456
     13  N         14.2040   12.9210   16.1150 N.am   46  GLY46      -0.1954
     14  CA        12.8790   12.8080   15.5240 C.3    46  GLY46       0.1869
     15  C         11.9270   13.8730   16.0310 C.2    46  GLY46       0.2309
     16  O         11.1570   14.4490   15.2560 O.2    46  GLY46      -0.2863
     17  N         13.0780   17.1320   14.3990 N.3    49  LEU49      -0.1245
     18  CA        12.6520   17.1990   13.0000 C.3    49  LEU49       0.1561
     19  C         11.1830   17.6010   12.8880 C.2    49  LEU49       0.2260
     20  O         10.8100   18.3610   11.9890 O.2    49  LEU49      -0.2867
     21  CB        12.8910   15.8570   12.3130 C.3    49  LEU49       0.0270
     22  CG        14.3180   15.4710   11.9090 C.3    49  LEU49       0.0019
     23  CD1       14.3420   14.0140   11.4860 C.3    49  LEU49       0.0001
     24  CD2       14.7800   16.3750   10.7820 C.3    49  LEU49       0.0001
     25  N         19.4940    9.1390   23.9610 N.3    71  HIS71      -0.1241
     26  CA        20.8660    9.2650   23.4950 C.3    71  HIS71       0.1621
     27  C         21.1410   10.6760   22.9750 C.2    71  HIS71       0.2264
     28  O         20.2240   11.4590   22.6950 O.2    71  HIS71      -0.2867
     29  CB        21.1270    8.2560   22.3850 C.3    71  HIS71       0.0745
     30  CG        20.2520    8.4640   21.1920 C.ar   71  HIS71       0.0817
     31  ND1       20.5280    9.4060   20.2250 N.ar   71  HIS71      -0.2268
     32  CD2       19.0880    7.8780   20.8270 C.ar   71  HIS71       0.1154
     33  CE1       19.5800    9.3800   19.3060 C.ar   71  HIS71       0.1986
     34  NE2       18.6940    8.4610   19.6480 N.ar   71  HIS71      -0.2212
     35  N         21.8510   13.6380   20.5150 N.3    73  GLY73      -0.1210
     36  CA        21.3030   13.9140   19.2100 C.3    73  GLY73       0.1956
     37  C         22.1720   14.8850   18.4430 C.2    73  GLY73       0.2612
     38  O         22.9440   15.6420   19.0390 O.2    73  GLY73      -0.2717
     39  N         22.0700   14.8620   17.1160 N.am   74  PHE74      -0.1962
     40  CA        22.8180   15.8180   16.3170 C.3    74  PHE74       0.1771
     41  C         22.1730   17.1910   16.3090 C.2    74  PHE74       0.2619
     42  O         22.8610   18.1920   16.0960 O.2    74  PHE74      -0.2715
     43  CB        22.9710   15.3020   14.8810 C.3    74  PHE74       0.0574
     44  CG        24.0730   14.3340   14.7370 C.ar   74  PHE74      -0.0200
     45  CD1       25.3710   14.7860   14.5610 C.ar   74  PHE74      -0.0042
     46  CD2       23.8360   12.9840   14.8220 C.ar   74  PHE74      -0.0042
     47  CE1       26.4130   13.9060   14.4430 C.ar   74  PHE74      -0.0003
     48  CE2       24.8790   12.0820   14.7110 C.ar   74  PHE74      -0.0003
     49  CZ        26.1730   12.5460   14.5320 C.ar   74  PHE74      -0.0000
     50  N         20.8640   17.2610   16.4880 N.am   75  TYR75      -0.1974
     51  CA        20.2050   18.5440   16.6130 C.3    75  TYR75       0.1639
     52  C         19.9130   18.8990   18.0630 C.2    75  TYR75       0.2290
     53  O         19.7100   20.0730   18.3760 O.2    75  TYR75      -0.2864
     54  CB        18.9170   18.5380   15.8010 C.3    75  TYR75       0.0560
     55  CG        19.1490   18.2600   14.3410 C.ar   75  TYR75      -0.0198
     56  CD1       19.9550   19.1070   13.5680 C.ar   75  TYR75      -0.0009
     57  CD2       18.5770   17.1540   13.7230 C.ar   75  TYR75      -0.0009
     58  CE1       20.1770   18.8610   12.2240 C.ar   75  TYR75       0.0417
     59  CE2       18.8010   16.8960   12.3620 C.ar   75  TYR75       0.0417
     60  CZ        19.5980   17.7440   11.6240 C.ar   75  TYR75       0.1957
     61  OH        19.8040   17.4790   10.2750 O.3    75  TYR75      -0.2866
     62  N         17.0970   16.8560    6.9210 N.3   118  ASN118     -0.1225
     63  CA        17.9970   15.7250    6.7510 C.3   118  ASN118      0.1785
     64  C         18.1680   15.3930    5.2690 C.2   118  ASN118      0.2597
     65  O         19.2700   15.5280    4.7300 O.2   118  ASN118     -0.2718
     66  CB        17.4820   14.4920    7.4910 C.3   118  ASN118      0.1169
     67  CG        17.9070   14.4320    8.9610 C.2   118  ASN118      0.2627
     68  OD1       18.7270   15.2240    9.4590 O.2   118  ASN118     -0.2716
     69  ND2       17.3470   13.4590    9.6600 N.am  118  ASN118     -0.0877
     70  N         17.1020   14.9440    4.6030 N.am  119  GLU119     -0.1979
     71  CA        17.2490   14.4360    3.2390 C.3   119  GLU119      0.1602
     72  C         15.8650   14.2560    2.6330 C.2   119  GLU119      0.2287
     73  O         14.8450   14.3140    3.3240 O.2   119  GLU119     -0.2864
     74  CB        18.0090   13.1020    3.1810 C.3   119  GLU119      0.0415
     75  CG        17.1210   11.9310    3.5730 C.3   119  GLU119      0.1163
     76  CD        17.0380   11.7680    5.0800 C.2   119  GLU119      0.3649
     77  OE1       18.0610   11.8140    5.7940 O.co2 119  GLU119     -0.2457
     78  OE2       15.9040   11.7620    5.5700 O.co2 119  GLU119     -0.2457
     79  N         11.9470    6.3860   -4.0980 N.3   123  LYS123     -0.1245
     80  CA        11.8660    4.9640   -4.4030 C.3   123  LYS123      0.1561
     81  C         10.6710    4.7360   -5.3260 C.2   123  LYS123      0.2260
     82  O          9.8440    5.6280   -5.5300 O.2   123  LYS123     -0.2867
     83  CB        11.7400    4.1300   -3.1230 C.3   123  LYS123      0.0271
     84  CG        12.9010    4.3610   -2.1490 C.3   123  LYS123      0.0035
     85  CD        12.6060    3.8550   -0.7270 C.3   123  LYS123      0.0206
     86  CE        13.7560    4.1970    0.2160 C.3   123  LYS123      0.1093
     87  NZ        13.4600    3.8380    1.6360 N.3   123  LYS123     -0.1314
     88  N         23.8840   18.6170    7.3650 N.3   154  SER154     -0.1217
     89  CA        23.5710   18.0170    8.6590 C.3   154  SER154      0.1889
     90  C         22.8290   16.6950    8.5130 C.2   154  SER154      0.2288
     91  O         22.8880   15.8620    9.4210 O.2   154  SER154     -0.2866
     92  CB        22.7870   19.0110    9.5300 C.3   154  SER154      0.2089
     93  OG        21.5230   19.3800    8.9980 O.3   154  SER154     -0.2183
     94  N         24.9500   12.7240    8.3650 N.3   157  THR157     -0.1203
     95  CA        25.1770   11.7400    9.4280 C.3   157  THR157      0.1994
     96  C         24.0460   10.7250    9.5630 C.2   157  THR157      0.2618
     97  O         24.1580    9.7880   10.3600 O.2   157  THR157     -0.2717
     98  CB        25.3740   12.4430   10.7750 C.3   157  THR157      0.1784
     99  OG1       24.3680   13.4440   10.9380 O.3   157  THR157     -0.2211
    100  CG2       26.7120   13.1140   10.8170 C.3   157  THR157      0.0376
    101  N         22.9880   10.8580    8.7830 N.am  158  ALA158     -0.1965
    102  CA        21.7850   10.0380    8.9110 C.3   158  ALA158      0.1728
    103  C         21.7220    9.0590    7.7400 C.2   158  ALA158      0.2616
    104  O         22.6890    8.3350    7.5230 O.2   158  ALA158     -0.2715
    105  CB        20.5680   10.9380    9.0520 C.3   158  ALA158      0.0334
    106  N         20.6020    8.9820    7.0100 N.am  159  TYR159     -0.1974
    107  CA        20.4290    8.0310    5.9230 C.3   159  TYR159      0.1639
    108  C         21.6050    8.0500    4.9390 C.2   159  TYR159      0.2290
    109  O         22.0860    6.9960    4.5250 O.2   159  TYR159     -0.2864
    110  CB        19.0800    8.3620    5.2930 C.3   159  TYR159      0.0560
    111  CG        18.4230    7.2960    4.4880 C.ar  159  TYR159     -0.0198
    112  CD1       18.9820    6.0150    4.3590 C.ar  159  TYR159     -0.0009
    113  CD2       17.1180    7.4960    4.0480 C.ar  159  TYR159     -0.0009
    114  CE1       18.3180    5.0360    3.6530 C.ar  159  TYR159      0.0417
    115  CE2       16.4330    6.5170    3.3750 C.ar  159  TYR159      0.0417
    116  CZ        17.0270    5.2930    3.1700 C.ar  159  TYR159      0.1957
    117  OH        16.2900    4.3370    2.4870 O.3   159  TYR159     -0.2866
    118  N         24.4720    5.8110    6.0850 N.3   162  SER162     -0.1217
    119  CA        24.1780    4.4010    5.8650 C.3   162  SER162      0.1889
    120  C         24.3330    3.9950    4.4080 C.2   162  SER162      0.2288
    121  O         24.5560    2.8120    4.1280 O.2   162  SER162     -0.2866
    122  CB        22.7520    4.0770    6.3130 C.3   162  SER162      0.2089
    123  OG        22.5100    4.6270    7.5950 O.3   162  SER162     -0.2183
    124  N         12.4840   13.9950    5.1080 N.3   218  ASP218     -0.1225
    125  CA        12.7340   13.7000    6.5220 C.3   218  ASP218      0.1805
    126  C         11.8290   12.5270    6.9120 C.2   218  ASP218      0.2597
    127  O         11.8780   11.4880    6.2360 O.2   218  ASP218     -0.2718
    128  CB        12.5680   14.9850    7.3370 C.3   218  ASP218      0.1424
    129  CG        13.5490   16.0680    6.9150 C.2   218  ASP218      0.3668
    130  OD1       14.6210   15.7320    6.3600 O.co2 218  ASP218     -0.2456
    131  OD2       13.2510   17.2570    7.1360 O.co2 218  ASP218     -0.2456
    132  N         10.9980   12.6500    7.9630 N.am  219  HIS219     -0.1975
    133  CA        10.1100   11.5610    8.3830 C.3   219  HIS219      0.1656
    134  C          8.9220   11.3570    7.4420 C.2   219  HIS219      0.2291
    135  O          8.3900   10.2460    7.3420 O.2   219  HIS219     -0.2864
    136  CB         9.5890   11.8190    9.8010 C.3   219  HIS219      0.0771
    137  CG         9.0540   13.2070   10.0130 C.ar  219  HIS219      0.0820
    138  ND1        8.3700   13.5710   11.1550 N.ar  219  HIS219     -0.2267
    139  CD2        9.1070   14.3190    9.2390 C.ar  219  HIS219      0.1154
    140  CE1        8.0170   14.8420   11.0690 C.ar  219  HIS219      0.1986
    141  NE2        8.4530   15.3190    9.9160 N.ar  219  HIS219     -0.2212
    142  N         29.4820    8.4900   16.9950 N.3   257  PHE257     -0.1241
    143  CA        29.9000    7.3150   16.2310 C.3   257  PHE257      0.1605
    144  C         31.1690    6.6350   16.7300 C.2   257  PHE257      0.2264
    145  O         31.3610    5.4560   16.4360 O.2   257  PHE257     -0.2867
    146  CB        30.1140    7.6800   14.7430 C.3   257  PHE257      0.0534
    147  CG        28.8630    8.1260   14.0390 C.ar  257  PHE257     -0.0203
    148  CD1       27.9050    7.1990   13.6530 C.ar  257  PHE257     -0.0042
    149  CD2       28.6580    9.4710   13.7460 C.ar  257  PHE257     -0.0042
    150  CE1       26.7470    7.6010   12.9890 C.ar  257  PHE257     -0.0003
    151  CE2       27.5070    9.8870   13.0810 C.ar  257  PHE257     -0.0003
    152  CZ        26.5510    8.9490   12.6960 C.ar  257  PHE257     -0.0000
@<TRIPOS>BOND
     1    82    81    2
     2    81    80    1
     3    80    79    1
     4    80    83    1
     5    83    84    1
     6    84    85    1
     7    85    86    1
     8    86    87    1
     9   117   116    1
    10    72    71    1
    11    72    73    2
    12   116   115   ar
    13   116   114   ar
    14    74    71    1
    15    74    75    1
    16    71    70    1
    17   115   113   ar
    18    75    76    1
    19   114   112   ar
    20   113   111   ar
    21   121   120    2
    22   112   111   ar
    23   120   119    1
    24   111   110    1
    25   109   108    2
    26    70    64   am
    27    65    64    2
    28   108   107    1
    29    76    78   ar
    30    76    77   ar
    31   124   125    1
    32    64    63    1
    33   110   107    1
    34   119   118    1
    35   119   122    1
    36   107   106    1
    37   127   126    2
    38   122   123    1
    39   130   129   ar
    40   125   126    1
    41   125   128    1
    42    63    62    1
    43    63    66    1
    44   126   132   am
    45   129   131   ar
    46   129   128    1
    47   106   103   am
    48   135   134    2
    49    88    89    1
    50   134   133    1
    51    66    67    1
    52   104   103    2
    53   103   102    1
    54   132   133    1
    55    94    95    1
    56   133   136    1
    57    90    89    1
    58    90    91    2
    59    89    92    1
    60   101   102    1
    61   101    96   am
    62   102   105    1
    63    67    68    2
    64    67    69   am
    65    93    92    1
    66   139   141   ar
    67   139   137   ar
    68    95    96    1
    69    95    98    1
    70    96    97    2
    71   136   137    1
    72   141   140   ar
    73   137   138   ar
    74    61    60    1
    75    98   100    1
    76    98    99    1
    77    24    22    1
    78   140   138   ar
    79    23    22    1
    80    60    58   ar
    81    60    59   ar
    82    22    21    1
    83    20    19    2
    84    58    56   ar
    85    21    18    1
    86    59    57   ar
    87   152   150   ar
    88   152   151   ar
    89    19    18    1
    90   150   148   ar
    91    18    17    1
    92   151   149   ar
    93    56    55   ar
    94   148   147   ar
    95    57    55   ar
    96   149   147   ar
    97   147   146    1
    98    55    54    1
    99    47    49   ar
   100    47    45   ar
   101    49    48   ar
   102    45    44   ar
   103    48    46   ar
   104    44    46   ar
   105    44    43    1
   106   146   143    1
   107    43    40    1
   108     8     7    2
   109    16    15    2
   110    14    15    1
   111    14    13    1
   112    54    51    1
   113     9    10    1
   114     9     6    1
   115     7    13   am
   116     7     6    1
   117    42    41    2
   118    12    10   ar
   119   143   144    1
   120   143   142    1
   121    41    40    1
   122    41    50   am
   123    40    39    1
   124    10    11   ar
   125   145   144    2
   126    50    51    1
   127    51    52    1
   128     6     5    1
   129    39    37   am
   130     5     3   am
   131    52    53    2
   132    37    38    2
   133    37    36    1
   134     4     3    2
   135     3     2    1
   136    36    35    1
   137    33    34   ar
   138    33    31   ar
   139    34    32   ar
   140     2     1    1
   141    31    30   ar
   142    32    30   ar
   143    30    29    1
   144    29    26    1
   145    28    27    2
   146    27    26    1
   147    26    25    1
