@<TRIPOS>MOLECULE
tmp/5ejhA01.pdb
 106 108 0 0 0
SMALL
GASTEIGER

@<TRIPOS>ATOM
      1  N         23.4830   30.2220   14.7740 N.3    98  SER98      -0.1217
      2  CA        24.1650   29.5950   13.6550 C.3    98  SER98       0.1889
      3  C         23.1170   29.0320   12.7060 C.2    98  SER98       0.2288
      4  O         21.9830   28.7580   13.1020 O.2    98  SER98      -0.2866
      5  CB        25.1380   28.5060   14.1270 C.3    98  SER98       0.2089
      6  OG        24.4750   27.4880   14.8500 O.3    98  SER98      -0.2183
      7  N         22.2320   26.2650    9.3990 N.3   100  TYR100     -0.1241
      8  CA        22.5210   25.1110    8.5580 C.3   100  TYR100      0.1605
      9  C         21.7490   25.2110    7.2480 C.2   100  TYR100      0.2264
     10  O         20.6250   25.7270    7.2280 O.2   100  TYR100     -0.2867
     11  CB        22.1490   23.7880    9.2340 C.3   100  TYR100      0.0534
     12  CG        23.0860   23.3430   10.3310 C.ar  100  TYR100     -0.0201
     13  CD1       24.2110   24.0950   10.6670 C.ar  100  TYR100     -0.0009
     14  CD2       22.8490   22.1660   11.0270 C.ar  100  TYR100     -0.0009
     15  CE1       25.0650   23.6830   11.6730 C.ar  100  TYR100      0.0417
     16  CE2       23.6970   21.7440   12.0280 C.ar  100  TYR100      0.0417
     17  CZ        24.8020   22.5070   12.3510 C.ar  100  TYR100      0.1957
     18  OH        25.6540   22.0850   13.3490 O.3   100  TYR100     -0.2866
     19  N         30.7530   18.9170    6.6410 N.3   169  HIS169     -0.1227
     20  CA        30.5890   19.9700    7.6360 C.3   169  HIS169      0.1737
     21  C         29.4750   20.9350    7.2300 C.2   169  HIS169      0.2438
     22  O         29.4560   21.4100    6.0860 O.2   169  HIS169     -0.2733
     23  CB        31.8760   20.7560    7.8580 C.3   169  HIS169      0.0758
     24  CG        31.7900   21.6770    9.0330 C.ar  169  HIS169      0.0818
     25  ND1       31.2540   22.9450    8.9480 N.ar  169  HIS169     -0.2268
     26  CD2       32.1110   21.4910   10.3380 C.ar  169  HIS169      0.1154
     27  CE1       31.2740   23.5100   10.1410 C.ar  169  HIS169      0.1986
     28  NE2       31.7940   22.6500   11.0010 N.ar  169  HIS169     -0.2212
     29  N         28.5560   21.2750    8.1410 N.am  170  PRO170     -0.2718
     30  CA        27.3630   22.0570    7.7520 C.3   170  PRO170      0.1535
     31  C         27.6420   23.4980    7.3820 C.2   170  PRO170      0.2599
     32  O         26.7180   24.1930    6.9540 O.2   170  PRO170     -0.2715
     33  CB        26.4650   21.9920    9.0030 C.3   170  PRO170      0.0310
     34  CG        27.0940   20.9690    9.9270 C.3   170  PRO170      0.0237
     35  CD        28.5310   20.8650    9.5630 C.3   170  PRO170      0.0939
     36  N         28.8630   23.9940    7.5430 N.am  171  SER171     -0.1950
     37  CA        29.1510   25.2950    6.9640 C.3   171  SER171      0.1924
     38  C         29.2760   25.2470    5.4420 C.2   171  SER171      0.2314
     39  O         29.3520   26.3060    4.8100 O.2   171  SER171     -0.2863
     40  CB        30.4180   25.8670    7.5860 C.3   171  SER171      0.2116
     41  OG        31.5570   25.1520    7.1470 O.3   171  SER171     -0.2180
     42  N         22.7350   29.0710   19.9060 N.3   243  ARG243     -0.1245
     43  CA        23.9420   28.4290   20.4150 C.3   243  ARG243      0.1563
     44  C         24.4430   29.1770   21.6420 C.2   243  ARG243      0.2260
     45  O         24.5670   30.4060   21.6170 O.2   243  ARG243     -0.2867
     46  CB        25.0350   28.3870   19.3450 C.3   243  ARG243      0.0307
     47  CG        24.6470   27.6420   18.0880 C.3   243  ARG243      0.0489
     48  CD        24.3980   26.1530   18.3400 C.3   243  ARG243      0.2205
     49  NE        24.5440   25.4110   17.0780 N.pl3 243  ARG243     -0.0865
     50  CZ        24.1060   24.1740   16.8530 C.cat 243  ARG243      0.5346
     51  NH1       24.3030   23.6170   15.6600 N.pl3 243  ARG243      0.1354
     52  NH2       23.4700   23.4980   17.8070 N.pl3 243  ARG243      0.1354
     53  N         30.1090   23.5040   20.6580 N.3   247  PHE247     -0.1228
     54  CA        29.9690   22.0600   20.4680 C.3   247  PHE247      0.1721
     55  C         30.1750   21.7840   18.9810 C.2   247  PHE247      0.2437
     56  O         29.2150   21.6620   18.2110 O.2   247  PHE247     -0.2733
     57  CB        28.6060   21.5680   20.9630 C.3   247  PHE247      0.0547
     58  CG        28.5150   20.0800   21.1210 C.ar  247  PHE247     -0.0202
     59  CD1       29.6520   19.2950   21.0990 C.ar  247  PHE247     -0.0042
     60  CD2       27.2880   19.4660   21.2790 C.ar  247  PHE247     -0.0042
     61  CE1       29.5750   17.9250   21.2360 C.ar  247  PHE247     -0.0003
     62  CE2       27.2000   18.0940   21.4260 C.ar  247  PHE247     -0.0003
     63  CZ        28.3500   17.3220   21.4020 C.ar  247  PHE247     -0.0000
     64  N         31.4260   21.7020   18.5380 N.am  248  PRO248     -0.2718
     65  CA        31.6990   21.5990   17.0990 C.3   248  PRO248      0.1535
     66  C         31.0820   20.3570   16.4750 C.2   248  PRO248      0.2599
     67  O         31.0380   19.2840   17.0770 O.2   248  PRO248     -0.2715
     68  CB        33.2290   21.5420   17.0300 C.3   248  PRO248      0.0310
     69  CG        33.6920   22.1700   18.3160 C.3   248  PRO248      0.0237
     70  CD        32.6580   21.8140   19.3370 C.3   248  PRO248      0.0939
     71  N         30.6360   20.5150   15.2260 N.am  249  PHE249     -0.1960
     72  CA        30.1360   19.3900   14.4330 C.3   249  PHE249      0.1771
     73  C         31.0150   18.1460   14.5280 C.2   249  PHE249      0.2619
     74  O         30.5270   17.0530   14.8130 O.2   249  PHE249     -0.2715
     75  CB        29.9970   19.8340   12.9790 C.3   249  PHE249      0.0574
     76  CG        29.4580   18.7820   12.0650 C.ar  249  PHE249     -0.0200
     77  CD1       28.1180   18.4460   12.0910 C.ar  249  PHE249     -0.0042
     78  CD2       30.2850   18.1710   11.1230 C.ar  249  PHE249     -0.0042
     79  CE1       27.6110   17.4840   11.2100 C.ar  249  PHE249     -0.0003
     80  CE2       29.7920   17.2220   10.2490 C.ar  249  PHE249     -0.0003
     81  CZ        28.4500   16.8740   10.2920 C.ar  249  PHE249     -0.0000
     82  N         32.3240   18.2820   14.3280 N.am  250  TRP250     -0.1974
     83  CA        33.1480   17.0790   14.3590 C.3   250  TRP250      0.1640
     84  C         33.1860   16.4420   15.7440 C.2   250  TRP250      0.2290
     85  O         33.4040   15.2290   15.8550 O.2   250  TRP250     -0.2864
     86  CB        34.5630   17.3830   13.8770 C.3   250  TRP250      0.0576
     87  CG        34.6230   17.8820   12.4310 C.ar  250  TRP250      0.0006
     88  CD1       35.1470   19.0610   12.0040 C.ar  250  TRP250      0.0946
     89  CD2       34.1380   17.2170   11.2590 C.ar  250  TRP250      0.0152
     90  NE1       35.0260   19.1750   10.6460 N.ar  250  TRP250     -0.2442
     91  CE2       34.4100   18.0540   10.1630 C.ar  250  TRP250      0.0810
     92  CE3       33.5010   15.9930   11.0280 C.ar  250  TRP250      0.0012
     93  CZ2       34.0750   17.7080    8.8560 C.ar  250  TRP250      0.0191
     94  CZ3       33.1730   15.6510    9.7350 C.ar  250  TRP250      0.0001
     95  CH2       33.4600   16.5050    8.6640 C.ar  250  TRP250      0.0015
     96  N         30.4530   16.4410   17.7850 N.3   252  ARG252     -0.1245
     97  CA        29.1850   15.7030   17.7590 C.3   252  ARG252      0.1563
     98  C         29.3030   14.3980   16.9660 C.2   252  ARG252      0.2260
     99  O         28.7010   13.3810   17.3300 O.2   252  ARG252     -0.2867
    100  CB        28.0670   16.5650   17.1560 C.3   252  ARG252      0.0307
    101  CG        27.6050   17.6860   18.0410 C.3   252  ARG252      0.0489
    102  CD        26.1760   18.1190   17.7280 C.3   252  ARG252      0.2205
    103  NE        26.0980   18.7170   16.4080 N.pl3 252  ARG252     -0.0865
    104  CZ        26.4690   19.9650   16.1370 C.cat 252  ARG252      0.5346
    105  NH1       26.9330   20.7460   17.1030 N.pl3 252  ARG252      0.1354
    106  NH2       26.3680   20.4370   14.8980 N.pl3 252  ARG252      0.1354
@<TRIPOS>BOND
     1    39    38    2
     2    38    37    1
     3    22    21    2
     4    19    20    1
     5    32    31    2
     6    37    36    1
     7    37    40    1
     8    41    40    1
     9    10     9    2
    10    21    20    1
    11    21    29   am
    12     9     8    1
    13    31    36   am
    14    31    30    1
    15    20    23    1
    16    30    29    1
    17    30    33    1
    18    23    24    1
    19    29    35    1
    20     8    11    1
    21     8     7    1
    22    95    93   ar
    23    95    94   ar
    24    93    91   ar
    25    25    24   ar
    26    25    27   ar
    27    33    34    1
    28    24    26   ar
    29    11    12    1
    30    35    34    1
    31    94    92   ar
    32    27    28   ar
    33    91    90   ar
    34    91    89   ar
    35    80    81   ar
    36    80    78   ar
    37    81    79   ar
    38    12    13   ar
    39    12    14   ar
    40    26    28   ar
    41    90    88   ar
    42    13    15   ar
    43    14    16   ar
    44    92    89   ar
    45    78    76   ar
    46    79    77   ar
    47    89    87   ar
    48    15    17   ar
    49    88    87   ar
    50    16    17   ar
    51    76    77   ar
    52    76    75    1
    53    17    18    1
    54    87    86    1
    55     3     4    2
    56     3     2    1
    57    75    72    1
    58     2     5    1
    59     2     1    1
    60    86    83    1
    61     5     6    1
    62    82    83    1
    63    82    73   am
    64    83    84    1
    65    72    73    1
    66    72    71    1
    67    73    74    2
    68   106   104    1
    69    71    66   am
    70    51    50    1
    71    84    85    2
    72   104   103    2
    73   104   105    1
    74   103   102    1
    75    66    67    2
    76    66    65    1
    77    50    49    2
    78    50    52    1
    79    98    99    2
    80    98    97    1
    81    68    65    1
    82    68    69    1
    83    49    48    1
    84    65    64    1
    85   100    97    1
    86   100   101    1
    87   102   101    1
    88    97    96    1
    89    47    48    1
    90    47    46    1
    91    56    55    2
    92    69    70    1
    93    64    55   am
    94    64    70    1
    95    55    54    1
    96    46    43    1
    97    42    43    1
    98    43    44    1
    99    54    53    1
   100    54    57    1
   101    57    58    1
   102    59    58   ar
   103    59    61   ar
   104    58    60   ar
   105    61    63   ar
   106    60    62   ar
   107    63    62   ar
   108    45    44    2
