@<TRIPOS>MOLECULE
tmp/5ejlA01.pdb
 176 164 0 0 0
SMALL
GASTEIGER

@<TRIPOS>ATOM
      1  N        -22.1020  -20.9360   10.2660 N.3     9  SER9       -0.1217
      2  CA       -21.1120  -19.8670   10.1380 C.3     9  SER9        0.1889
      3  C        -19.7760  -20.3560    9.5630 C.2     9  SER9        0.2288
      4  O        -18.7030  -20.0860   10.1050 O.2     9  SER9       -0.2866
      5  CB       -20.9060  -19.1630   11.4830 C.3     9  SER9        0.2089
      6  OG       -21.4730  -17.8550   11.4460 O.3     9  SER9       -0.2183
      7  N        -29.8920   -3.1670    9.3090 N.3    38  GLU38      -0.1245
      8  CA       -29.3110   -1.8440    9.4440 C.3    38  GLU38       0.1567
      9  C        -29.3880   -1.1500    8.0970 C.2    38  GLU38       0.2260
     10  O        -29.0070   -1.7370    7.0780 O.2    38  GLU38      -0.2867
     11  CB       -27.8610   -1.9630    9.9220 C.3    38  GLU38       0.0388
     12  CG       -27.2990   -0.7700   10.6500 C.3    38  GLU38       0.1160
     13  CD       -25.9590   -1.0860   11.3060 C.2    38  GLU38       0.3649
     14  OE1      -25.7550   -2.2490   11.7470 O.co2  38  GLU38      -0.2457
     15  OE2      -25.1080   -0.1700   11.3600 O.co2  38  GLU38      -0.2457
     16  N        -27.5720   -3.8750    5.7200 N.3    75  LEU75      -0.1245
     17  CA       -26.6700   -4.8360    6.3530 C.3    75  LEU75       0.1561
     18  C        -27.4820   -5.6370    7.3500 C.2    75  LEU75       0.2260
     19  O        -28.0080   -5.0700    8.3090 O.2    75  LEU75      -0.2867
     20  CB       -25.4910   -4.1390    7.0490 C.3    75  LEU75       0.0270
     21  CG       -24.3410   -4.9990    7.6020 C.3    75  LEU75       0.0019
     22  CD1      -23.0300   -4.2230    7.6960 C.3    75  LEU75       0.0001
     23  CD2      -24.6730   -5.5840    8.9610 C.3    75  LEU75       0.0001
     24  N        -27.5830   -8.4280   10.3130 N.3    77  HIS77      -0.1226
     25  CA       -26.7490   -8.9720   11.3860 C.3    77  HIS77       0.1752
     26  C        -26.9940  -10.4720   11.5450 C.2    77  HIS77       0.2597
     27  O        -27.4420  -10.9590   12.5770 O.2    77  HIS77      -0.2718
     28  CB       -27.0270   -8.2270   12.6880 C.3    77  HIS77       0.0759
     29  CG       -26.6580   -6.7710   12.6430 C.ar   77  HIS77       0.0818
     30  ND1      -26.0600   -6.1200   13.7030 N.ar   77  HIS77      -0.2268
     31  CD2      -26.7830   -5.8470   11.6600 C.ar   77  HIS77       0.1154
     32  CE1      -25.8380   -4.8590   13.3750 C.ar   77  HIS77       0.1986
     33  NE2      -26.2700   -4.6660   12.1420 N.ar   77  HIS77      -0.2212
     34  N        -26.6650  -11.2240   10.5050 N.am   78  SER78      -0.1938
     35  CA       -27.0910  -12.6140   10.4630 C.3    78  SER78       0.2055
     36  C        -26.1050  -13.5500   11.1570 C.2    78  SER78       0.2643
     37  O        -24.9050  -13.2800   11.2510 O.2    78  SER78      -0.2714
     38  CB       -27.2990  -13.0680    9.0180 C.3    78  SER78       0.2130
     39  OG       -27.5610  -14.4610    8.9850 O.3    78  SER78      -0.2179
     40  N        -26.6280  -14.6870   11.6220 N.am   79  ASP79      -0.1971
     41  CA       -25.7560  -15.7080   12.1900 C.3    79  ASP79       0.1709
     42  C        -24.8280  -16.3050   11.1460 C.2    79  ASP79       0.2293
     43  O        -23.8140  -16.9140   11.5110 O.2    79  ASP79      -0.2864
     44  CB       -26.5930  -16.7990   12.8540 C.3    79  ASP79       0.1436
     45  CG       -27.3180  -16.2980   14.0920 C.2    79  ASP79       0.3671
     46  OD1      -26.8920  -15.2630   14.6680 O.co2  79  ASP79      -0.2456
     47  OD2      -28.3260  -16.9250   14.4770 O.co2  79  ASP79      -0.2456
     48  N        -23.2460  -14.2910    9.0640 N.3    81  GLY81      -0.1210
     49  CA       -22.2830  -13.2360    8.8160 C.3    81  GLY81       0.1956
     50  C        -23.0070  -11.9600    8.4770 C.2    81  GLY81       0.2611
     51  O        -24.2290  -11.8640    8.5960 O.2    81  GLY81      -0.2717
     52  N        -22.2660  -10.9350    8.0570 N.am   82  LYS82      -0.1979
     53  CA       -22.9440   -9.7350    7.6070 C.3    82  LYS82       0.1596
     54  C        -23.4090   -9.9490    6.1730 C.2    82  LYS82       0.2287
     55  O        -22.6330  -10.3630    5.2990 O.2    82  LYS82      -0.2864
     56  CB       -22.0740   -8.4760    7.7360 C.3    82  LYS82       0.0298
     57  CG       -20.8170   -8.4450    6.9410 C.3    82  LYS82       0.0038
     58  CD       -20.1910   -7.0490    6.8900 C.3    82  LYS82       0.0206
     59  CE       -18.8680   -7.1430    6.1210 C.3    82  LYS82       0.1093
     60  NZ       -18.1660   -5.8310    5.9410 N.3    82  LYS82      -0.1314
     61  N        -20.3690  -12.1370    4.1830 N.3   111  VAL111     -0.1231
     62  CA       -18.9900  -12.1010    4.6610 C.3   111  VAL111      0.1692
     63  C        -18.9880  -12.6920    6.0660 C.2   111  VAL111      0.2592
     64  O        -19.7640  -12.2640    6.9250 O.2   111  VAL111     -0.2718
     65  CB       -18.4100  -10.6680    4.6690 C.3   111  VAL111      0.0266
     66  CG1      -17.0260  -10.6060    5.3600 C.3   111  VAL111      0.0020
     67  CG2      -18.3250  -10.0990    3.2600 C.3   111  VAL111      0.0020
     68  N        -18.1500  -13.6970    6.2920 N.am  112  GLN112     -0.1966
     69  CA       -18.0890  -14.3500    7.6030 C.3   112  GLN112      0.1733
     70  C        -16.6110  -14.6110    7.8650 C.2   112  GLN112      0.2616
     71  O        -16.0450  -15.5890    7.3630 O.2   112  GLN112     -0.2715
     72  CB       -18.9100  -15.6330    7.6540 C.3   112  GLN112      0.0408
     73  CG       -19.4030  -16.0350    9.0760 C.3   112  GLN112      0.0908
     74  CD       -18.2650  -16.1690   10.0690 C.2   112  GLN112      0.2608
     75  OE1      -17.8130  -15.1760   10.6510 O.2   112  GLN112     -0.2717
     76  NE2      -17.7640  -17.3970   10.2410 N.am  112  GLN112     -0.0878
     77  N        -15.9900  -13.7300    8.6390 N.am  113  ARG113     -0.1963
     78  CA       -14.5650  -13.8210    8.9240 C.3   113  ARG113      0.1729
     79  C        -14.2350  -14.4970   10.2560 C.2   113  ARG113      0.2616
     80  O        -13.0530  -14.6380   10.5840 O.2   113  ARG113     -0.2715
     81  CB       -13.9680  -12.4170    8.8790 C.3   113  ARG113      0.0348
     82  CG       -14.2560  -11.7140    7.5400 C.3   113  ARG113      0.0492
     83  CD       -14.0330  -10.2170    7.6570 C.3   113  ARG113      0.2205
     84  NE       -15.1580   -9.5560    8.3050 N.pl3 113  ARG113     -0.0865
     85  CZ       -15.2980   -8.2310    8.3590 C.cat 113  ARG113      0.5346
     86  NH1      -14.3630   -7.4600    7.8200 N.pl3 113  ARG113      0.1354
     87  NH2      -16.3640   -7.6840    8.9550 N.pl3 113  ARG113      0.1354
     88  N        -15.2310  -14.9160   11.0300 N.am  114  ARG114     -0.1977
     89  CA       -15.0050  -15.3960   12.3970 C.3   114  ARG114      0.1597
     90  C        -14.6610  -16.8900   12.3950 C.2   114  ARG114      0.2287
     91  O        -15.5140  -17.7280   12.0910 O.2   114  ARG114     -0.2864
     92  CB       -16.2370  -15.1210   13.2620 C.3   114  ARG114      0.0334
     93  CG       -16.5180  -13.6250   13.4280 C.3   114  ARG114      0.0492
     94  CD       -17.8890  -13.3520   14.0590 C.3   114  ARG114      0.2205
     95  NE       -18.1120  -11.9100   14.1270 N.pl3 114  ARG114     -0.0865
     96  CZ       -19.2000  -11.3590   14.6410 C.cat 114  ARG114      0.5346
     97  NH1      -20.1430  -12.1480   15.1520 N.pl3 114  ARG114      0.1354
     98  NH2      -19.3350  -10.0240   14.6700 N.pl3 114  ARG114      0.1354
     99  N        -19.3850  -17.0640   18.3650 N.3   118  ARG118     -0.1245
    100  CA       -19.4060  -16.2110   19.5420 C.3   118  ARG118      0.1563
    101  C        -20.7080  -16.4310   20.2820 C.2   118  ARG118      0.2260
    102  O        -21.7840  -16.3290   19.6860 O.2   118  ARG118     -0.2867
    103  CB       -19.2430  -14.7400   19.1490 C.3   118  ARG118      0.0307
    104  CG       -17.8740  -14.4410   18.5420 C.3   118  ARG118      0.0489
    105  CD       -17.7060  -12.9620   18.1580 C.3   118  ARG118      0.2205
    106  NE       -16.4350  -12.7480   17.4720 N.pl3 118  ARG118     -0.0865
    107  CZ       -16.0750  -11.5950   16.9310 C.cat 118  ARG118      0.5346
    108  NH1      -16.8980  -10.5530   17.0080 N.pl3 118  ARG118      0.1354
    109  NH2      -14.9050  -11.4830   16.3170 N.pl3 118  ARG118      0.1354
    110  N        -20.1020   -9.2060   27.1890 N.3   144  LYS144     -0.1245
    111  CA       -21.2630   -9.2940   26.3110 C.3   144  LYS144      0.1561
    112  C        -21.2880  -10.6090   25.5400 C.2   144  LYS144      0.2260
    113  O        -22.3380  -11.2380   25.4110 O.2   144  LYS144     -0.2867
    114  CB       -21.2700   -8.1080   25.3530 C.3   144  LYS144      0.0271
    115  CG       -22.3090   -8.1830   24.2340 C.3   144  LYS144      0.0035
    116  CD       -22.2840   -6.9040   23.3970 C.3   144  LYS144      0.0206
    117  CE       -22.8980   -7.1040   22.0370 C.3   144  LYS144      0.1093
    118  NZ       -21.8770   -7.6770   21.1150 N.3   144  LYS144     -0.1314
    119  N         -5.9910    0.9850   19.7290 N.3   165  HIS165     -0.1241
    120  CA        -5.9320   -0.2580   18.9700 C.3   165  HIS165      0.1621
    121  C         -4.6800   -1.0620   19.3120 C.2   165  HIS165      0.2264
    122  O         -3.5620   -0.5370   19.3250 O.2   165  HIS165     -0.2867
    123  CB        -5.9820    0.0250   17.4720 C.3   165  HIS165      0.0745
    124  CG        -6.0600   -1.2160   16.6360 C.ar  165  HIS165      0.0817
    125  ND1       -7.2130   -1.9650   16.5200 N.ar  165  HIS165     -0.2268
    126  CD2       -5.1250   -1.8490   15.8870 C.ar  165  HIS165      0.1154
    127  CE1       -6.9870   -2.9990   15.7280 C.ar  165  HIS165      0.1986
    128  NE2       -5.7270   -2.9520   15.3310 N.ar  165  HIS165     -0.2212
    129  N         -9.0840   -4.9140   20.0900 N.3   189  LYS189     -0.1231
    130  CA        -9.2170   -4.8570   18.6410 C.3   189  LYS189      0.1693
    131  C        -10.1390   -3.7490   18.1560 C.2   189  LYS189      0.2592
    132  O         -9.9760   -3.2800   17.0230 O.2   189  LYS189     -0.2718
    133  CB        -9.6950   -6.2080   18.1030 C.3   189  LYS189      0.0285
    134  CG        -8.6190   -7.2880   18.2550 C.3   189  LYS189      0.0035
    135  CD        -7.2880   -6.7910   17.6690 C.3   189  LYS189      0.0206
    136  CE        -6.2420   -7.9090   17.5130 C.3   189  LYS189      0.1093
    137  NZ        -5.1670   -7.4620   16.5870 N.3   189  LYS189     -0.1314
    138  N        -11.0950   -3.3110   18.9760 N.am  190  ASN190     -0.1974
    139  CA       -11.9990   -2.2540   18.5450 C.3   190  ASN190      0.1688
    140  C        -12.7090   -1.6970   19.7680 C.2   190  ASN190      0.2292
    141  O        -12.8360   -2.3740   20.7910 O.2   190  ASN190     -0.2864
    142  CB       -13.0210   -2.7700   17.5190 C.3   190  ASN190      0.1181
    143  CG       -13.5310   -1.6670   16.5910 C.2   190  ASN190      0.2629
    144  OD1      -13.3260   -0.4850   16.8500 O.2   190  ASN190     -0.2716
    145  ND2      -14.2160   -2.0540   15.5270 N.am  190  ASN190     -0.0877
    146  N        -16.3510    0.6700   20.1670 N.3   192  ILE192     -0.1245
    147  CA       -17.4580    1.3340   19.4950 C.3   192  ILE192      0.1561
    148  C        -18.5150    1.7040   20.5240 C.2   192  ILE192      0.2260
    149  O        -18.5070    1.2400   21.6610 O.2   192  ILE192     -0.2867
    150  CB       -18.1150    0.4760   18.3830 C.3   192  ILE192      0.0252
    151  CG1      -18.7500   -0.7860   18.9810 C.3   192  ILE192      0.0019
    152  CG2      -17.1280    0.1740   17.2330 C.3   192  ILE192      0.0019
    153  CD1      -19.4370   -1.6580   17.9420 C.3   192  ILE192      0.0001
    154  N        -22.5220    1.3820   21.2030 N.3   194  ILE194     -0.1245
    155  CA       -23.5360    0.3990   20.8680 C.3   194  ILE194      0.1561
    156  C        -24.8220    0.7840   21.5830 C.2   194  ILE194      0.2260
    157  O        -24.8020    1.4160   22.6450 O.2   194  ILE194     -0.2867
    158  CB       -23.0430   -1.0190   21.2690 C.3   194  ILE194      0.0252
    159  CG1      -22.2740   -1.6470   20.1390 C.3   194  ILE194      0.0019
    160  CG2      -24.1670   -1.9500   21.6180 C.3   194  ILE194      0.0019
    161  CD1      -23.1400   -2.0190   18.9910 C.3   194  ILE194      0.0001
    162  N        -18.4820   -0.7470   23.5860 N.3   208  GLN208     -0.1245
    163  CA       -18.1730   -2.1580   23.3880 C.3   208  GLN208      0.1566
    164  C        -16.7000   -2.2810   23.0490 C.2   208  GLN208      0.2260
    165  O        -16.2150   -1.6500   22.1030 O.2   208  GLN208     -0.2867
    166  CB       -19.0320   -2.7950   22.2920 C.3   208  GLN208      0.0367
    167  CG       -18.7060   -4.2760   22.0850 C.3   208  GLN208      0.0905
    168  CD       -19.4280   -4.8620   20.9020 C.2   208  GLN208      0.2608
    169  OE1      -20.6210   -5.1650   20.9770 O.2   208  GLN208     -0.2717
    170  NE2      -18.7170   -5.0080   19.7950 N.am  208  GLN208     -0.0878
    171  N        -14.0010   -4.7820   21.8390 N.3   210  SER210     -0.1217
    172  CA       -13.7500   -6.0590   21.1790 C.3   210  SER210      0.1889
    173  C        -12.3180   -6.4760   21.4790 C.2   210  SER210      0.2288
    174  O        -11.3900   -5.7150   21.1910 O.2   210  SER210     -0.2866
    175  CB       -13.9710   -5.9490   19.6670 C.3   210  SER210      0.2089
    176  OG       -15.3460   -5.9380   19.3490 O.3   210  SER210     -0.2183
@<TRIPOS>BOND
     1    67    65    1
     2    61    62    1
     3    62    65    1
     4    62    63    1
     5    65    66    1
     6    55    54    2
     7    16    17    1
     8    60    59    1
     9    63    68   am
    10    63    64    2
    11    59    58    1
    12    54    53    1
    13    68    69    1
    14    17    20    1
    15    17    18    1
    16    58    57    1
    17    57    56    1
    18    20    21    1
    19    10     9    2
    20    18    19    2
    21    71    70    2
    22    82    83    1
    23    82    81    1
    24    21    22    1
    25    21    23    1
    26    69    72    1
    27    69    70    1
    28    53    56    1
    29    53    52    1
    30    72    73    1
    31    83    84    1
    32    86    85    1
    33    70    77   am
    34    52    50   am
    35     9     8    1
    36    84    85    2
    37    85    87    1
    38    50    51    2
    39    50    49    1
    40    77    78    1
    41    49    48    1
    42    81    78    1
    43    78    79    1
    44    39    38    1
    45    38    35    1
    46    73    74    1
    47     7     8    1
    48     8    11    1
    49     3     4    2
    50     3     2    1
    51    11    12    1
    52    74    76   am
    53    74    75    2
    54     2     1    1
    55     2     5    1
    56    79    80    2
    57    79    88   am
    58    24    25    1
    59    35    34    1
    60    35    36    1
    61    34    26   am
    62    12    13    1
    63    88    89    1
    64    42    43    2
    65    42    41    1
    66    36    37    2
    67    36    40   am
    68    13    15   ar
    69    13    14   ar
    70    25    26    1
    71    25    28    1
    72     6     5    1
    73    26    27    2
    74    40    41    1
    75    31    33   ar
    76    31    29   ar
    77    91    90    2
    78    33    32   ar
    79    41    44    1
    80    90    89    1
    81    89    92    1
    82    29    28    1
    83    29    30   ar
    84    44    45    1
    85    92    93    1
    86    32    30   ar
    87    93    94    1
    88    94    95    1
    89    45    47   ar
    90    45    46   ar
    91    95    96    2
    92    96    98    1
    93    96    97    1
    94   128   127   ar
    95   128   126   ar
    96   145   143   am
    97   127   125   ar
    98   126   124   ar
    99   109   107    1
   100   125   124   ar
   101   137   136    1
   102   143   144    2
   103   143   142    1
   104   124   123    1
   105   107   108    1
   106   107   106    2
   107   132   131    2
   108   152   150    1
   109   123   120    1
   110   106   105    1
   111   136   135    1
   112   142   139    1
   113   135   134    1
   114   153   151    1
   115   133   134    1
   116   133   130    1
   117   131   130    1
   118   131   138   am
   119   105   104    1
   120    99   100    1
   121   150   151    1
   122   150   147    1
   123   104   103    1
   124   139   138    1
   125   139   140    1
   126   130   129    1
   127   120   121    1
   128   120   119    1
   129   161   159    1
   130   103   100    1
   131   121   122    2
   132   176   175    1
   133   147   146    1
   134   147   148    1
   135   100   101    1
   136   175   172    1
   137   102   101    2
   138   140   141    2
   139   170   168   am
   140   159   158    1
   141   148   149    2
   142   155   154    1
   143   155   158    1
   144   155   156    1
   145   168   169    2
   146   168   167    1
   147   118   117    1
   148   172   173    1
   149   172   171    1
   150   174   173    2
   151   158   160    1
   152   156   157    2
   153   117   116    1
   154   167   166    1
   155   165   164    2
   156   166   163    1
   157   164   163    1
   158   163   162    1
   159   116   115    1
   160   115   114    1
   161   114   111    1
   162   113   112    2
   163   112   111    1
   164   111   110    1
