@<TRIPOS>MOLECULE
tmp/5ejlA00.pdb
 150 143 0 0 0
SMALL
GASTEIGER

@<TRIPOS>ATOM
      1  N        -15.9900  -13.7300    8.6390 N.3   113  ARG113     -0.1231
      2  CA       -14.5650  -13.8210    8.9240 C.3   113  ARG113      0.1694
      3  C        -14.2350  -14.4970   10.2560 C.2   113  ARG113      0.2592
      4  O        -13.0530  -14.6380   10.5840 O.2   113  ARG113     -0.2718
      5  CB       -13.9680  -12.4170    8.8790 C.3   113  ARG113      0.0321
      6  CG       -14.2560  -11.7140    7.5400 C.3   113  ARG113      0.0489
      7  CD       -14.0330  -10.2170    7.6570 C.3   113  ARG113      0.2205
      8  NE       -15.1580   -9.5560    8.3050 N.pl3 113  ARG113     -0.0865
      9  CZ       -15.2980   -8.2310    8.3590 C.cat 113  ARG113      0.5346
     10  NH1      -14.3630   -7.4600    7.8200 N.pl3 113  ARG113      0.1354
     11  NH2      -16.3640   -7.6840    8.9550 N.pl3 113  ARG113      0.1354
     12  N        -15.2310  -14.9160   11.0300 N.am  114  ARG114     -0.1966
     13  CA       -15.0050  -15.3960   12.3970 C.3   114  ARG114      0.1729
     14  C        -14.6610  -16.8900   12.3950 C.2   114  ARG114      0.2616
     15  O        -15.5140  -17.7280   12.0910 O.2   114  ARG114     -0.2715
     16  CB       -16.2370  -15.1210   13.2620 C.3   114  ARG114      0.0348
     17  CG       -16.5180  -13.6250   13.4280 C.3   114  ARG114      0.0492
     18  CD       -17.8890  -13.3520   14.0590 C.3   114  ARG114      0.2205
     19  NE       -18.1120  -11.9100   14.1270 N.pl3 114  ARG114     -0.0865
     20  CZ       -19.2000  -11.3590   14.6410 C.cat 114  ARG114      0.5346
     21  NH1      -20.1430  -12.1480   15.1520 N.pl3 114  ARG114      0.1354
     22  NH2      -19.3350  -10.0240   14.6700 N.pl3 114  ARG114      0.1354
     23  N        -13.4240  -17.2210   12.7790 N.am  115  ARG115     -0.1963
     24  CA       -12.9850  -18.6160   12.9160 C.3   115  ARG115      0.1729
     25  C        -13.5990  -19.3530   14.0970 C.2   115  ARG115      0.2616
     26  O        -13.4910  -20.5820   14.1540 O.2   115  ARG115     -0.2715
     27  CB       -11.4640  -18.6810   13.0380 C.3   115  ARG115      0.0348
     28  CG       -10.7530  -17.8290   11.9910 C.3   115  ARG115      0.0492
     29  CD        -9.3140  -17.6200   12.3620 C.3   115  ARG115      0.2205
     30  NE        -9.2380  -16.6820   13.4710 N.pl3 115  ARG115     -0.0865
     31  CZ        -8.4140  -15.6420   13.5120 C.cat 115  ARG115      0.5346
     32  NH1       -7.5850  -15.4280   12.5000 N.pl3 115  ARG115      0.1354
     33  NH2       -8.3970  -14.8280   14.5720 N.pl3 115  ARG115      0.1354
     34  N        -14.2310  -18.6540   15.0440 N.am  116  ASP116     -0.1971
     35  CA       -14.8310  -19.3120   16.2080 C.3   116  ASP116      0.1709
     36  C        -16.1680  -18.6310   16.4550 C.2   116  ASP116      0.2293
     37  O        -16.2340  -17.3870   16.4600 O.2   116  ASP116     -0.2864
     38  CB       -13.9490  -19.2240   17.4550 C.3   116  ASP116      0.1436
     39  CG       -12.5720  -19.7910   17.2290 C.2   116  ASP116      0.3671
     40  OD1      -12.4640  -21.0250   17.0470 O.co2 116  ASP116     -0.2456
     41  OD2      -11.5990  -19.0120   17.2350 O.co2 116  ASP116     -0.2456
     42  N        -19.3850  -17.0640   18.3650 N.3   118  ARG118     -0.1245
     43  CA       -19.4060  -16.2110   19.5420 C.3   118  ARG118      0.1563
     44  C        -20.7080  -16.4310   20.2820 C.2   118  ARG118      0.2260
     45  O        -21.7840  -16.3290   19.6860 O.2   118  ARG118     -0.2867
     46  CB       -19.2430  -14.7400   19.1490 C.3   118  ARG118      0.0307
     47  CG       -17.8740  -14.4410   18.5420 C.3   118  ARG118      0.0489
     48  CD       -17.7060  -12.9620   18.1580 C.3   118  ARG118      0.2205
     49  NE       -16.4350  -12.7480   17.4720 N.pl3 118  ARG118     -0.0865
     50  CZ       -16.0750  -11.5950   16.9310 C.cat 118  ARG118      0.5346
     51  NH1      -16.8980  -10.5530   17.0080 N.pl3 118  ARG118      0.1354
     52  NH2      -14.9050  -11.4830   16.3170 N.pl3 118  ARG118      0.1354
     53  N        -20.1520  -11.0220   24.9860 N.3   145  ASP145     -0.1225
     54  CA       -20.0900  -12.2860   24.2700 C.3   145  ASP145      0.1805
     55  C        -18.6820  -12.8240   24.3970 C.2   145  ASP145      0.2598
     56  O        -17.7420  -12.0960   24.7350 O.2   145  ASP145     -0.2718
     57  CB       -20.5250  -12.1680   22.7830 C.3   145  ASP145      0.1424
     58  CG       -19.5850  -11.2930   21.9180 C.2   145  ASP145      0.3668
     59  OD1      -18.3510  -11.5020   21.8730 O.co2 145  ASP145     -0.2456
     60  OD2      -20.1050  -10.4160   21.2100 O.co2 145  ASP145     -0.2456
     61  N        -18.5390  -14.1150   24.1130 N.am  146  ILE146     -0.1966
     62  CA       -17.2690  -14.7900   24.3170 C.3   146  ILE146      0.1727
     63  C        -17.1510  -15.9110   23.2990 C.2   146  ILE146      0.2616
     64  O        -18.1340  -16.5620   22.9400 O.2   146  ILE146     -0.2715
     65  CB       -17.1680  -15.3050   25.7720 C.3   146  ILE146      0.0290
     66  CG1      -15.7880  -15.8830   26.0710 C.3   146  ILE146      0.0022
     67  CG2      -18.2700  -16.3100   26.0570 C.3   146  ILE146      0.0023
     68  CD1      -15.4860  -15.8410   27.6020 C.3   146  ILE146      0.0001
     69  N        -15.9370  -16.1280   22.8290 N.am  147  SER147     -0.1950
     70  CA       -15.6610  -17.1660   21.8630 C.3   147  SER147      0.1924
     71  C        -14.3570  -17.8190   22.2880 C.2   147  SER147      0.2314
     72  O        -13.7410  -17.3970   23.2670 O.2   147  SER147     -0.2863
     73  CB       -15.5890  -16.5760   20.4540 C.3   147  SER147      0.2116
     74  OG       -14.3330  -15.9480   20.2640 O.3   147  SER147     -0.2180
     75  N        -11.6410  -17.4520   20.9680 N.3   149  GLY149     -0.1210
     76  CA       -10.5290  -16.5700   20.6360 C.3   149  GLY149      0.1956
     77  C        -10.5680  -15.1870   21.2710 C.2   149  GLY149      0.2612
     78  O         -9.6010  -14.4240   21.1750 O.2   149  GLY149     -0.2717
     79  N        -11.6600  -14.8360   21.9360 N.am  150  GLY150     -0.1942
     80  CA       -11.7150  -13.5250   22.5590 C.3   150  GLY150      0.2014
     81  C        -13.0800  -13.2440   23.1380 C.2   150  GLY150      0.2639
     82  O        -13.8720  -14.1610   23.3890 O.2   150  GLY150     -0.2714
     83  N        -13.3510  -11.9540   23.3300 N.am  151  CYS151     -0.1953
     84  CA       -14.5940  -11.5640   23.9800 C.3   151  CYS151      0.1843
     85  C        -14.9120  -10.1120   23.6320 C.2   151  CYS151      0.2625
     86  O        -14.0480   -9.3540   23.1910 O.2   151  CYS151     -0.2714
     87  CB       -14.4990  -11.7500   25.5070 C.3   151  CYS151      0.0997
     88  SG       -13.2350  -10.6840   26.3050 S.3   151  CYS151     -0.0797
     89  N        -16.1600   -9.7330   23.8640 N.am  152  ALA152     -0.1977
     90  CA       -16.5850   -8.3420   23.8240 C.3   152  ALA152      0.1597
     91  C        -16.9680   -7.9090   25.2260 C.2   152  ALA152      0.2287
     92  O        -17.7980   -8.5580   25.8760 O.2   152  ALA152     -0.2864
     93  CB       -17.7690   -8.1320   22.8850 C.3   152  ALA152      0.0319
     94  N         -5.9910    0.9850   19.7290 N.3   165  HIS165     -0.1241
     95  CA        -5.9320   -0.2580   18.9700 C.3   165  HIS165      0.1621
     96  C         -4.6800   -1.0620   19.3120 C.2   165  HIS165      0.2264
     97  O         -3.5620   -0.5370   19.3250 O.2   165  HIS165     -0.2867
     98  CB        -5.9820    0.0250   17.4720 C.3   165  HIS165      0.0745
     99  CG        -6.0600   -1.2160   16.6360 C.ar  165  HIS165      0.0817
    100  ND1       -7.2130   -1.9650   16.5200 N.ar  165  HIS165     -0.2268
    101  CD2       -5.1250   -1.8490   15.8870 C.ar  165  HIS165      0.1154
    102  CE1       -6.9870   -2.9990   15.7280 C.ar  165  HIS165      0.1986
    103  NE2       -5.7270   -2.9520   15.3310 N.ar  165  HIS165     -0.2212
    104  N         -9.0840   -4.9140   20.0900 N.3   189  LYS189     -0.1231
    105  CA        -9.2170   -4.8570   18.6410 C.3   189  LYS189      0.1693
    106  C        -10.1390   -3.7490   18.1560 C.2   189  LYS189      0.2592
    107  O         -9.9760   -3.2800   17.0230 O.2   189  LYS189     -0.2718
    108  CB        -9.6950   -6.2080   18.1030 C.3   189  LYS189      0.0285
    109  CG        -8.6190   -7.2880   18.2550 C.3   189  LYS189      0.0035
    110  CD        -7.2880   -6.7910   17.6690 C.3   189  LYS189      0.0206
    111  CE        -6.2420   -7.9090   17.5130 C.3   189  LYS189      0.1093
    112  NZ        -5.1670   -7.4620   16.5870 N.3   189  LYS189     -0.1314
    113  N        -11.0950   -3.3110   18.9760 N.am  190  ASN190     -0.1974
    114  CA       -11.9990   -2.2540   18.5450 C.3   190  ASN190      0.1688
    115  C        -12.7090   -1.6970   19.7680 C.2   190  ASN190      0.2292
    116  O        -12.8360   -2.3740   20.7910 O.2   190  ASN190     -0.2864
    117  CB       -13.0210   -2.7700   17.5190 C.3   190  ASN190      0.1181
    118  CG       -13.5310   -1.6670   16.5910 C.2   190  ASN190      0.2629
    119  OD1      -13.3260   -0.4850   16.8500 O.2   190  ASN190     -0.2716
    120  ND2      -14.2160   -2.0540   15.5270 N.am  190  ASN190     -0.0877
    121  N        -18.4820   -0.7470   23.5860 N.3   208  GLN208     -0.1245
    122  CA       -18.1730   -2.1580   23.3880 C.3   208  GLN208      0.1566
    123  C        -16.7000   -2.2810   23.0490 C.2   208  GLN208      0.2260
    124  O        -16.2150   -1.6500   22.1030 O.2   208  GLN208     -0.2867
    125  CB       -19.0320   -2.7950   22.2920 C.3   208  GLN208      0.0367
    126  CG       -18.7060   -4.2760   22.0850 C.3   208  GLN208      0.0905
    127  CD       -19.4280   -4.8620   20.9020 C.2   208  GLN208      0.2608
    128  OE1      -20.6210   -5.1650   20.9770 O.2   208  GLN208     -0.2717
    129  NE2      -18.7170   -5.0080   19.7950 N.am  208  GLN208     -0.0878
    130  N        -14.0010   -4.7820   21.8390 N.3   210  SER210     -0.1202
    131  CA       -13.7500   -6.0590   21.1790 C.3   210  SER210      0.2020
    132  C        -12.3180   -6.4760   21.4790 C.2   210  SER210      0.2619
    133  O        -11.3900   -5.7150   21.1910 O.2   210  SER210     -0.2717
    134  CB       -13.9710   -5.9490   19.6670 C.3   210  SER210      0.2103
    135  OG       -15.3460   -5.9380   19.3490 O.3   210  SER210     -0.2182
    136  N        -12.1350   -7.6890   22.0310 N.am  211  CYS211     -0.1955
    137  CA       -10.8290   -8.1530   22.5030 C.3   211  CYS211      0.1843
    138  C        -10.4520   -9.5250   21.9430 C.2   211  CYS211      0.2625
    139  O        -11.2920  -10.4190   21.8360 O.2   211  CYS211     -0.2714
    140  CB       -10.7880   -8.2530   24.0540 C.3   211  CYS211      0.0997
    141  SG       -11.1320   -6.6920   24.9530 S.3   211  CYS211     -0.0797
    142  N         -9.1600   -9.7040   21.6920 N.am  212  GLN212     -0.1977
    143  CA        -8.5610  -10.9890   21.3880 C.3   212  GLN212      0.1601
    144  C         -7.8390  -11.5540   22.6180 C.2   212  GLN212      0.2287
    145  O         -7.0810  -10.8410   23.2750 O.2   212  GLN212     -0.2864
    146  CB        -7.5700  -10.8190   20.2400 C.3   212  GLN212      0.0394
    147  CG        -6.8730  -12.0970   19.8500 C.3   212  GLN212      0.0908
    148  CD        -6.0030  -11.9160   18.6160 C.2   212  GLN212      0.2608
    149  OE1       -5.2500  -10.9530   18.5090 O.2   212  GLN212     -0.2717
    150  NE2       -6.0900  -12.8540   17.6950 N.am  212  GLN212     -0.0878
@<TRIPOS>BOND
     1     6     7    1
     2     6     5    1
     3     7     8    1
     4    10     9    1
     5     8     9    2
     6     9    11    1
     7     1     2    1
     8     5     2    1
     9     2     3    1
    10     3     4    2
    11     3    12   am
    12    12    13    1
    13    28    29    1
    14    28    27    1
    15    15    14    2
    16    29    30    1
    17    14    13    1
    18    14    23   am
    19    13    16    1
    20    32    31    1
    21    23    24    1
    22    24    27    1
    23    24    25    1
    24    16    17    1
    25    17    18    1
    26    30    31    2
    27    31    33    1
    28    18    19    1
    29    25    26    2
    30    25    34   am
    31    19    20    2
    32    20    22    1
    33    20    21    1
    34    34    35    1
    35   103   102   ar
    36   103   101   ar
    37   120   118   am
    38   102   100   ar
    39   101    99   ar
    40    35    36    1
    41    35    38    1
    42    52    50    1
    43    36    37    2
    44   100    99   ar
    45   112   111    1
    46   118   119    2
    47   118   117    1
    48    99    98    1
    49    50    51    1
    50    50    49    2
    51   107   106    2
    52    40    39   ar
    53    39    41   ar
    54    39    38    1
    55    98    95    1
    56    49    48    1
    57   111   110    1
    58   117   114    1
    59   110   109    1
    60   150   148   am
    61   108   109    1
    62   108   105    1
    63   106   105    1
    64   106   113   am
    65    48    47    1
    66    42    43    1
    67   149   148    2
    68    47    46    1
    69   114   113    1
    70   114   115    1
    71   148   147    1
    72   105   104    1
    73    95    96    1
    74    95    94    1
    75    46    43    1
    76    96    97    2
    77   135   134    1
    78    43    44    1
    79   134   131    1
    80    45    44    2
    81   115   116    2
    82   129   127   am
    83   147   146    1
    84   146   143    1
    85    74    73    1
    86    73    70    1
    87    76    75    1
    88    76    77    1
    89   127   128    2
    90   127   126    1
    91    78    77    2
    92   131   132    1
    93   131   130    1
    94   133   132    2
    95    60    58   ar
    96    77    79   am
    97   143   142    1
    98   143   144    1
    99   132   136   am
   100   142   138   am
   101   139   138    2
   102    70    71    1
   103    70    69    1
   104    59    58   ar
   105    58    57    1
   106    79    80    1
   107   138   137    1
   108   136   137    1
   109   126   125    1
   110   124   123    2
   111    71    72    2
   112   125   122    1
   113   137   140    1
   114    80    81    1
   115   144   145    2
   116    57    54    1
   117    69    63   am
   118    93    90    1
   119    64    63    2
   120   123   122    1
   121    81    83   am
   122    81    82    2
   123    86    85    2
   124    63    62    1
   125    83    84    1
   126   122   121    1
   127    85    89   am
   128    85    84    1
   129    90    89    1
   130    90    91    1
   131    84    87    1
   132   140   141    1
   133    61    62    1
   134    61    55   am
   135    54    55    1
   136    54    53    1
   137    62    65    1
   138    55    56    2
   139    91    92    2
   140    87    88    1
   141    65    67    1
   142    65    66    1
   143    66    68    1
