@<TRIPOS>MOLECULE
tmp/5ejvC01.pdb
 212 204 0 0 0
SMALL
GASTEIGER

@<TRIPOS>ATOM
      1  N         37.6170   83.2340  -20.4950 N.3    23  GLN23      -0.1231
      2  CA        37.5050   84.1810  -19.3620 C.3    23  GLN23       0.1698
      3  C         36.0730   84.3090  -18.7980 C.2    23  GLN23       0.2592
      4  O         35.8240   84.0550  -17.5970 O.2    23  GLN23      -0.2718
      5  CB        37.9870   85.6420  -19.7210 C.3    23  GLN23       0.0381
      6  CG        38.0730   86.5610  -18.4920 C.3    23  GLN23       0.0905
      7  CD        38.6550   87.9670  -18.7330 C.2    23  GLN23       0.2608
      8  OE1       38.8740   88.3900  -19.8490 O.2    23  GLN23      -0.2717
      9  NE2       38.8560   88.7090  -17.6630 N.am   23  GLN23      -0.0878
     10  N         35.1550   84.7600  -19.6520 N.am   24  LEU24      -0.1980
     11  CA        33.7420   84.8070  -19.3300 C.3    24  LEU24       0.1596
     12  C         32.9860   83.8990  -20.2610 C.2    24  LEU24       0.2287
     13  O         33.2830   83.8270  -21.4730 O.2    24  LEU24      -0.2864
     14  CB        33.1650   86.2380  -19.3220 C.3    24  LEU24       0.0297
     15  CG        33.8120   87.2480  -18.3240 C.3    24  LEU24       0.0022
     16  CD1       33.7590   88.6500  -18.8820 C.3    24  LEU24       0.0001
     17  CD2       33.3230   87.2360  -16.8910 C.3    24  LEU24       0.0001
     18  N         41.2810  105.1760  -14.4210 N.3    54  TRP54      -0.1241
     19  CA        42.4390  104.6440  -15.2120 C.3    54  TRP54       0.1605
     20  C         43.0240  103.3860  -14.5460 C.2    54  TRP54       0.2264
     21  O         43.2780  102.3700  -15.2060 O.2    54  TRP54      -0.2867
     22  CB        43.5670  105.6500  -15.4530 C.3    54  TRP54       0.0550
     23  CG        43.4410  106.3340  -16.7600 C.ar   54  TRP54       0.0003
     24  CD1       42.6930  107.4350  -17.0030 C.ar   54  TRP54       0.0946
     25  CD2       44.0030  105.9740  -18.0450 C.ar   54  TRP54       0.0152
     26  NE1       42.7860  107.8290  -18.3170 N.ar   54  TRP54      -0.2442
     27  CE2       43.5810  106.9610  -18.9850 C.ar   54  TRP54       0.0810
     28  CE3       44.8400  104.9610  -18.4940 C.ar   54  TRP54       0.0012
     29  CZ2       43.9270  106.9250  -20.3320 C.ar   54  TRP54       0.0191
     30  CZ3       45.1760  104.9360  -19.8430 C.ar   54  TRP54       0.0001
     31  CH2       44.6830  105.8900  -20.7490 C.ar   54  TRP54       0.0015
     32  N         40.6130  100.4130  -14.8420 N.3    57  CYS57      -0.1221
     33  CA        40.5510   99.8920  -16.2070 C.3    57  CYS57       0.1808
     34  C         41.8350   99.1550  -16.5400 C.2    57  CYS57       0.2601
     35  O         41.7740   98.1350  -17.1820 O.2    57  CYS57      -0.2717
     36  CB        40.2490  101.0160  -17.2160 C.3    57  CYS57       0.0970
     37  SG        38.5100  101.5600  -17.1070 S.3    57  CYS57      -0.0800
     38  N         42.9830   99.6560  -16.0860 N.am   58  ALA58      -0.1979
     39  CA        44.2950   99.0090  -16.3670 C.3    58  ALA58       0.1597
     40  C         44.2990   97.6460  -15.6740 C.2    58  ALA58       0.2287
     41  O         44.7620   96.6700  -16.2610 O.2    58  ALA58      -0.2864
     42  CB        45.4320   99.8830  -15.9080 C.3    58  ALA58       0.0319
     43  N         41.6400   95.6800  -14.9950 N.3    60  HIS60      -0.1226
     44  CA        40.7230   94.8080  -15.7840 C.3    60  HIS60       0.1752
     45  C         41.3210   94.3830  -17.1160 C.2    60  HIS60       0.2595
     46  O         41.2050   93.2250  -17.5260 O.2    60  HIS60      -0.2718
     47  CB        39.4360   95.5250  -16.1050 C.3    60  HIS60       0.0759
     48  CG        38.5560   95.6930  -14.9220 C.ar   60  HIS60       0.0818
     49  ND1       38.1700   94.6300  -14.1350 N.ar   60  HIS60      -0.2268
     50  CD2       38.0780   96.7980  -14.3170 C.ar   60  HIS60       0.1154
     51  CE1       37.4250   95.0670  -13.1380 C.ar   60  HIS60       0.1986
     52  NE2       37.3600   96.3800  -13.2210 N.ar   60  HIS60      -0.2212
     53  N         41.9430   95.3300  -17.8100 N.am   61  LEU61      -0.1980
     54  CA        42.6480   95.0250  -19.0770 C.3    61  LEU61       0.1596
     55  C         43.7730   94.0150  -18.8760 C.2    61  LEU61       0.2287
     56  O         43.9070   93.0550  -19.6540 O.2    61  LEU61      -0.2864
     57  CB        43.2060   96.3160  -19.6800 C.3    61  LEU61       0.0297
     58  CG        43.7090   96.0480  -21.0730 C.3    61  LEU61       0.0022
     59  CD1       42.5550   95.6360  -21.9970 C.3    61  LEU61       0.0001
     60  CD2       44.4680   97.2280  -21.6300 C.3    61  LEU61       0.0001
     61  N         42.3290   90.5120  -18.5170 N.3    64  ALA64      -0.1245
     62  CA        41.9790   90.0510  -19.8780 C.3    64  ALA64       0.1562
     63  C         43.2110   89.6300  -20.6660 C.2    64  ALA64       0.2260
     64  O         43.2020   88.5950  -21.3460 O.2    64  ALA64      -0.2867
     65  CB        41.2430   91.1750  -20.5660 C.3    64  ALA64       0.0290
     66  N         46.4820   93.1350  -26.8100 N.3    95  MET95      -0.1245
     67  CA        45.4440   94.1520  -26.7740 C.3    95  MET95       0.1570
     68  C         44.4290   94.0540  -27.9600 C.2    95  MET95       0.2261
     69  O         43.2160   94.1830  -27.7510 O.2    95  MET95      -0.2867
     70  CB        46.1420   95.5020  -26.7940 C.3    95  MET95       0.0387
     71  CG        45.2640   96.7250  -26.8390 C.3    95  MET95       0.0595
     72  SD        44.3610   96.8620  -25.3300 S.3    95  MET95      -0.1393
     73  CE        43.5850   98.4680  -25.5900 C.3    95  MET95       0.0692
     74  N         42.0770   91.2250  -27.0530 N.3    98  VAL98      -0.1231
     75  CA        41.1090   91.6580  -26.0560 C.3    98  VAL98       0.1692
     76  C         39.9950   92.4880  -26.6920 C.2    98  VAL98       0.2591
     77  O         38.8210   92.2840  -26.4160 O.2    98  VAL98      -0.2718
     78  CB        41.8300   92.5140  -25.0460 C.3    98  VAL98       0.0266
     79  CG1       40.8270   93.3070  -24.2120 C.3    98  VAL98       0.0020
     80  CG2       42.6800   91.6070  -24.1780 C.3    98  VAL98       0.0020
     81  N         40.3710   93.4150  -27.5670 N.am   99  LEU99      -0.1980
     82  CA        39.3810   94.2850  -28.2460 C.3    99  LEU99       0.1596
     83  C         38.3960   93.4610  -29.0640 C.2    99  LEU99       0.2287
     84  O         37.2050   93.7530  -29.0720 O.2    99  LEU99      -0.2864
     85  CB        40.0780   95.3470  -29.0740 C.3    99  LEU99       0.0297
     86  CG        40.9270   96.3030  -28.1870 C.3    99  LEU99       0.0022
     87  CD1       42.0260   96.9120  -29.0310 C.3    99  LEU99       0.0001
     88  CD2       40.0590   97.3780  -27.5780 C.3    99  LEU99       0.0001
     89  N         36.0630   91.6130  -26.6910 N.3   102  MET102     -0.1245
     90  CA        35.0840   92.5420  -26.1320 C.3   102  MET102      0.1570
     91  C         33.6720   92.4180  -26.7150 C.2   102  MET102      0.2261
     92  O         32.6760   92.6510  -26.0080 O.2   102  MET102     -0.2867
     93  CB        35.5400   93.9800  -26.1850 C.3   102  MET102      0.0387
     94  CG        36.3860   94.4350  -25.0430 C.3   102  MET102      0.0595
     95  SD        36.7970   96.1770  -25.3720 S.3   102  MET102     -0.1393
     96  CE        35.1410   96.8910  -25.2110 C.3   102  MET102      0.0692
     97  N         30.9860   90.7200  -24.8170 N.3   105  ALA105     -0.1245
     98  CA        30.5190   91.3680  -23.6040 C.3   105  ALA105      0.1562
     99  C         29.8190   92.6830  -23.9490 C.2   105  ALA105      0.2260
    100  O         29.4490   93.4350  -23.0380 O.2   105  ALA105     -0.2867
    101  CB        31.6320   91.6170  -22.6180 C.3   105  ALA105      0.0290
    102  N         28.2550   97.6500  -22.4390 N.3   113  VAL113     -0.1231
    103  CA        29.2340   96.6140  -22.1700 C.3   113  VAL113      0.1692
    104  C         29.1680   96.1050  -20.7520 C.2   113  VAL113      0.2592
    105  O         28.8440   96.8590  -19.8290 O.2   113  VAL113     -0.2718
    106  CB        30.7280   97.0020  -22.3270 C.3   113  VAL113      0.0266
    107  CG1       31.1280   96.8900  -23.7410 C.3   113  VAL113      0.0020
    108  CG2       31.0480   98.3360  -21.6880 C.3   113  VAL113      0.0020
    109  N         29.4910   94.8320  -20.5630 N.am  114  PHE114     -0.1962
    110  CA        29.6490   94.2110  -19.2330 C.3   114  PHE114      0.1771
    111  C         30.9140   94.6470  -18.5350 C.2   114  PHE114      0.2619
    112  O         32.0190   94.3420  -18.9890 O.2   114  PHE114     -0.2715
    113  CB        29.5890   92.7070  -19.2410 C.3   114  PHE114      0.0574
    114  CG        29.6030   92.0830  -17.8670 C.ar  114  PHE114     -0.0200
    115  CD1       28.4290   92.0240  -17.0930 C.ar  114  PHE114     -0.0042
    116  CD2       30.7740   91.4720  -17.3540 C.ar  114  PHE114     -0.0042
    117  CE1       28.4340   91.4100  -15.8400 C.ar  114  PHE114     -0.0003
    118  CE2       30.7690   90.8750  -16.0940 C.ar  114  PHE114     -0.0003
    119  CZ        29.5910   90.8460  -15.3480 C.ar  114  PHE114     -0.0000
    120  N         30.7520   95.3760  -17.4210 N.am  115  PHE115     -0.1974
    121  CA        31.8930   95.8890  -16.6510 C.3   115  PHE115      0.1639
    122  C         31.6150   95.9400  -15.1860 C.2   115  PHE115      0.2290
    123  O         30.6280   96.5430  -14.7610 O.2   115  PHE115     -0.2864
    124  CB        32.2620   97.2660  -17.1660 C.3   115  PHE115      0.0560
    125  CG        33.3180   98.0090  -16.4010 C.ar  115  PHE115     -0.0200
    126  CD1       34.6430   97.8520  -16.7070 C.ar  115  PHE115     -0.0042
    127  CD2       32.9700   99.0310  -15.5340 C.ar  115  PHE115     -0.0042
    128  CE1       35.6230   98.6480  -16.0760 C.ar  115  PHE115     -0.0003
    129  CE2       33.9410   99.7940  -14.8710 C.ar  115  PHE115     -0.0003
    130  CZ        35.2730   99.5970  -15.1430 C.ar  115  PHE115     -0.0000
    131  N         32.4970  105.5810  -18.5820 N.3   125  PHE125     -0.1241
    132  CA        33.9840  105.7620  -18.7310 C.3   125  PHE125      0.1605
    133  C         34.4370  107.2110  -18.8360 C.2   125  PHE125      0.2264
    134  O         35.5680  107.4880  -19.1450 O.2   125  PHE125     -0.2867
    135  CB        34.4600  104.9010  -19.9030 C.3   125  PHE125      0.0534
    136  CG        34.1460  103.4680  -19.7090 C.ar  125  PHE125     -0.0203
    137  CD1       34.9540  102.6730  -18.8860 C.ar  125  PHE125     -0.0042
    138  CD2       33.0120  102.9130  -20.2680 C.ar  125  PHE125     -0.0042
    139  CE1       34.6500  101.3530  -18.6710 C.ar  125  PHE125     -0.0003
    140  CE2       32.7080  101.5920  -20.0700 C.ar  125  PHE125     -0.0003
    141  CZ        33.5320  100.8120  -19.2760 C.ar  125  PHE125     -0.0000
    142  N         37.7480  108.8300  -17.5020 N.3   128  LEU128     -0.1245
    143  CA        39.0070  108.5550  -18.1830 C.3   128  LEU128      0.1561
    144  C         39.5290  109.7660  -18.9890 C.2   128  LEU128      0.2260
    145  O         40.7320  109.9500  -19.1110 O.2   128  LEU128     -0.2867
    146  CB        38.7680  107.4260  -19.1360 C.3   128  LEU128      0.0270
    147  CG        38.6830  106.0190  -18.5290 C.3   128  LEU128      0.0019
    148  CD1       38.3950  105.0060  -19.6170 C.3   128  LEU128      0.0001
    149  CD2       39.9340  105.6050  -17.7330 C.3   128  LEU128      0.0001
    150  N         39.2010  110.4720  -22.1950 N.3   130  CYS130     -0.1235
    151  CA        39.6410  110.1180  -23.5740 C.3   130  CYS130      0.1677
    152  C         38.4380  109.6700  -24.4030 C.2   130  CYS130      0.2270
    153  O         38.2770  108.4930  -24.8620 O.2   130  CYS130     -0.2867
    154  CB        40.7800  109.1210  -23.5270 C.3   130  CYS130      0.0956
    155  SG        40.4500  107.6960  -22.4700 S.3   130  CYS130     -0.0801
    156  N         38.7820  107.8400  -27.9340 N.3   133  LEU133     -0.1231
    157  CA        39.1540  106.4260  -27.8030 C.3   133  LEU133      0.1693
    158  C         37.9820  105.5710  -27.3580 C.2   133  LEU133      0.2591
    159  O         37.6820  104.5190  -27.9580 O.2   133  LEU133     -0.2718
    160  CB        40.2980  106.2370  -26.8220 C.3   133  LEU133      0.0284
    161  CG        40.7900  104.7920  -26.4120 C.3   133  LEU133      0.0019
    162  CD1       41.2940  104.0240  -27.6040 C.3   133  LEU133      0.0001
    163  CD2       41.8710  104.7410  -25.3080 C.3   133  LEU133      0.0001
    164  N         37.2670  106.0290  -26.3120 N.am  134  ILE134     -0.1980
    165  CA        36.1200  105.2700  -25.8490 C.3   134  ILE134      0.1595
    166  C         35.0880  105.0600  -26.9450 C.2   134  ILE134      0.2287
    167  O         34.6490  103.9360  -27.2170 O.2   134  ILE134     -0.2864
    168  CB        35.3720  106.0570  -24.7570 C.3   134  ILE134      0.0276
    169  CG1       36.2590  106.3120  -23.5210 C.3   134  ILE134      0.0022
    170  CG2       34.0340  105.3450  -24.3730 C.3   134  ILE134      0.0022
    171  CD1       36.7240  105.0450  -22.8840 C.3   134  ILE134      0.0001
    172  N         36.2670  102.5640  -29.4480 N.3   137  ILE137     -0.1231
    173  CA        36.1660  101.1560  -28.9370 C.3   137  ILE137      0.1692
    174  C         34.7240  100.6720  -29.0520 C.2   137  ILE137      0.2592
    175  O         34.4630   99.5380  -29.5110 O.2   137  ILE137     -0.2718
    176  CB        36.7040  101.0830  -27.5100 C.3   137  ILE137      0.0266
    177  CG1       38.2300  101.0430  -27.5260 C.3   137  ILE137      0.0019
    178  CG2       36.2060   99.8890  -26.7530 C.3   137  ILE137      0.0020
    179  CD1       38.7950  101.6690  -26.2830 C.3   137  ILE137      0.0001
    180  N         33.7860  101.5380  -28.6700 N.am  138  PHE138     -0.1976
    181  CA        32.3920  101.1360  -28.7400 C.3   138  PHE138      0.1639
    182  C         31.9620  100.9310  -30.1960 C.2   138  PHE138      0.2290
    183  O         31.2190   99.9980  -30.4950 O.2   138  PHE138     -0.2864
    184  CB        31.5090  102.1850  -28.0340 C.3   138  PHE138      0.0560
    185  CG        31.2550  101.8770  -26.6010 C.ar  138  PHE138     -0.0200
    186  CD1       32.2500  102.0430  -25.6520 C.ar  138  PHE138     -0.0042
    187  CD2       30.0250  101.3420  -26.1890 C.ar  138  PHE138     -0.0042
    188  CE1       32.0010  101.7710  -24.2970 C.ar  138  PHE138     -0.0003
    189  CE2       29.7860  101.0210  -24.8380 C.ar  138  PHE138     -0.0003
    190  CZ        30.7800  101.2630  -23.8920 C.ar  138  PHE138     -0.0000
    191  N         45.3050  104.0010  -27.6000 N.3   216  HIS216     -0.1241
    192  CA        45.5100  103.5830  -26.2130 C.3   216  HIS216      0.1621
    193  C         46.8620  104.0390  -25.6890 C.2   216  HIS216      0.2264
    194  O         46.9690  104.7120  -24.6700 O.2   216  HIS216     -0.2867
    195  CB        45.3430  102.0890  -25.9960 C.3   216  HIS216      0.0745
    196  CG        45.4400  101.7180  -24.5510 C.ar  216  HIS216      0.0817
    197  ND1       46.4100  100.8780  -24.0520 N.ar  216  HIS216     -0.2268
    198  CD2       44.7420  102.1480  -23.4800 C.ar  216  HIS216      0.1154
    199  CE1       46.2480  100.7330  -22.7530 C.ar  216  HIS216      0.1986
    200  NE2       45.2710  101.5330  -22.3760 N.ar  216  HIS216     -0.2212
    201  N         51.0350   95.5600  -17.4270 N.3   239  TYR239     -0.1241
    202  CA        50.4580   96.6620  -18.2060 C.3   239  TYR239      0.1605
    203  C         51.5500   97.6770  -18.5830 C.2   239  TYR239      0.2264
    204  O         51.6970   98.0320  -19.7430 O.2   239  TYR239     -0.2867
    205  CB        49.3360   97.3290  -17.4460 C.3   239  TYR239      0.0534
    206  CG        48.6830   98.4900  -18.1350 C.ar  239  TYR239     -0.0201
    207  CD1       49.2680   99.7490  -18.1300 C.ar  239  TYR239     -0.0009
    208  CD2       47.4270   98.3590  -18.7730 C.ar  239  TYR239     -0.0009
    209  CE1       48.6390  100.8140  -18.7370 C.ar  239  TYR239      0.0417
    210  CE2       46.8230   99.4310  -19.4180 C.ar  239  TYR239      0.0417
    211  CZ        47.4400  100.6470  -19.3880 C.ar  239  TYR239      0.1957
    212  OH        46.8660  101.7220  -19.9850 O.3   239  TYR239     -0.2866
@<TRIPOS>BOND
     1   183   182    2
     2   182   181    1
     3   175   174    2
     4   172   173    1
     5    85    82    1
     6    85    86    1
     7    84    83    2
     8    83    82    1
     9   174   173    1
    10   174   180   am
    11    87    86    1
    12   173   176    1
    13   181   180    1
    14   181   184    1
    15    82    81    1
    16    86    88    1
    17   184   185    1
    18    68    69    2
    19    68    67    1
    20   159   158    2
    21   156   157    1
    22   157   158    1
    23   157   160    1
    24   162   161    1
    25   191   192    1
    26    81    76   am
    27   177   176    1
    28   177   179    1
    29   176   178    1
    30   158   164   am
    31   167   166    2
    32    74    75    1
    33   166   165    1
    34    71    70    1
    35    71    72    1
    36   160   161    1
    37    66    67    1
    38    70    67    1
    39    91    90    1
    40    91    92    2
    41    76    77    2
    42    76    75    1
    43    89    90    1
    44   185   187   ar
    45   185   186   ar
    46   161   163    1
    47   164   165    1
    48   192   195    1
    49   192   193    1
    50   187   189   ar
    51    93    90    1
    52    93    94    1
    53    75    78    1
    54   195   196    1
    55   165   168    1
    56   193   194    2
    57   186   188   ar
    58    73    72    1
    59    95    96    1
    60    95    94    1
    61    78    79    1
    62    78    80    1
    63   153   152    2
    64   189   190   ar
    65    97    98    1
    66   168   170    1
    67   168   169    1
    68   196   197   ar
    69   196   198   ar
    70   152   151    1
    71   188   190   ar
    72   197   199   ar
    73    99    98    1
    74    99   100    2
    75   107   106    1
    76    98   101    1
    77   151   154    1
    78   151   150    1
    79   154   155    1
    80   169   171    1
    81   198   200   ar
    82   199   200   ar
    83   102   103    1
    84   106   103    1
    85   106   108    1
    86   103   104    1
    87    59    58    1
    88    60    58    1
    89    13    12    2
    90    64    63    2
    91    58    57    1
    92   104   109   am
    93   104   105    2
    94    31    29   ar
    95    31    30   ar
    96    63    62    1
    97    65    62    1
    98   109   110    1
    99     1     2    1
   100    29    27   ar
   101   138   140   ar
   102   138   136   ar
   103    12    11    1
   104   140   141   ar
   105   212   211    1
   106   135   136    1
   107   135   132    1
   108    62    61    1
   109     8     7    2
   110    30    28   ar
   111   204   203    2
   112     5     2    1
   113     5     6    1
   114   136   137   ar
   115    57    54    1
   116    56    55    2
   117    10    11    1
   118    10     3   am
   119   148   147    1
   120   210   211   ar
   121   210   208   ar
   122   211   209   ar
   123     2     3    1
   124    11    14    1
   125    14    15    1
   126   141   139   ar
   127   113   110    1
   128   113   114    1
   129   110   111    1
   130   134   133    2
   131   146   147    1
   132   146   143    1
   133   145   144    2
   134    54    55    1
   135    54    53    1
   136   112   111    2
   137   144   143    1
   138    27    26   ar
   139    27    25   ar
   140   137   139   ar
   141    16    15    1
   142   133   132    1
   143     3     4    2
   144   208   206   ar
   145   209   207   ar
   146     7     6    1
   147     7     9   am
   148   132   131    1
   149   203   202    1
   150   111   120   am
   151   147   149    1
   152    28    25   ar
   153    15    17    1
   154    26    24   ar
   155   202   205    1
   156   202   201    1
   157   143   142    1
   158   206   207   ar
   159   206   205    1
   160    25    23   ar
   161   114   116   ar
   162   114   115   ar
   163    53    45   am
   164    46    45    2
   165   120   121    1
   166   116   118   ar
   167    36    37    1
   168    36    33    1
   169    35    34    2
   170   124   121    1
   171   124   125    1
   172    45    44    1
   173   115   117   ar
   174    24    23   ar
   175    23    22    1
   176   126   125   ar
   177   126   128   ar
   178   121   122    1
   179    34    33    1
   180    34    38   am
   181   125   127   ar
   182    39    38    1
   183    39    42    1
   184    39    40    1
   185    41    40    2
   186    33    32    1
   187    47    44    1
   188    47    48    1
   189   118   119   ar
   190   128   130   ar
   191   117   119   ar
   192    44    43    1
   193   127   129   ar
   194    22    19    1
   195    19    20    1
   196    19    18    1
   197    21    20    2
   198   122   123    2
   199   130   129   ar
   200    48    50   ar
   201    48    49   ar
   202    50    52   ar
   203    49    51   ar
   204    52    51   ar
