@<TRIPOS>MOLECULE
tmp/5ejvC00.pdb
 139 132 0 0 0
SMALL
GASTEIGER

@<TRIPOS>ATOM
      1  N         45.9930   88.5810  -19.4800 N.3    66  GLN66      -0.1245
      2  CA        46.4510   87.2860  -18.9290 C.3    66  GLN66       0.1566
      3  C         45.7750   86.0520  -19.5710 C.2    66  GLN66       0.2260
      4  O         46.4380   85.0180  -19.8160 O.2    66  GLN66      -0.2867
      5  CB        46.2470   87.1910  -17.4130 C.3    66  GLN66       0.0367
      6  CG        47.3520   88.0420  -16.7910 C.3    66  GLN66       0.0905
      7  CD        47.1650   88.4710  -15.3460 C.2    66  GLN66       0.2608
      8  OE1       46.2490   88.0750  -14.6470 O.2    66  GLN66      -0.2717
      9  NE2       48.0880   89.2770  -14.8940 N.am   66  GLN66      -0.0878
     10  N         47.3300   85.5470  -22.9850 N.3    69  VAL69      -0.1231
     11  CA        48.6220   84.8610  -22.9100 C.3    69  VAL69       0.1692
     12  C         48.3720   83.3480  -22.7620 C.2    69  VAL69       0.2591
     13  O         48.9950   82.5520  -23.4240 O.2    69  VAL69      -0.2718
     14  CB        49.4400   85.3880  -21.7930 C.3    69  VAL69       0.0266
     15  CG1       50.7620   84.6260  -21.7230 C.3    69  VAL69       0.0020
     16  CG2       49.7230   86.8580  -22.0710 C.3    69  VAL69       0.0020
     17  N         47.4610   82.9570  -21.8940 N.am   70  GLU70      -0.1979
     18  CA        47.0570   81.5390  -21.7710 C.3    70  GLU70       0.1602
     19  C         46.5470   80.9110  -23.1050 C.2    70  GLU70       0.2287
     20  O         46.9770   79.7930  -23.5000 O.2    70  GLU70      -0.2864
     21  CB        46.0670   81.3650  -20.6000 C.3    70  GLU70       0.0415
     22  CG        46.7760   81.2050  -19.2580 C.3    70  GLU70       0.1163
     23  CD        47.7670   79.9890  -19.2580 C.2    70  GLU70       0.3649
     24  OE1       48.8050   80.1260  -18.5840 O.co2  70  GLU70      -0.2457
     25  OE2       47.5530   78.9120  -19.9580 O.co2  70  GLU70      -0.2457
     26  N         49.6490   80.3200  -25.2120 N.3    73  LYS73      -0.1231
     27  CA        50.3970   79.1610  -24.7120 C.3    73  LYS73       0.1693
     28  C         49.7100   77.8520  -25.0560 C.2    73  LYS73       0.2591
     29  O         50.4280   76.8160  -25.1890 O.2    73  LYS73      -0.2718
     30  CB        50.4590   79.1840  -23.2010 C.3    73  LYS73       0.0285
     31  CG        51.4130   80.2100  -22.6900 C.3    73  LYS73       0.0035
     32  CD        51.1320   80.4990  -21.2550 C.3    73  LYS73       0.0206
     33  CE        51.4440   79.3350  -20.3370 C.3    73  LYS73       0.1093
     34  NZ        51.4530   79.8950  -18.9490 N.3    73  LYS73      -0.1314
     35  N         48.3760   77.8690  -25.2160 N.am   74  ARG74      -0.1980
     36  CA        47.7000   76.6210  -25.6090 C.3    74  ARG74       0.1597
     37  C         47.5480   76.4110  -27.1250 C.2    74  ARG74       0.2287
     38  O         47.0450   75.4060  -27.5710 O.2    74  ARG74      -0.2864
     39  CB        46.3510   76.4790  -24.9320 C.3    74  ARG74       0.0334
     40  CG        46.5080   76.3310  -23.4440 C.3    74  ARG74       0.0492
     41  CD        45.2510   76.6580  -22.6860 C.3    74  ARG74       0.2205
     42  NE        45.5650   76.4050  -21.2910 N.pl3  74  ARG74      -0.0865
     43  CZ        44.8180   75.7420  -20.4260 C.cat  74  ARG74       0.5346
     44  NH1       45.2980   75.5350  -19.2110 N.pl3  74  ARG74       0.1354
     45  NH2       43.6010   75.3320  -20.7380 N.pl3  74  ARG74       0.1354
     46  N         52.4350   77.9510  -31.2600 N.3    78  PHE78      -0.1227
     47  CA        52.9350   79.1820  -30.6840 C.3    78  PHE78       0.1736
     48  C         54.1770   78.9890  -29.7880 C.2    78  PHE78       0.2595
     49  O         55.1780   79.7240  -29.8980 O.2    78  PHE78      -0.2718
     50  CB        51.8440   79.9330  -29.9250 C.3    78  PHE78       0.0547
     51  CG        52.3100   81.2060  -29.2780 C.ar   78  PHE78      -0.0202
     52  CD1       52.2900   82.4240  -29.9710 C.ar   78  PHE78      -0.0042
     53  CD2       52.6880   81.2300  -27.9690 C.ar   78  PHE78      -0.0042
     54  CE1       52.7110   83.6370  -29.3510 C.ar   78  PHE78      -0.0003
     55  CE2       53.1340   82.4390  -27.3510 C.ar   78  PHE78      -0.0003
     56  CZ        53.1240   83.6370  -28.0370 C.ar   78  PHE78      -0.0000
     57  N         54.0820   78.0250  -28.8900 N.am   79  MET79      -0.1979
     58  CA        55.2190   77.7000  -27.9810 C.3    79  MET79       0.1605
     59  C         56.4150   77.0470  -28.7090 C.2    79  MET79       0.2287
     60  O         57.4980   76.9150  -28.1270 O.2    79  MET79      -0.2864
     61  CB        54.7610   76.7830  -26.8250 C.3    79  MET79       0.0413
     62  CG        53.7470   77.3930  -25.8600 C.3    79  MET79       0.0598
     63  SD        54.3020   78.9820  -25.2010 S.3    79  MET79      -0.1393
     64  CE        55.1870   78.4990  -23.6970 C.3    79  MET79       0.0692
     65  N         61.5150   82.4710  -28.1890 N.3    83  GLN83      -0.1245
     66  CA        60.9930   83.4030  -27.1580 C.3    83  GLN83       0.1566
     67  C         60.8410   84.8240  -27.6790 C.2    83  GLN83       0.2260
     68  O         59.8410   85.4550  -27.3410 O.2    83  GLN83      -0.2867
     69  CB        61.7000   83.2890  -25.8100 C.3    83  GLN83       0.0367
     70  CG        61.0040   84.1070  -24.7160 C.3    83  GLN83       0.0905
     71  CD        59.8730   83.3210  -24.0870 C.2    83  GLN83       0.2608
     72  OE1       60.1240   82.3550  -23.3480 O.2    83  GLN83      -0.2717
     73  NE2       58.6450   83.6180  -24.5080 N.am   83  GLN83      -0.0878
     74  N         57.5740   84.9890  -29.6830 N.3    86  GLN86      -0.1231
     75  CA        56.4360   84.8850  -28.7550 C.3    86  GLN86       0.1698
     76  C         56.1750   86.2570  -28.1060 C.2    86  GLN86       0.2592
     77  O         55.0450   86.7440  -28.0880 O.2    86  GLN86      -0.2718
     78  CB        56.7790   83.9020  -27.6760 C.3    86  GLN86       0.0381
     79  CG        56.7780   82.4600  -28.1520 C.3    86  GLN86       0.0905
     80  CD        57.2030   81.5710  -27.0420 C.2    86  GLN86       0.2608
     81  OE1       57.3510   82.0520  -25.9330 O.2    86  GLN86      -0.2717
     82  NE2       57.3920   80.2900  -27.3050 N.am   86  GLN86      -0.0878
     83  N         57.2320   86.8850  -27.6000 N.am   87  ILE87      -0.1980
     84  CA        57.1330   88.2210  -27.0140 C.3    87  ILE87       0.1595
     85  C         56.6220   89.2980  -27.9990 C.2    87  ILE87       0.2287
     86  O         55.7170   90.0950  -27.6720 O.2    87  ILE87      -0.2864
     87  CB        58.5050   88.7370  -26.5600 C.3    87  ILE87       0.0276
     88  CG1       59.1890   87.7360  -25.6410 C.3    87  ILE87       0.0022
     89  CG2       58.3630   90.1240  -25.9250 C.3    87  ILE87       0.0022
     90  CD1       59.1680   88.0460  -24.1600 C.3    87  ILE87       0.0001
     91  N         52.8640   88.6910  -28.7990 N.3    90  LEU90      -0.1231
     92  CA        52.0280   89.0950  -27.6450 C.3    90  LEU90       0.1693
     93  C         52.0210   90.5890  -27.3540 C.2    90  LEU90       0.2591
     94  O         50.9490   91.1760  -27.0440 O.2    90  LEU90      -0.2718
     95  CB        52.2960   88.3710  -26.3740 C.3    90  LEU90       0.0284
     96  CG        51.8850   86.9190  -26.5230 C.3    90  LEU90       0.0019
     97  CD1       52.5890   86.1010  -25.4670 C.3    90  LEU90       0.0001
     98  CD2       50.3870   86.7110  -26.4390 C.3    90  LEU90       0.0001
     99  N         53.1900   91.2200  -27.4340 N.am   91  LYS91      -0.1980
    100  CA        53.2530   92.6670  -27.1880 C.3    91  LYS91       0.1596
    101  C         52.4200   93.4740  -28.1890 C.2    91  LYS91       0.2287
    102  O         51.7550   94.4260  -27.8190 O.2    91  LYS91      -0.2864
    103  CB        54.6550   93.1710  -27.1720 C.3    91  LYS91       0.0298
    104  CG        54.7700   94.5630  -26.5840 C.3    91  LYS91       0.0038
    105  CD        56.2360   95.0640  -26.6460 C.3    91  LYS91       0.0206
    106  CE        56.4380   96.5400  -26.2660 C.3    91  LYS91       0.1093
    107  NZ        55.7930   97.4110  -27.2850 N.3    91  LYS91      -0.1314
    108  N         52.3690   95.8120  -13.2480 N.3   237  PRO237     -0.2102
    109  CA        53.6560   95.6600  -13.9560 C.3   237  PRO237      0.1504
    110  C         53.5380   95.1460  -15.3840 C.2   237  PRO237      0.2575
    111  O         54.1990   95.7030  -16.2810 O.2   237  PRO237     -0.2718
    112  CB        54.5090   94.7470  -13.0410 C.3   237  PRO237      0.0282
    113  CG        53.6160   94.3320  -11.9380 C.3   237  PRO237      0.0208
    114  CD        52.4690   95.2860  -11.8590 C.3   237  PRO237      0.0893
    115  N         52.7030   94.1400  -15.6140 N.am  238  LEU238     -0.1980
    116  CA        52.5060   93.6630  -16.9940 C.3   238  LEU238      0.1596
    117  C         51.9900   94.7740  -17.9230 C.2   238  LEU238      0.2287
    118  O         52.4470   94.9080  -19.0610 O.2   238  LEU238     -0.2864
    119  CB        51.6330   92.4470  -17.0380 C.3   238  LEU238      0.0297
    120  CG        51.2900   91.8040  -18.3820 C.3   238  LEU238      0.0022
    121  CD1       52.5670   91.2710  -19.0170 C.3   238  LEU238      0.0001
    122  CD2       50.2530   90.7030  -18.2360 C.3   238  LEU238      0.0001
    123  N         54.7730   97.0820  -18.7760 N.3   241  GLU241     -0.1231
    124  CA        55.6740   96.4140  -19.7260 C.3   241  GLU241      0.1699
    125  C         55.1280   96.4020  -21.1350 C.2   241  GLU241      0.2592
    126  O         55.8410   96.6480  -22.0900 O.2   241  GLU241     -0.2718
    127  CB        55.8780   94.9370  -19.4250 C.3   241  GLU241      0.0402
    128  CG        57.0200   94.5310  -18.5360 C.3   241  GLU241      0.1161
    129  CD        57.0480   93.0200  -18.2950 C.2   241  GLU241      0.3649
    130  OE1       57.6110   92.6010  -17.2630 O.co2 241  GLU241     -0.2457
    131  OE2       56.4910   92.2350  -19.1080 O.co2 241  GLU241     -0.2457
    132  N         53.8420   96.1180  -21.2700 N.am  242  LEU242     -0.1980
    133  CA        53.2250   96.0760  -22.6060 C.3   242  LEU242      0.1596
    134  C         53.0330   97.4610  -23.2540 C.2   242  LEU242      0.2287
    135  O         53.0480   97.5650  -24.4640 O.2   242  LEU242     -0.2864
    136  CB        51.8670   95.3100  -22.6200 C.3   242  LEU242      0.0297
    137  CG        51.9530   93.8200  -22.2720 C.3   242  LEU242      0.0022
    138  CD1       50.5970   93.2290  -22.4110 C.3   242  LEU242      0.0001
    139  CD2       52.8990   93.0790  -23.1640 C.3   242  LEU242      0.0001
@<TRIPOS>BOND
     1    46    47    1
     2    47    50    1
     3    47    48    1
     4    52    54   ar
     5    52    51   ar
     6    50    51    1
     7    49    48    2
     8    48    57   am
     9    74    75    1
    10    54    56   ar
    11    51    53   ar
    12    57    58    1
    13    91    92    1
    14    75    76    1
    15    75    78    1
    16    59    60    2
    17    59    58    1
    18   101   102    2
    19   101   100    1
    20    65    66    1
    21    79    78    1
    22    79    80    1
    23    76    77    2
    24    76    83   am
    25    56    55   ar
    26    85    86    2
    27    85    84    1
    28    58    61    1
    29    53    55   ar
    30    67    68    2
    31    67    66    1
    32    92    93    1
    33    92    95    1
    34    83    84    1
    35    38    37    2
    36    99    93   am
    37    99   100    1
    38    93    94    2
    39    82    80   am
    40   107   106    1
    41   100   103    1
    42   103   104    1
    43    66    69    1
    44    37    36    1
    45    80    81    2
    46    84    87    1
    47    61    62    1
    48   105   104    1
    49   105   106    1
    50    87    89    1
    51    87    88    1
    52    96    98    1
    53    96    95    1
    54    96    97    1
    55    62    63    1
    56    69    70    1
    57    88    90    1
    58    36    35    1
    59    36    39    1
    60    35    28   am
    61    26    27    1
    62    63    64    1
    63    29    28    2
    64    28    27    1
    65    39    40    1
    66    70    71    1
    67    27    30    1
    68    73    71   am
    69   135   134    2
    70    71    72    2
    71    20    19    2
    72    40    41    1
    73    13    12    2
    74   134   133    1
    75    30    31    1
    76   139   137    1
    77    19    18    1
    78    10    11    1
    79    11    12    1
    80    11    14    1
    81    12    17   am
    82    31    32    1
    83    41    42    1
    84   136   133    1
    85   136   137    1
    86   133   132    1
    87   138   137    1
    88   126   125    2
    89    16    14    1
    90    17    18    1
    91    14    15    1
    92    18    21    1
    93    42    43    2
    94   132   125   am
    95    32    33    1
    96   125   124    1
    97    45    43    1
    98    21    22    1
    99    43    44    1
   100    33    34    1
   101    25    23   ar
   102     4     3    2
   103   124   127    1
   104   124   123    1
   105     3     2    1
   106     1     2    1
   107   127   128    1
   108    23    22    1
   109    23    24   ar
   110   131   129   ar
   111   118   117    2
   112   121   120    1
   113     2     5    1
   114   128   129    1
   115   120   122    1
   116   120   119    1
   117   129   130   ar
   118   117   116    1
   119     5     6    1
   120   119   116    1
   121   116   115    1
   122     6     7    1
   123   111   110    2
   124   115   110   am
   125   110   109    1
   126     7     9   am
   127     7     8    2
   128   109   108    1
   129   109   112    1
   130   108   114    1
   131   112   113    1
   132   113   114    1
