@<TRIPOS>MOLECULE
tmp/5ejvA00.pdb
 128 121 0 0 0
SMALL
GASTEIGER

@<TRIPOS>ATOM
      1  N         14.8070   60.2730  -11.8910 N.3    67  GLN67      -0.1245
      2  CA        15.2510   59.0050  -11.3170 C.3    67  GLN67       0.1566
      3  C         14.6240   57.7480  -11.9860 C.2    67  GLN67       0.2260
      4  O         15.2610   56.7250  -12.1270 O.2    67  GLN67      -0.2867
      5  CB        14.9710   58.9970   -9.8580 C.3    67  GLN67       0.0367
      6  CG        15.9600   59.9180   -9.1720 C.3    67  GLN67       0.0905
      7  CD        15.6350   60.0790   -7.6970 C.2    67  GLN67       0.2608
      8  OE1       14.5830   59.6070   -7.2240 O.2    67  GLN67      -0.2717
      9  NE2       16.5360   60.7490   -6.9630 N.am   67  GLN67      -0.0878
     10  N         16.4000   57.2630  -15.2670 N.3    70  VAL70      -0.1231
     11  CA        17.6930   56.5870  -15.0240 C.3    70  VAL70       0.1692
     12  C         17.4970   55.0700  -14.8640 C.2    70  VAL70       0.2591
     13  O         18.2600   54.2710  -15.4270 O.2    70  VAL70      -0.2718
     14  CB        18.4530   57.1500  -13.8350 C.3    70  VAL70       0.0266
     15  CG1       19.7010   56.3540  -13.5720 C.3    70  VAL70       0.0020
     16  CG2       18.8660   58.5650  -14.1610 C.3    70  VAL70       0.0020
     17  N         16.4440   54.6840  -14.1670 N.am   71  GLU71      -0.1979
     18  CA        16.1380   53.2420  -13.9370 C.3    71  GLU71       0.1602
     19  C         15.7950   52.5470  -15.2600 C.2    71  GLU71       0.2287
     20  O         16.2480   51.4280  -15.4940 O.2    71  GLU71      -0.2864
     21  CB        15.0010   53.0350  -12.9610 C.3    71  GLU71       0.0415
     22  CG        15.5190   53.0520  -11.5290 C.3    71  GLU71       0.1163
     23  CD        16.6240   51.9990  -11.3270 C.2    71  GLU71       0.3649
     24  OE1       17.6580   52.4510  -10.7630 O.co2  71  GLU71      -0.2457
     25  OE2       16.4610   50.7830  -11.8090 O.co2  71  GLU71      -0.2457
     26  N         19.0150   52.0070  -17.0720 N.3    74  LYS74      -0.1245
     27  CA        19.7560   50.8950  -16.4710 C.3    74  LYS74       0.1561
     28  C         19.2290   49.5120  -16.9270 C.2    74  LYS74       0.2260
     29  O         20.0290   48.6240  -17.1670 O.2    74  LYS74      -0.2867
     30  CB        19.7780   50.9780  -14.9720 C.3    74  LYS74       0.0271
     31  CG        20.6860   52.0790  -14.4980 C.3    74  LYS74       0.0035
     32  CD        20.4170   52.3970  -13.0430 C.3    74  LYS74       0.0206
     33  CE        20.7850   51.2240  -12.1630 C.3    74  LYS74       0.1093
     34  NZ        20.2430   51.5460  -10.8350 N.3    74  LYS74      -0.1314
     35  N         22.5820   49.3910  -22.6460 N.3    79  PHE79      -0.1227
     36  CA        23.0440   50.5680  -21.8800 C.3    79  PHE79       0.1736
     37  C         24.2280   50.2500  -20.9760 C.2    79  PHE79       0.2595
     38  O         25.1670   51.0340  -20.9190 O.2    79  PHE79      -0.2718
     39  CB        21.8880   51.2240  -21.1620 C.3    79  PHE79       0.0547
     40  CG        22.2110   52.6020  -20.6620 C.ar   79  PHE79      -0.0202
     41  CD1       22.1560   53.7030  -21.5250 C.ar   79  PHE79      -0.0042
     42  CD2       22.6280   52.7970  -19.3310 C.ar   79  PHE79      -0.0042
     43  CE1       22.4740   54.9980  -21.0500 C.ar   79  PHE79      -0.0003
     44  CE2       22.9510   54.0380  -18.8710 C.ar   79  PHE79      -0.0003
     45  CZ        22.8670   55.1440  -19.7160 C.ar   79  PHE79      -0.0000
     46  N         24.1930   49.1530  -20.2740 N.am   80  MET80      -0.1979
     47  CA        25.2560   48.7420  -19.4160 C.3    80  MET80       0.1605
     48  C         26.5570   48.4350  -20.1530 C.2    80  MET80       0.2287
     49  O         27.6400   48.4320  -19.5470 O.2    80  MET80      -0.2864
     50  CB        24.8500   47.4520  -18.6880 C.3    80  MET80       0.0413
     51  CG        23.8030   47.7030  -17.6040 C.3    80  MET80       0.0598
     52  SD        23.7680   46.4400  -16.3130 S.3    80  MET80      -0.1393
     53  CE        22.9570   47.4690  -15.0370 C.3    80  MET80       0.0692
     54  N         31.1150   54.2500  -18.9450 N.3    84  GLN84      -0.1245
     55  CA        30.5960   55.1630  -17.9320 C.3    84  GLN84       0.1566
     56  C         30.4610   56.5890  -18.3930 C.2    84  GLN84       0.2260
     57  O         29.4570   57.2110  -18.1060 O.2    84  GLN84      -0.2867
     58  CB        31.4310   55.1780  -16.6780 C.3    84  GLN84       0.0367
     59  CG        30.6800   55.7610  -15.5680 C.3    84  GLN84       0.0905
     60  CD        31.2980   55.3670  -14.2980 C.2    84  GLN84       0.2608
     61  OE1       30.7350   54.5560  -13.5630 O.2    84  GLN84      -0.2717
     62  NE2       32.4680   55.9140  -14.0200 N.am   84  GLN84      -0.0878
     63  N         27.4420   56.8220  -20.7940 N.3    87  GLN87      -0.1231
     64  CA        26.2030   56.6920  -19.9900 C.3    87  GLN87       0.1698
     65  C         25.7880   58.0670  -19.4570 C.2    87  GLN87       0.2592
     66  O         24.6380   58.4500  -19.5700 O.2    87  GLN87      -0.2718
     67  CB        26.3410   55.6150  -18.9430 C.3    87  GLN87       0.0381
     68  CG        26.6380   54.2250  -19.4960 C.3    87  GLN87       0.0905
     69  CD        26.8030   53.2030  -18.3790 C.2    87  GLN87       0.2608
     70  OE1       27.4300   53.4880  -17.3410 O.2    87  GLN87      -0.2717
     71  NE2       26.1950   52.0420  -18.5400 N.am   87  GLN87      -0.0878
     72  N         26.7370   58.8160  -18.9020 N.am   88  ILE88      -0.1980
     73  CA        26.4880   60.1380  -18.3240 C.3    88  ILE88       0.1595
     74  C         26.1370   61.1540  -19.3810 C.2    88  ILE88       0.2287
     75  O         25.1510   61.8880  -19.2270 O.2    88  ILE88      -0.2864
     76  CB        27.7330   60.4900  -17.4970 C.3    88  ILE88       0.0276
     77  CG1       27.6320   59.7450  -16.1770 C.3    88  ILE88       0.0022
     78  CG2       27.9260   61.9860  -17.2550 C.3    88  ILE88       0.0022
     79  CD1       28.9690   59.5860  -15.4890 C.3    88  ILE88       0.0001
     80  N         22.5620   60.4700  -20.5380 N.3    91  LEU91      -0.1231
     81  CA        21.5330   60.7990  -19.5520 C.3    91  LEU91       0.1693
     82  C         21.4700   62.3080  -19.2980 C.2    91  LEU91       0.2591
     83  O         20.3880   62.8510  -19.1800 O.2    91  LEU91      -0.2718
     84  CB        21.8040   60.0310  -18.2770 C.3    91  LEU91       0.0284
     85  CG        21.4360   58.5310  -18.2580 C.3    91  LEU91       0.0019
     86  CD1       21.8500   57.8110  -16.9680 C.3    91  LEU91       0.0001
     87  CD2       19.9580   58.3730  -18.3780 C.3    91  LEU91       0.0001
     88  N         22.6210   62.9700  -19.1900 N.am   92  LYS92      -0.1980
     89  CA        22.6310   64.4050  -18.9950 C.3    92  LYS92       0.1596
     90  C         21.8900   65.1320  -20.1320 C.2    92  LYS92       0.2287
     91  O         21.1520   66.0600  -19.8760 O.2    92  LYS92      -0.2864
     92  CB        24.0640   64.8400  -18.8480 C.3    92  LYS92       0.0298
     93  CG        24.1950   66.2360  -18.3120 C.3    92  LYS92       0.0038
     94  CD        25.6480   66.4960  -17.9240 C.3    92  LYS92       0.0206
     95  CE        25.9020   67.9570  -17.6030 C.3    92  LYS92       0.1093
     96  NZ        24.8220   68.5550  -16.7940 N.3    92  LYS92      -0.1314
     97  N         20.3850   67.4450   -5.0530 N.2   238  PRO238     -0.2571
     98  CA        21.7280   67.2990   -5.6590 C.3   238  PRO238      0.2026
     99  C         21.7660   66.7830   -7.1130 C.2   238  PRO238      0.2683
    100  O         22.5190   67.3020   -7.9770 O.2   238  PRO238     -0.2709
    101  CB        22.4780   66.3670   -4.6860 C.2   238  PRO238      0.0085
    102  CG        21.5310   66.0390   -3.5680 C.2   238  PRO238      0.0180
    103  CD        20.2410   66.8080   -3.7300 C.2   238  PRO238      0.0938
    104  N         20.9200   65.8300   -7.4010 N.am  239  LEU239     -0.1973
    105  CA        20.8730   65.2450   -8.7440 C.3   239  LEU239      0.1596
    106  C         20.4930   66.2980   -9.7650 C.2   239  LEU239      0.2287
    107  O         21.0290   66.3350  -10.8830 O.2   239  LEU239     -0.2864
    108  CB        19.8270   64.1580   -8.8320 C.3   239  LEU239      0.0297
    109  CG        19.8580   63.4760  -10.2190 C.3   239  LEU239      0.0022
    110  CD1       21.2030   62.9170  -10.5400 C.3   239  LEU239      0.0001
    111  CD2       18.7940   62.4130  -10.3760 C.3   239  LEU239      0.0001
    112  N         23.4430   68.6290  -10.3700 N.3   242  GLU242     -0.1231
    113  CA        24.3910   67.9360  -11.2370 C.3   242  GLU242      0.1699
    114  C         23.9370   67.9040  -12.7020 C.2   242  GLU242      0.2592
    115  O         24.7200   68.1390  -13.6120 O.2   242  GLU242     -0.2718
    116  CB        24.5920   66.4940  -10.7810 C.3   242  GLU242      0.0402
    117  CG        25.5840   66.3480   -9.6760 C.3   242  GLU242      0.1161
    118  CD        25.6860   64.9300   -9.1340 C.2   242  GLU242      0.3649
    119  OE1       25.3220   63.9580   -9.8540 O.co2 242  GLU242     -0.2457
    120  OE2       26.1530   64.7850   -7.9680 O.co2 242  GLU242     -0.2457
    121  N         22.6680   67.5720  -12.9050 N.am  243  LEU243     -0.1980
    122  CA        22.1100   67.6030  -14.2420 C.3   243  LEU243      0.1596
    123  C         22.0910   68.9890  -14.9230 C.2   243  LEU243      0.2287
    124  O         22.3410   69.0810  -16.1130 O.2   243  LEU243     -0.2864
    125  CB        20.7640   66.9500  -14.3950 C.3   243  LEU243      0.0297
    126  CG        20.8100   65.4440  -14.1770 C.3   243  LEU243      0.0022
    127  CD1       19.5370   64.8680  -14.7270 C.3   243  LEU243      0.0001
    128  CD2       21.9940   64.7710  -14.8390 C.3   243  LEU243      0.0001
@<TRIPOS>BOND
     1    35    36    1
     2    36    39    1
     3    36    37    1
     4    41    43   ar
     5    41    40   ar
     6    39    40    1
     7    43    45   ar
     8    37    38    2
     9    37    46   am
    10    63    64    1
    11    40    42   ar
    12    80    81    1
    13    46    47    1
    14    48    49    2
    15    48    47    1
    16    90    91    2
    17    90    89    1
    18    64    65    1
    19    64    67    1
    20    45    44   ar
    21    66    65    2
    22    81    82    1
    23    81    84    1
    24    68    67    1
    25    68    69    1
    26    65    72   am
    27    47    50    1
    28    74    75    2
    29    74    73    1
    30    42    44   ar
    31    82    88   am
    32    82    83    2
    33    88    89    1
    34    89    92    1
    35    54    55    1
    36    72    73    1
    37    92    93    1
    38    50    51    1
    39    71    69   am
    40    56    57    2
    41    56    55    1
    42    69    70    2
    43    87    85    1
    44    73    76    1
    45    93    94    1
    46    84    85    1
    47    85    86    1
    48    55    58    1
    49    94    95    1
    50    51    52    1
    51    95    96    1
    52    76    78    1
    53    76    77    1
    54    29    28    2
    55    26    27    1
    56    28    27    1
    57    58    59    1
    58    27    30    1
    59    52    53    1
    60    77    79    1
    61   124   123    2
    62    59    60    1
    63    20    19    2
    64    13    12    2
    65    10    11    1
    66    19    18    1
    67    11    12    1
    68    11    14    1
    69    30    31    1
    70   123   122    1
    71    12    17   am
    72   128   126    1
    73   127   126    1
    74    31    32    1
    75   125   122    1
    76   125   126    1
    77    60    62   am
    78    60    61    2
    79   122   121    1
    80    17    18    1
    81    16    14    1
    82    18    21    1
    83    14    15    1
    84   115   114    2
    85    32    33    1
    86    21    22    1
    87   121   114   am
    88   114   113    1
    89    33    34    1
    90     4     3    2
    91     3     2    1
    92     1     2    1
    93    25    23   ar
    94    22    23    1
    95    23    24   ar
    96     2     5    1
    97   113   116    1
    98   113   112    1
    99   107   106    2
   100   116   117    1
   101   110   109    1
   102   111   109    1
   103   109   108    1
   104     5     6    1
   105   119   118   ar
   106   106   105    1
   107   117   118    1
   108     6     7    1
   109   118   120   ar
   110   108   105    1
   111   105   104    1
   112   100    99    2
   113     7     8    2
   114     7     9   am
   115   104    99   am
   116    99    98    1
   117    98    97    1
   118    98   101    1
   119    97   103    2
   120   101   102    2
   121   103   102    1
