@<TRIPOS>MOLECULE
tmp/5ek0D02.pdb
 104 101 0 0 0
SMALL
GASTEIGER

@<TRIPOS>ATOM
      1  N        -36.3990  -30.7060   16.8250 N.3   142  ILE142     -0.1245
      2  CA       -36.6260  -29.3440   17.3310 C.3   142  ILE142      0.1561
      3  C        -35.3120  -28.7440   17.8500 C.2   142  ILE142      0.2260
      4  O        -34.9230  -27.6700   17.3930 O.2   142  ILE142     -0.2867
      5  CB       -37.7660  -29.2740   18.3960 C.3   142  ILE142      0.0252
      6  CG1      -39.0870  -29.8550   17.8600 C.3   142  ILE142      0.0019
      7  CG2      -37.9630  -27.8330   18.9120 C.3   142  ILE142      0.0019
      8  CD1      -40.0660  -30.2700   18.9270 C.3   142  ILE142      0.0001
      9  N        -33.0660  -27.7740   15.0820 N.3   145  MET145     -0.1230
     10  CA       -33.6870  -26.6440   14.3820 C.3   145  MET145      0.1702
     11  C        -33.4970  -25.3380   15.1850 C.2   145  MET145      0.2593
     12  O        -33.3100  -24.2730   14.5950 O.2   145  MET145     -0.2718
     13  CB       -35.1770  -26.9560   14.1360 C.3   145  MET145      0.0401
     14  CG       -35.9370  -25.8970   13.3600 C.3   145  MET145      0.0596
     15  SD       -35.4930  -25.7600   11.6200 S.3   145  MET145     -0.1393
     16  CE       -37.0790  -25.4270   10.9390 C.3   145  MET145      0.0692
     17  N        -33.5210  -25.4420   16.5250 N.am  146  THR146     -0.1953
     18  CA       -33.3220  -24.3440   17.4710 C.3   146  THR146      0.1897
     19  C        -31.8850  -23.8510   17.3670 C.2   146  THR146      0.2313
     20  O        -31.6560  -22.6510   17.2440 O.2   146  THR146     -0.2863
     21  CB       -33.6110  -24.8410   18.8940 C.3   146  THR146      0.1794
     22  OG1      -34.9060  -25.4350   18.9260 O.3   146  THR146     -0.2208
     23  CG2      -33.5050  -23.7420   19.9400 C.3   146  THR146      0.0378
     24  N        -31.0550  -22.1110   14.1580 N.3   149  PHE149     -0.1241
     25  CA       -31.6040  -20.7680   14.3060 C.3   149  PHE149      0.1605
     26  C        -30.6100  -19.8670   15.0060 C.2   149  PHE149      0.2264
     27  O        -30.3890  -18.7700   14.5060 O.2   149  PHE149     -0.2867
     28  CB       -32.9380  -20.7840   15.0620 C.3   149  PHE149      0.0534
     29  CG       -34.1430  -20.5140   14.2000 C.ar  149  PHE149     -0.0203
     30  CD1      -34.8470  -21.5590   13.6140 C.ar  149  PHE149     -0.0042
     31  CD2      -34.5880  -19.2150   13.9850 C.ar  149  PHE149     -0.0042
     32  CE1      -35.9630  -21.3080   12.8200 C.ar  149  PHE149     -0.0003
     33  CE2      -35.7080  -18.9650   13.1920 C.ar  149  PHE149     -0.0003
     34  CZ       -36.3880  -20.0130   12.6170 C.ar  149  PHE149     -0.0000
     35  N        -30.5390   -6.6320   17.2050 N.3   170  THR170     -0.1203
     36  CA       -30.3780   -7.4970   18.3890 C.3   170  THR170      0.1994
     37  C        -30.3400   -8.9580   17.9090 C.2   170  THR170      0.2618
     38  O        -30.6610   -9.2220   16.7480 O.2   170  THR170     -0.2717
     39  CB       -31.6060   -7.3170   19.3310 C.3   170  THR170      0.1784
     40  OG1      -32.0210   -5.9490   19.3680 O.3   170  THR170     -0.2211
     41  CG2      -31.3800   -7.8600   20.7430 C.3   170  THR170      0.0376
     42  N        -29.9830   -9.9080   18.8030 N.am  171  LEU171     -0.1965
     43  CA       -30.0090  -11.3400   18.4950 C.3   171  LEU171      0.1728
     44  C        -31.4730  -11.7600   18.3490 C.2   171  LEU171      0.2617
     45  O        -31.8160  -12.3930   17.3560 O.2   171  LEU171     -0.2715
     46  CB       -29.3010  -12.1800   19.5820 C.3   171  LEU171      0.0311
     47  CG       -29.4850  -13.7090   19.5040 C.3   171  LEU171      0.0022
     48  CD1      -28.3970  -14.3630   18.6790 C.3   171  LEU171      0.0001
     49  CD2      -29.5540  -14.3180   20.8810 C.3   171  LEU171      0.0001
     50  N        -32.3100  -11.3700   19.3150 N.am  172  GLY172     -0.1940
     51  CA       -33.7390  -11.6620   19.3050 C.3   172  GLY172      0.2014
     52  C        -34.4720  -11.0020   18.1520 C.2   172  GLY172      0.2638
     53  O        -35.4280  -11.5730   17.6160 O.2   172  GLY172     -0.2714
     54  N        -34.0180   -9.7820   17.7690 N.am  173  GLU173     -0.1977
     55  CA       -34.5250   -8.9850   16.6440 C.3   173  GLU173      0.1602
     56  C        -34.2590   -9.7660   15.3440 C.2   173  GLU173      0.2287
     57  O        -35.1320   -9.8140   14.4720 O.2   173  GLU173     -0.2864
     58  CB       -33.8350   -7.6060   16.6270 C.3   173  GLU173      0.0415
     59  CG       -34.2050   -6.6860   15.4800 C.3   173  GLU173      0.1163
     60  CD       -35.4290   -5.8280   15.7120 C.2   173  GLU173      0.3649
     61  OE1      -35.2790   -4.7310   16.2950 O.co2 173  GLU173     -0.2457
     62  OE2      -36.5370   -6.2480   15.3070 O.co2 173  GLU173     -0.2457
     63  N        -33.5840  -13.1640   15.3780 N.3   175  PHE175     -0.1227
     64  CA       -34.3340  -14.4070   15.5940 C.3   175  PHE175      0.1736
     65  C        -35.7520  -14.2980   15.0280 C.2   175  PHE175      0.2595
     66  O        -36.2160  -15.2240   14.3580 O.2   175  PHE175     -0.2718
     67  CB       -34.3890  -14.7530   17.0920 C.3   175  PHE175      0.0547
     68  CG       -33.7780  -16.0840   17.4570 C.ar  175  PHE175     -0.0202
     69  CD1      -32.4700  -16.1630   17.9160 C.ar  175  PHE175     -0.0042
     70  CD2      -34.5200  -17.2570   17.3700 C.ar  175  PHE175     -0.0042
     71  CE1      -31.9030  -17.3960   18.2520 C.ar  175  PHE175     -0.0003
     72  CE2      -33.9560  -18.4900   17.7140 C.ar  175  PHE175     -0.0003
     73  CZ       -32.6500  -18.5520   18.1500 C.ar  175  PHE175     -0.0000
     74  N        -36.4070  -13.1370   15.2520 N.am  176  TYR176     -0.1976
     75  CA       -37.7540  -12.8290   14.7730 C.3   176  TYR176      0.1639
     76  C        -37.8460  -12.8430   13.2450 C.2   176  TYR176      0.2290
     77  O        -38.7360  -13.5040   12.7020 O.2   176  TYR176     -0.2864
     78  CB       -38.2560  -11.4870   15.3420 C.3   176  TYR176      0.0560
     79  CG       -39.6800  -11.1710   14.9410 C.ar  176  TYR176     -0.0198
     80  CD1      -40.7570  -11.6940   15.6500 C.ar  176  TYR176     -0.0009
     81  CD2      -39.9530  -10.3720   13.8360 C.ar  176  TYR176     -0.0009
     82  CE1      -42.0710  -11.4230   15.2740 C.ar  176  TYR176      0.0417
     83  CE2      -41.2620  -10.1020   13.4440 C.ar  176  TYR176      0.0417
     84  CZ       -42.3190  -10.6280   14.1680 C.ar  176  TYR176      0.1957
     85  OH       -43.6120  -10.3680   13.7890 O.3   176  TYR176     -0.2866
     86  N        -37.5390  -16.2230   11.7450 N.3   179  PHE179     -0.1241
     87  CA       -38.7830  -16.9720   11.8620 C.3   179  PHE179      0.1605
     88  C        -39.7520  -16.4980   10.7770 C.2   179  PHE179      0.2264
     89  O        -40.4180  -17.3240   10.1590 O.2   179  PHE179     -0.2867
     90  CB       -39.4110  -16.8430   13.2550 C.3   179  PHE179      0.0534
     91  CG       -40.6740  -17.6610   13.4080 C.ar  179  PHE179     -0.0203
     92  CD1      -40.6130  -19.0310   13.6370 C.ar  179  PHE179     -0.0042
     93  CD2      -41.9280  -17.0660   13.2960 C.ar  179  PHE179     -0.0042
     94  CE1      -41.7830  -19.7910   13.7520 C.ar  179  PHE179     -0.0003
     95  CE2      -43.0980  -17.8260   13.4240 C.ar  179  PHE179     -0.0003
     96  CZ       -43.0170  -19.1810   13.6580 C.ar  179  PHE179     -0.0000
     97  N        -38.6530  -17.9950    7.6530 N.3   182  MET182     -0.1245
     98  CA       -38.9490  -19.4310    7.7310 C.3   182  MET182      0.1570
     99  C        -40.3960  -19.7070    7.3370 C.2   182  MET182      0.2261
    100  O        -40.6230  -20.5620    6.4860 O.2   182  MET182     -0.2867
    101  CB       -38.5870  -20.0250    9.1070 C.3   182  MET182      0.0387
    102  CG       -39.3280  -21.3080    9.4400 C.3   182  MET182      0.0595
    103  SD       -38.7010  -22.1340   10.9070 S.3   182  MET182     -0.1393
    104  CE       -40.1470  -22.9630   11.4530 C.3   182  MET182      0.0692
@<TRIPOS>BOND
     1   100    99    2
     2    99    98    1
     3    97    98    1
     4    98   101    1
     5   101   102    1
     6   102   103    1
     7    89    88    2
     8    88    87    1
     9   103   104    1
    10    16    15    1
    11    15    14    1
    12    86    87    1
    13    87    90    1
    14    34    32   ar
    15    34    33   ar
    16    77    76    2
    17    32    30   ar
    18    33    31   ar
    19    76    75    1
    20    90    91    1
    21    93    91   ar
    22    93    95   ar
    23    14    13    1
    24    91    92   ar
    25    95    96   ar
    26    83    81   ar
    27    83    84   ar
    28    30    29   ar
    29    92    94   ar
    30    96    94   ar
    31    85    84    1
    32    81    79   ar
    33    31    29   ar
    34    13    10    1
    35    24    25    1
    36    84    82   ar
    37    29    28    1
    38    25    26    1
    39    25    28    1
    40    66    65    2
    41    10     9    1
    42    10    11    1
    43    57    56    2
    44    27    26    2
    45    12    11    2
    46    75    74    1
    47    75    78    1
    48    79    78    1
    49    79    80   ar
    50    65    74   am
    51    65    64    1
    52    11    17   am
    53    82    80   ar
    54    62    60   ar
    55    56    55    1
    56    63    64    1
    57    59    60    1
    58    59    58    1
    59    64    67    1
    60    60    61   ar
    61    17    18    1
    62    58    55    1
    63    55    54    1
    64    38    37    2
    65     1     2    1
    66    67    68    1
    67    35    36    1
    68    20    19    2
    69     2     3    1
    70     2     5    1
    71    45    44    2
    72    19    18    1
    73    70    68   ar
    74    70    72   ar
    75     4     3    2
    76    68    69   ar
    77    18    21    1
    78    53    52    2
    79    72    73   ar
    80    54    52   am
    81     6     5    1
    82     6     8    1
    83    37    36    1
    84    37    42   am
    85    69    71   ar
    86    73    71   ar
    87    52    51    1
    88    44    43    1
    89    44    50   am
    90    36    39    1
    91     5     7    1
    92    43    42    1
    93    43    46    1
    94    48    47    1
    95    21    22    1
    96    21    23    1
    97    51    50    1
    98    39    40    1
    99    39    41    1
   100    47    46    1
   101    47    49    1
