@<TRIPOS>MOLECULE
tmp/5ek0A05.pdb
 185 177 0 0 0
SMALL
GASTEIGER

@<TRIPOS>ATOM
      1  N        -78.9300   -4.5660  -20.8760 N.3    43  GLN43      -0.1245
      2  CA       -80.1790   -5.2360  -20.4960 C.3    43  GLN43       0.1566
      3  C        -80.6240   -6.1990  -21.6030 C.2    43  GLN43       0.2260
      4  O        -81.4080   -7.1040  -21.3270 O.2    43  GLN43      -0.2867
      5  CB       -81.2960   -4.2270  -20.1680 C.3    43  GLN43       0.0367
      6  CG       -82.3010   -4.7500  -19.1350 C.3    43  GLN43       0.0905
      7  CD       -83.7380   -4.7540  -19.6180 C.2    43  GLN43       0.2608
      8  OE1      -84.3640   -3.7000  -19.8020 O.2    43  GLN43      -0.2717
      9  NE2      -84.3190   -5.9420  -19.7600 N.am   43  GLN43      -0.0878
     10  N        -81.0320   -9.7990  -20.6510 N.3    47  GLU47      -0.1245
     11  CA       -82.3390  -10.4330  -20.9030 C.3    47  GLU47       0.1567
     12  C        -82.1580  -11.7290  -21.7080 C.2    47  GLU47       0.2260
     13  O        -82.8060  -12.7330  -21.3920 O.2    47  GLU47      -0.2867
     14  CB       -83.3040   -9.4770  -21.6280 C.3    47  GLU47       0.0388
     15  CG       -84.7420   -9.9770  -21.6850 C.3    47  GLU47       0.1160
     16  CD       -85.7820   -9.0420  -22.2770 C.2    47  GLU47       0.3649
     17  OE1      -86.9600   -9.1350  -21.8580 O.co2  47  GLU47      -0.2457
     18  OE2      -85.4310   -8.2350  -23.1700 O.co2  47  GLU47      -0.2457
     19  N        -80.7540  -14.2500  -19.4590 N.3    50  TYR50      -0.1227
     20  CA       -81.8020  -14.5630  -18.4870 C.3    50  TYR50       0.1736
     21  C        -82.8250  -15.5280  -19.0770 C.2    50  TYR50       0.2595
     22  O        -83.2170  -16.4760  -18.3910 O.2    50  TYR50      -0.2718
     23  CB       -82.5050  -13.2890  -17.9870 C.3    50  TYR50       0.0548
     24  CG       -81.8740  -12.5730  -16.8060 C.ar   50  TYR50      -0.0200
     25  CD1      -80.5960  -12.9040  -16.3600 C.ar   50  TYR50      -0.0009
     26  CD2      -82.5350  -11.5270  -16.1680 C.ar   50  TYR50      -0.0009
     27  CE1      -80.0040  -12.2280  -15.2940 C.ar   50  TYR50       0.0417
     28  CE2      -81.9560  -10.8500  -15.0960 C.ar   50  TYR50       0.0417
     29  CZ       -80.6900  -11.2020  -14.6640 C.ar   50  TYR50       0.1957
     30  OH       -80.1190  -10.5300  -13.6110 O.3    50  TYR50      -0.2866
     31  N        -83.2250  -15.3190  -20.3540 N.am   51  TRP51      -0.1976
     32  CA       -84.2040  -16.1860  -21.0120 C.3    51  TRP51       0.1640
     33  C        -83.6760  -17.5960  -21.2820 C.2    51  TRP51       0.2290
     34  O        -84.4070  -18.5580  -21.0220 O.2    51  TRP51      -0.2864
     35  CB       -84.8080  -15.5470  -22.2720 C.3    51  TRP51       0.0576
     36  CG       -85.9950  -14.6760  -21.9630 C.ar   51  TRP51       0.0006
     37  CD1      -86.1390  -13.3530  -22.2620 C.ar   51  TRP51       0.0946
     38  CD2      -87.1740  -15.0510  -21.2270 C.ar   51  TRP51       0.0152
     39  NE1      -87.3380  -12.8820  -21.7710 N.ar   51  TRP51      -0.2442
     40  CE2      -87.9950  -13.9040  -21.1360 C.ar   51  TRP51       0.0810
     41  CE3      -87.6230  -16.2510  -20.6440 C.ar   51  TRP51       0.0012
     42  CZ2      -89.2330  -13.9200  -20.4810 C.ar   51  TRP51       0.0191
     43  CZ3      -88.8540  -16.2670  -20.0070 C.ar   51  TRP51       0.0001
     44  CH2      -89.6500  -15.1150  -19.9410 C.ar   51  TRP51       0.0015
     45  N        -81.5710  -19.1420  -19.4890 N.3    53  ASN53      -0.1225
     46  CA       -81.6150  -19.7440  -18.1560 C.3    53  ASN53       0.1785
     47  C        -83.0200  -20.2450  -17.7650 C.2    53  ASN53       0.2597
     48  O        -83.1110  -21.3550  -17.2390 O.2    53  ASN53      -0.2718
     49  CB       -81.0170  -18.8110  -17.0870 C.3    53  ASN53       0.1169
     50  CG       -79.5030  -18.9320  -16.9420 C.2    53  ASN53       0.2627
     51  OD1      -78.9740  -19.8840  -16.3410 O.2    53  ASN53      -0.2716
     52  ND2      -78.7650  -17.9830  -17.5100 N.am   53  ASN53      -0.0877
     53  N        -84.1030  -19.4610  -18.0540 N.am   54  VAL54      -0.1980
     54  CA       -85.5110  -19.8340  -17.7620 C.3    54  VAL54       0.1595
     55  C        -85.8750  -21.1510  -18.4780 C.2    54  VAL54       0.2287
     56  O        -86.4980  -22.0390  -17.8770 O.2    54  VAL54      -0.2864
     57  CB       -86.5310  -18.7020  -18.0770 C.3    54  VAL54       0.0276
     58  CG1      -87.9500  -19.1080  -17.6770 C.3    54  VAL54       0.0022
     59  CG2      -86.1490  -17.3970  -17.3850 C.3    54  VAL54       0.0022
     60  N        -84.2940  -23.9050  -16.6120 N.3    57  ILE57      -0.1245
     61  CA       -85.0070  -24.1390  -15.3520 C.3    57  ILE57       0.1561
     62  C        -86.1690  -25.1250  -15.5610 C.2    57  ILE57       0.2260
     63  O        -86.2540  -26.1080  -14.8230 O.2    57  ILE57      -0.2867
     64  CB       -85.4320  -22.8160  -14.6350 C.3    57  ILE57       0.0252
     65  CG1      -84.1890  -21.9860  -14.2460 C.3    57  ILE57       0.0019
     66  CG2      -86.2780  -23.1040  -13.3790 C.3    57  ILE57       0.0019
     67  CD1      -84.3590  -20.4500  -14.1980 C.3    57  ILE57       0.0001
     68  N        -84.2040  -23.3110   -7.9400 N.3    91  SER91      -0.1217
     69  CA       -84.0520  -22.6670   -9.2460 C.3    91  SER91       0.1889
     70  C        -85.3460  -22.0290   -9.7640 C.2    91  SER91       0.2288
     71  O        -85.2900  -21.2060  -10.6790 O.2    91  SER91      -0.2866
     72  CB       -83.4650  -23.6420  -10.2600 C.3    91  SER91       0.2089
     73  OG       -82.1810  -24.0630   -9.8300 O.3    91  SER91      -0.2183
     74  N        -86.0280  -18.9450   -6.6380 N.3    94  GLY94      -0.1210
     75  CA       -84.9910  -17.9720   -6.9630 C.3    94  GLY94       0.1956
     76  C        -85.3150  -17.1570   -8.2000 C.2    94  GLY94       0.2612
     77  O        -85.2150  -15.9250   -8.1720 O.2    94  GLY94      -0.2717
     78  N        -85.7470  -17.8550   -9.2840 N.am   95  MET95      -0.1965
     79  CA       -86.1480  -17.2890  -10.5780 C.3    95  MET95       0.1736
     80  C        -87.2180  -16.2050  -10.4020 C.2    95  MET95       0.2616
     81  O        -87.1330  -15.1390  -11.0260 O.2    95  MET95      -0.2715
     82  CB       -86.6350  -18.4170  -11.5110 C.3    95  MET95       0.0427
     83  CG       -87.4630  -17.9550  -12.7000 C.3    95  MET95       0.0599
     84  SD       -87.8820  -19.2500  -13.9020 S.3    95  MET95      -0.1393
     85  CE       -88.8750  -20.3690  -12.8640 C.3    95  MET95       0.0692
     86  N        -88.2020  -16.4760   -9.5300 N.am   96  PHE96      -0.1974
     87  CA       -89.2920  -15.5480   -9.2650 C.3    96  PHE96       0.1639
     88  C        -88.9110  -14.4610   -8.2740 C.2    96  PHE96       0.2290
     89  O        -89.1330  -13.2770   -8.5600 O.2    96  PHE96      -0.2864
     90  CB       -90.5630  -16.3040   -8.8420 C.3    96  PHE96       0.0560
     91  CG       -91.1020  -17.2240   -9.9200 C.ar   96  PHE96      -0.0200
     92  CD1      -91.2630  -16.7730  -11.2330 C.ar   96  PHE96      -0.0042
     93  CD2      -91.4660  -18.5340   -9.6210 C.ar   96  PHE96      -0.0042
     94  CE1      -91.7510  -17.6260  -12.2300 C.ar   96  PHE96      -0.0003
     95  CE2      -91.9650  -19.3830  -10.6180 C.ar   96  PHE96      -0.0003
     96  CZ       -92.1070  -18.9210  -11.9140 C.ar   96  PHE96      -0.0000
     97  N        -85.9330  -13.2510   -7.4190 N.3    98  ALA98      -0.1231
     98  CA       -84.9770  -12.3050   -8.0010 C.3    98  ALA98       0.1694
     99  C        -85.7030  -11.3450   -8.9510 C.2    98  ALA98       0.2592
    100  O        -85.4650  -10.1360   -8.8790 O.2    98  ALA98      -0.2718
    101  CB       -83.8700  -13.0450   -8.7380 C.3    98  ALA98       0.0304
    102  N        -86.6260  -11.8840   -9.7990 N.am   99  ASP99      -0.1974
    103  CA       -87.4430  -11.1210  -10.7550 C.3    99  ASP99       0.1709
    104  C        -88.3400  -10.1210  -10.0320 C.2    99  ASP99       0.2293
    105  O        -88.5560   -9.0220  -10.5490 O.2    99  ASP99      -0.2864
    106  CB       -88.2900  -12.0540  -11.6390 C.3    99  ASP99       0.1436
    107  CG       -88.9890  -11.3550  -12.8030 C.2    99  ASP99       0.3671
    108  OD1      -88.4810  -11.4460  -13.9380 O.co2  99  ASP99      -0.2456
    109  OD2      -90.0690  -10.7450  -12.5780 O.co2  99  ASP99      -0.2456
    110  N        -86.3630   -7.2100   -9.0120 N.3   102  GLU102     -0.1231
    111  CA       -86.0290   -6.4950  -10.2430 C.3   102  GLU102      0.1699
    112  C        -87.2180   -5.6230  -10.6970 C.2   102  GLU102      0.2592
    113  O        -87.0020   -4.5200  -11.2020 O.2   102  GLU102     -0.2718
    114  CB       -85.5950   -7.4890  -11.3410 C.3   102  GLU102      0.0402
    115  CG       -84.9800   -6.8620  -12.5880 C.3   102  GLU102      0.1161
    116  CD       -83.7110   -6.0420  -12.4250 C.2   102  GLU102      0.3649
    117  OE1      -83.6820   -4.8950  -12.9270 O.co2 102  GLU102     -0.2457
    118  OE2      -82.7360   -6.5540  -11.8270 O.co2 102  GLU102     -0.2457
    119  N        -88.4650   -6.1140  -10.5040 N.am  103  THR103     -0.1953
    120  CA       -89.7090   -5.4100  -10.8490 C.3   103  THR103      0.1897
    121  C        -89.8760   -4.1950   -9.9240 C.2   103  THR103      0.2313
    122  O        -89.9170   -3.0600  -10.3990 O.2   103  THR103     -0.2863
    123  CB       -90.9000   -6.3940  -10.8240 C.3   103  THR103      0.1794
    124  OG1      -90.6790   -7.4150  -11.8000 O.3   103  THR103     -0.2208
    125  CG2      -92.2480   -5.7140  -11.0840 C.3   103  THR103      0.0378
    126  N        -87.9190   -2.2710   -7.7490 N.3   105  PHE105     -0.1241
    127  CA       -86.4900   -1.9090   -7.6670 C.3   105  PHE105      0.1605
    128  C        -85.9060   -1.6680   -6.2340 C.2   105  PHE105      0.2264
    129  O        -84.7900   -1.1440   -6.1000 O.2   105  PHE105     -0.2867
    130  CB       -86.2140   -0.6860   -8.5750 C.3   105  PHE105      0.0534
    131  CG       -86.4850   -0.9230  -10.0480 C.ar  105  PHE105     -0.0203
    132  CD1      -85.5000   -1.4500  -10.8790 C.ar  105  PHE105     -0.0042
    133  CD2      -87.7220   -0.6130  -10.6040 C.ar  105  PHE105     -0.0042
    134  CE1      -85.7530   -1.6740  -12.2380 C.ar  105  PHE105     -0.0003
    135  CE2      -87.9760   -0.8430  -11.9620 C.ar  105  PHE105     -0.0003
    136  CZ       -86.9890   -1.3710  -12.7690 C.ar  105  PHE105     -0.0000
    137  N        -80.4910   -8.2980   -4.3780 N.3   111  PHE111     -0.1241
    138  CA       -80.6870   -8.9300   -5.6810 C.3   111  PHE111      0.1605
    139  C        -79.5510   -9.8850   -6.0310 C.2   111  PHE111      0.2264
    140  O        -79.8290  -11.0580   -6.2820 O.2   111  PHE111     -0.2867
    141  CB       -80.8990   -7.8820   -6.7900 C.3   111  PHE111      0.0534
    142  CG       -81.0800   -8.4540   -8.1820 C.ar  111  PHE111     -0.0203
    143  CD1      -82.3220   -8.9120   -8.6090 C.ar  111  PHE111     -0.0042
    144  CD2      -80.0110   -8.5200   -9.0700 C.ar  111  PHE111     -0.0042
    145  CE1      -82.4850   -9.4390   -9.8940 C.ar  111  PHE111     -0.0003
    146  CE2      -80.1770   -9.0490  -10.3530 C.ar  111  PHE111     -0.0003
    147  CZ       -81.4120   -9.5030  -10.7560 C.ar  111  PHE111     -0.0000
    148  N        -80.0270  -13.9790   -6.3540 N.3   115  ARG115     -0.1245
    149  CA       -79.6560  -14.4340   -7.7020 C.3   115  ARG115      0.1563
    150  C        -78.5810  -15.5520   -7.6930 C.2   115  ARG115      0.2260
    151  O        -78.4050  -16.2250   -8.7060 O.2   115  ARG115     -0.2867
    152  CB       -79.2110  -13.2320   -8.5610 C.3   115  ARG115      0.0307
    153  CG       -79.3280  -13.4230  -10.0660 C.3   115  ARG115      0.0489
    154  CD       -78.3970  -12.4720  -10.7850 C.3   115  ARG115      0.2205
    155  NE       -78.0810  -12.9390  -12.1340 N.pl3 115  ARG115     -0.0865
    156  CZ       -77.1320  -12.4190  -12.9050 C.cat 115  ARG115      0.5346
    157  NH1      -76.3730  -11.4240  -12.4580 N.pl3 115  ARG115      0.1354
    158  NH2      -76.9110  -12.9100  -14.1170 N.pl3 115  ARG115      0.1354
    159  N        -78.8700  -18.3170   -6.3660 N.3   117  ALA117     -0.1231
    160  CA       -79.6630  -19.5530   -6.4250 C.3   117  ALA117      0.1694
    161  C        -79.3600  -20.3610   -7.7040 C.2   117  ALA117      0.2591
    162  O        -79.3380  -21.5980   -7.6700 O.2   117  ALA117     -0.2718
    163  CB       -81.1460  -19.2140   -6.3640 C.3   117  ALA117      0.0304
    164  N        -79.0930  -19.6410   -8.8170 N.am  118  ARG118     -0.1980
    165  CA       -78.7610  -20.1730  -10.1440 C.3   118  ARG118      0.1597
    166  C        -77.5960  -21.1600  -10.1230 C.2   118  ARG118      0.2287
    167  O        -77.4520  -21.9750  -11.0410 O.2   118  ARG118     -0.2864
    168  CB       -78.4660  -19.0290  -11.1280 C.3   118  ARG118      0.0334
    169  CG       -77.2560  -18.1800  -10.7790 C.3   118  ARG118      0.0492
    170  CD       -77.0960  -17.0600  -11.7720 C.3   118  ARG118      0.2205
    171  NE       -75.8090  -17.1630  -12.4520 N.pl3 118  ARG118     -0.0865
    172  CZ       -74.9940  -16.1390  -12.6790 C.cat 118  ARG118      0.5346
    173  NH1      -75.3340  -14.9150  -12.3010 N.pl3 118  ARG118      0.1354
    174  NH2      -73.8330  -16.3310  -13.2870 N.pl3 118  ARG118      0.1354
    175  N        -78.2790  -25.0910  -10.0170 N.3   121  ARG121     -0.1245
    176  CA       -78.4200  -25.7390  -11.3280 C.3   121  ARG121      0.1563
    177  C        -77.1340  -26.4060  -11.8020 C.2   121  ARG121      0.2260
    178  O        -77.1920  -27.5240  -12.3230 O.2   121  ARG121     -0.2867
    179  CB       -78.9110  -24.7490  -12.3990 C.3   121  ARG121      0.0307
    180  CG       -80.4040  -24.4940  -12.3410 C.3   121  ARG121      0.0489
    181  CD       -81.0010  -23.9090  -13.6150 C.3   121  ARG121      0.2205
    182  NE       -80.4130  -22.6230  -14.0200 N.pl3 121  ARG121     -0.0865
    183  CZ       -80.6720  -21.4530  -13.4390 C.cat 121  ARG121      0.5346
    184  NH1      -81.4790  -21.3910  -12.3860 N.pl3 121  ARG121      0.1354
    185  NH2      -80.1030  -20.3440  -13.8860 N.pl3 121  ARG121      0.1354
@<TRIPOS>BOND
     1    18    16   ar
     2    16    17   ar
     3    16    15    1
     4    35    36    1
     5    35    32    1
     6    37    36   ar
     7    37    39   ar
     8    36    38   ar
     9    39    40   ar
    10    12    13    2
    11    12    11    1
    12    15    14    1
    13    14    11    1
    14     3     4    2
    15     3     2    1
    16    33    34    2
    17    33    32    1
    18    38    40   ar
    19    38    41   ar
    20    40    42   ar
    21    32    31    1
    22    11    10    1
    23     1     2    1
    24    41    43   ar
    25     2     5    1
    26    42    44   ar
    27    31    21   am
    28     5     6    1
    29    43    44   ar
    30     8     7    2
    31     9     7   am
    32     7     6    1
    33    45    46    1
    34    19    20    1
    35    21    20    1
    36    21    22    2
    37    20    23    1
    38    55    56    2
    39    55    54    1
    40    46    47    1
    41    46    49    1
    42    57    54    1
    43    57    58    1
    44    57    59    1
    45    53    47   am
    46    53    54    1
    47    23    24    1
    48    47    48    2
    49    52    50   am
    50    49    50    1
    51    50    51    2
    52    24    25   ar
    53    24    26   ar
    54    60    61    1
    55    25    27   ar
    56    26    28   ar
    57    62    61    1
    58    62    63    2
    59    61    64    1
    60    27    29   ar
    61    28    29   ar
    62    29    30    1
    63    64    65    1
    64    64    66    1
    65    65    67    1
    66   158   156    1
    67   182   181    1
    68   182   183    2
    69   108   107   ar
    70    84    85    1
    71    84    83    1
    72   185   183    1
    73   181   180    1
    74   183   184    1
    75   174   172    1
    76   117   116   ar
    77   156   157    1
    78   156   155    2
    79   107   109   ar
    80   107   106    1
    81   136   134   ar
    82   136   135   ar
    83    83    82    1
    84   172   171    2
    85   172   173    1
    86   115   116    1
    87   115   114    1
    88   171   170    1
    89   116   118   ar
    90   179   180    1
    91   179   176    1
    92   178   177    2
    93   134   132   ar
    94    94    96   ar
    95    94    92   ar
    96   155   154    1
    97   135   133   ar
    98    96    95   ar
    99   177   176    1
   100   124   123    1
   101   170   169    1
   102   106   103    1
   103    82    79    1
   104   114   111    1
   105   176   175    1
   106    92    91   ar
   107   113   112    2
   108   168   169    1
   109   168   165    1
   110   125   123    1
   111   167   166    2
   112    81    80    2
   113   132   131   ar
   114   120   123    1
   115   120   119    1
   116   120   121    1
   117   154   153    1
   118   147   146   ar
   119   147   145   ar
   120   103   104    1
   121   103   102    1
   122   112   119   am
   123   112   111    1
   124    71    70    2
   125    95    93   ar
   126   133   131   ar
   127    79    80    1
   128    79    78    1
   129   105   104    2
   130    80    86   am
   131   122   121    2
   132   146   144   ar
   133    72    73    1
   134    72    69    1
   135   111   110    1
   136   165   166    1
   137   165   164    1
   138   153   152    1
   139   131   130    1
   140    91    93   ar
   141    91    90    1
   142   145   143   ar
   143   102    99   am
   144    70    69    1
   145    86    87    1
   146    78    76   am
   147    87    90    1
   148    87    88    1
   149    69    68    1
   150   144   142   ar
   151    99   100    2
   152    99    98    1
   153   164   161   am
   154   101    98    1
   155   151   150    2
   156   143   142   ar
   157   130   127    1
   158   152   149    1
   159    89    88    2
   160    76    77    2
   161    76    75    1
   162   142   141    1
   163    98    97    1
   164   126   127    1
   165   161   162    2
   166   161   160    1
   167   149   150    1
   168   149   148    1
   169   127   128    1
   170    75    74    1
   171   141   138    1
   172   160   159    1
   173   160   163    1
   174   140   139    2
   175   128   129    2
   176   139   138    1
   177   138   137    1
