@<TRIPOS>MOLECULE
tmp/5ek0A01.pdb
 132 128 0 0 0
SMALL
GASTEIGER

@<TRIPOS>ATOM
      1  N        -60.7440  -31.0210   14.2430 N.3   150  ILE150     -0.1245
      2  CA       -61.4090  -29.7740   13.8250 C.3   150  ILE150      0.1561
      3  C        -62.0740  -29.1300   15.0370 C.2   150  ILE150      0.2260
      4  O        -61.8630  -27.9420   15.2730 O.2   150  ILE150     -0.2867
      5  CB       -62.4270  -29.9880   12.6620 C.3   150  ILE150      0.0252
      6  CG1      -61.7750  -30.6660   11.4330 C.3   150  ILE150      0.0019
      7  CG2      -63.1060  -28.6640   12.2710 C.3   150  ILE150      0.0019
      8  CD1      -62.7610  -31.4040   10.4920 C.3   150  ILE150      0.0001
      9  N        -59.4210  -27.6730   17.1390 N.3   153  MET153     -0.1230
     10  CA       -58.8930  -26.5220   16.4080 C.3   153  MET153      0.1702
     11  C        -59.8120  -25.3080   16.5670 C.2   153  MET153      0.2593
     12  O        -59.3230  -24.2010   16.7820 O.2   153  MET153     -0.2718
     13  CB       -58.6900  -26.8860   14.9270 C.3   153  MET153      0.0401
     14  CG       -57.9240  -25.8550   14.1240 C.3   153  MET153      0.0596
     15  SD       -56.1730  -25.7520   14.5330 S.3   153  MET153     -0.1393
     16  CE       -56.1520  -24.2440   15.4520 C.3   153  MET153      0.0692
     17  N        -61.1380  -25.5320   16.5080 N.am  154  THR154     -0.1953
     18  CA       -62.1750  -24.5150   16.6920 C.3   154  THR154      0.1897
     19  C        -62.0960  -23.9630   18.1130 C.2   154  THR154      0.2313
     20  O        -62.1480  -22.7430   18.2940 O.2   154  THR154     -0.2863
     21  CB       -63.5580  -25.1270   16.4560 C.3   154  THR154      0.1794
     22  OG1      -63.5520  -25.8110   15.2120 O.3   154  THR154     -0.2208
     23  CG2      -64.6720  -24.0920   16.4690 C.3   154  THR154      0.0378
     24  N        -59.2760  -21.7820   18.6810 N.3   157  PHE157     -0.1227
     25  CA       -59.5770  -20.4980   18.0680 C.3   157  PHE157      0.1736
     26  C        -60.4300  -19.6170   18.9710 C.2   157  PHE157      0.2595
     27  O        -60.2120  -18.4090   18.9860 O.2   157  PHE157     -0.2718
     28  CB       -60.2010  -20.6680   16.6790 C.3   157  PHE157      0.0547
     29  CG       -59.2260  -20.3020   15.5970 C.ar  157  PHE157     -0.0202
     30  CD1      -58.2630  -21.2090   15.1710 C.ar  157  PHE157     -0.0042
     31  CD2      -59.2300  -19.0320   15.0400 C.ar  157  PHE157     -0.0042
     32  CE1      -57.3370  -20.8590   14.1930 C.ar  157  PHE157     -0.0003
     33  CE2      -58.3080  -18.6840   14.0560 C.ar  157  PHE157     -0.0003
     34  CZ       -57.3640  -19.5970   13.6430 C.ar  157  PHE157     -0.0000
     35  N        -61.3630  -20.2170   19.7500 N.am  158  TYR158     -0.1976
     36  CA       -62.2290  -19.4900   20.6820 C.3   158  TYR158      0.1639
     37  C        -61.4540  -18.8980   21.8620 C.2   158  TYR158      0.2290
     38  O        -61.6930  -17.7450   22.2200 O.2   158  TYR158     -0.2864
     39  CB       -63.3730  -20.3780   21.1750 C.3   158  TYR158      0.0560
     40  CG       -64.6060  -20.3230   20.3020 C.ar  158  TYR158     -0.0198
     41  CD1      -65.6120  -19.3910   20.5410 C.ar  158  TYR158     -0.0009
     42  CD2      -64.7940  -21.2360   19.2690 C.ar  158  TYR158     -0.0009
     43  CE1      -66.7670  -19.3550   19.7570 C.ar  158  TYR158      0.0417
     44  CE2      -65.9400  -21.2040   18.4720 C.ar  158  TYR158      0.0417
     45  CZ       -66.9280  -20.2660   18.7230 C.ar  158  TYR158      0.1957
     46  OH       -68.0620  -20.2440   17.9410 O.3   158  TYR158     -0.2866
     47  N        -63.7320   -6.8270   18.0070 N.3   178  THR178     -0.1203
     48  CA       -64.7540   -7.7110   18.5490 C.3   178  THR178      0.1994
     49  C        -64.1920   -9.1160   18.5360 C.2   178  THR178      0.2618
     50  O        -63.1140   -9.3400   17.9820 O.2   178  THR178     -0.2717
     51  CB       -66.0770   -7.6150   17.7600 C.3   178  THR178      0.1784
     52  OG1      -65.9000   -8.0830   16.4190 O.3   178  THR178     -0.2211
     53  CG2      -66.6840   -6.2170   17.7850 C.3   178  THR178      0.0376
     54  N        -64.9160  -10.0600   19.1530 N.am  179  LEU179     -0.1965
     55  CA       -64.5360  -11.4650   19.1990 C.3   179  LEU179      0.1728
     56  C        -64.4430  -12.0140   17.7710 C.2   179  LEU179      0.2617
     57  O        -63.4620  -12.6830   17.4400 O.2   179  LEU179     -0.2715
     58  CB       -65.5590  -12.2580   20.0440 C.3   179  LEU179      0.0311
     59  CG       -65.2530  -13.7260   20.4030 C.3   179  LEU179      0.0022
     60  CD1      -65.7410  -14.7030   19.3380 C.3   179  LEU179      0.0001
     61  CD2      -63.8160  -13.9350   20.7380 C.3   179  LEU179      0.0001
     62  N        -65.4450  -11.6970   16.9500 N.am  180  GLY180     -0.1940
     63  CA       -65.5180  -12.1160   15.5550 C.3   180  GLY180      0.2014
     64  C        -64.3990  -11.5650   14.6950 C.2   180  GLY180      0.2638
     65  O        -63.9530  -12.2290   13.7540 O.2   180  GLY180     -0.2714
     66  N        -63.9420  -10.3420   15.0210 N.am  181  GLU181     -0.1977
     67  CA       -62.8490   -9.6610   14.3360 C.3   181  GLU181      0.1602
     68  C        -61.5500  -10.4110   14.5810 C.2   181  GLU181      0.2287
     69  O        -60.7900  -10.6260   13.6350 O.2   181  GLU181     -0.2864
     70  CB       -62.7400   -8.2080   14.8150 C.3   181  GLU181      0.0415
     71  CG       -63.5820   -7.2440   14.0030 C.3   181  GLU181      0.1163
     72  CD       -62.9350   -6.6910   12.7470 C.2   181  GLU181      0.3649
     73  OE1      -62.1340   -7.4080   12.1020 O.co2 181  GLU181     -0.2457
     74  OE2      -63.2490   -5.5300   12.3980 O.co2 181  GLU181     -0.2457
     75  N        -61.2540  -13.5900   15.4160 N.3   183  PHE183     -0.1227
     76  CA       -61.3930  -14.8700   14.7240 C.3   183  PHE183      0.1736
     77  C        -60.8260  -14.7940   13.3010 C.2   183  PHE183      0.2595
     78  O        -60.0600  -15.6760   12.9020 O.2   183  PHE183     -0.2718
     79  CB       -62.8640  -15.2990   14.6940 C.3   183  PHE183      0.0547
     80  CG       -63.1680  -16.4920   15.5590 C.ar  183  PHE183     -0.0202
     81  CD1      -63.6150  -16.3290   16.8610 C.ar  183  PHE183     -0.0042
     82  CD2      -63.0220  -17.7850   15.0660 C.ar  183  PHE183     -0.0042
     83  CE1      -63.8870  -17.4350   17.6650 C.ar  183  PHE183     -0.0003
     84  CE2      -63.3030  -18.8930   15.8660 C.ar  183  PHE183     -0.0003
     85  CZ       -63.7270  -18.7100   17.1620 C.ar  183  PHE183     -0.0000
     86  N        -61.1640  -13.7110   12.5660 N.am  184  TYR184     -0.1976
     87  CA       -60.6970  -13.4620   11.2070 C.3   184  TYR184      0.1639
     88  C        -59.1740  -13.2510   11.1460 C.2   184  TYR184      0.2290
     89  O        -58.5000  -13.9460   10.3780 O.2   184  TYR184     -0.2864
     90  CB       -61.4580  -12.2860   10.5740 C.3   184  TYR184      0.0560
     91  CG       -61.0550  -12.0060    9.1420 C.ar  184  TYR184     -0.0198
     92  CD1      -61.6250  -12.7130    8.0850 C.ar  184  TYR184     -0.0009
     93  CD2      -60.0960  -11.0410    8.8410 C.ar  184  TYR184     -0.0009
     94  CE1      -61.2450  -12.4720    6.7660 C.ar  184  TYR184      0.0417
     95  CE2      -59.7040  -10.7980    7.5270 C.ar  184  TYR184      0.0417
     96  CZ       -60.2750  -11.5230    6.4960 C.ar  184  TYR184      0.1957
     97  OH       -59.9170  -11.2650    5.2020 O.3   184  TYR184     -0.2866
     98  N        -57.2440  -16.2460   11.9230 N.3   187  PHE187     -0.1241
     99  CA       -57.2880  -17.2070   10.8230 C.3   187  PHE187      0.1605
    100  C        -56.2780  -16.7630    9.7630 C.2   187  PHE187      0.2264
    101  O        -55.5680  -17.6060    9.2130 O.2   187  PHE187     -0.2867
    102  CB       -58.7060  -17.3790   10.2440 C.3   187  PHE187      0.0534
    103  CG       -58.7810  -18.2850    9.0270 C.ar  187  PHE187     -0.0203
    104  CD1      -58.7550  -19.6700    9.1650 C.ar  187  PHE187     -0.0042
    105  CD2      -58.8690  -17.7500    7.7400 C.ar  187  PHE187     -0.0042
    106  CE1      -58.8140  -20.5030    8.0370 C.ar  187  PHE187     -0.0003
    107  CE2      -58.9420  -18.5860    6.6150 C.ar  187  PHE187     -0.0003
    108  CZ       -58.9250  -19.9550    6.7730 C.ar  187  PHE187     -0.0000
    109  N        -52.9540  -17.6390   10.9500 N.3   190  MET190     -0.1245
    110  CA       -52.8420  -19.0950   10.8480 C.3   190  MET190      0.1570
    111  C        -52.4590  -19.4910    9.4320 C.2   190  MET190      0.2261
    112  O        -51.5340  -20.2810    9.2610 O.2   190  MET190     -0.2867
    113  CB       -54.1520  -19.7750   11.2630 C.3   190  MET190      0.0387
    114  CG       -54.1090  -21.2720   11.1880 C.3   190  MET190      0.0595
    115  SD       -55.7410  -21.8980   10.8070 S.3   190  MET190     -0.1393
    116  CE       -55.7270  -23.3370   11.7410 C.3   190  MET190      0.0692
    117  N        -52.7220  -28.4030   12.9400 N.3   225  MET225     -0.1245
    118  CA       -52.9120  -28.5510   11.4980 C.3   225  MET225      0.1570
    119  C        -52.1420  -29.7160   10.9040 C.2   225  MET225      0.2261
    120  O        -52.7420  -30.5150   10.1860 O.2   225  MET225     -0.2867
    121  CB       -52.6130  -27.2500   10.7480 C.3   225  MET225      0.0387
    122  CG       -53.8380  -26.4240   10.5100 C.3   225  MET225      0.0595
    123  SD       -54.9110  -27.1940    9.2820 S.3   225  MET225     -0.1393
    124  CE       -56.4830  -26.5060    9.7680 C.3   225  MET225      0.0692
    125  N        -53.6350  -32.9500   11.7810 N.3   228  LEU228     -0.1245
    126  CA       -54.8930  -33.1390   11.0590 C.3   228  LEU228      0.1561
    127  C        -54.6000  -33.7860    9.6990 C.2   228  LEU228      0.2260
    128  O        -55.2830  -34.7340    9.3190 O.2   228  LEU228     -0.2867
    129  CB       -55.6180  -31.7900   10.8920 C.3   228  LEU228      0.0270
    130  CG       -56.8720  -31.7800   10.0250 C.3   228  LEU228      0.0019
    131  CD1      -58.0610  -31.2540   10.7950 C.3   228  LEU228      0.0001
    132  CD2      -56.6460  -30.9700    8.7670 C.3   228  LEU228      0.0001
@<TRIPOS>BOND
     1    97    96    1
     2    96    94   ar
     3    96    95   ar
     4   107   108   ar
     5   107   105   ar
     6    94    92   ar
     7   108   106   ar
     8    95    93   ar
     9   105   103   ar
    10   106   104   ar
    11    92    91   ar
    12   132   130    1
    13    93    91   ar
    14   103   104   ar
    15   103   102    1
    16    91    90    1
    17   101   100    2
    18   112   111    2
    19   123   124    1
    20   123   122    1
    21   128   127    2
    22   111   110    1
    23   127   126    1
    24   100    99    1
    25   130   131    1
    26   130   129    1
    27   120   119    2
    28   102    99    1
    29    89    88    2
    30     8     6    1
    31   122   121    1
    32    90    87    1
    33   121   118    1
    34   115   114    1
    35   115   116    1
    36    99    98    1
    37   110   109    1
    38   110   113    1
    39   129   126    1
    40   119   118    1
    41   126   125    1
    42    88    87    1
    43   114   113    1
    44    87    86    1
    45     6     5    1
    46   118   117    1
    47    73    72   ar
    48     7     5    1
    49    74    72   ar
    50    86    77   am
    51     5     2    1
    52    72    71    1
    53    78    77    2
    54    77    76    1
    55    69    68    2
    56    34    33   ar
    57    34    32   ar
    58    65    64    2
    59     2     1    1
    60     2     3    1
    61    71    70    1
    62    33    31   ar
    63    14    15    1
    64    14    13    1
    65    32    30   ar
    66    67    68    1
    67    67    70    1
    68    67    66    1
    69    15    16    1
    70    79    76    1
    71    79    80    1
    72    64    66   am
    73    64    63    1
    74    76    75    1
    75    13    10    1
    76     3     4    2
    77    31    29   ar
    78    82    80   ar
    79    82    84   ar
    80    30    29   ar
    81    22    21    1
    82    63    62    1
    83    80    81   ar
    84    29    28    1
    85    84    85   ar
    86    10    11    1
    87    10     9    1
    88    52    51    1
    89    21    23    1
    90    21    18    1
    91    17    11   am
    92    17    18    1
    93    11    12    2
    94    28    25    1
    95    18    19    1
    96    81    83   ar
    97    62    56   am
    98    85    83   ar
    99    57    56    2
   100    51    53    1
   101    51    48    1
   102    56    55    1
   103    46    45    1
   104    50    49    2
   105    47    48    1
   106    25    24    1
   107    25    26    1
   108    19    20    2
   109    44    45   ar
   110    44    42   ar
   111    49    48    1
   112    49    54   am
   113    45    43   ar
   114    26    27    2
   115    26    35   am
   116    54    55    1
   117    55    58    1
   118    42    40   ar
   119    60    59    1
   120    35    36    1
   121    43    41   ar
   122    58    59    1
   123    40    41   ar
   124    40    39    1
   125    59    61    1
   126    36    39    1
   127    36    37    1
   128    37    38    2
