@<TRIPOS>MOLECULE
tmp/5ek0C03.pdb
 100 99 0 0 0
SMALL
GASTEIGER

@<TRIPOS>ATOM
      1  N        -34.0870  -33.6060   -7.0320 N.3   142  ILE142     -0.1245
      2  CA       -33.3710  -32.3280   -6.8580 C.3   142  ILE142      0.1561
      3  C        -32.8080  -31.8930   -8.2160 C.2   142  ILE142      0.2260
      4  O        -33.0130  -30.7460   -8.6190 O.2   142  ILE142     -0.2867
      5  CB       -32.2270  -32.4340   -5.7910 C.3   142  ILE142      0.0252
      6  CG1      -32.7470  -32.8670   -4.3780 C.3   142  ILE142      0.0019
      7  CG2      -31.3690  -31.1580   -5.7160 C.3   142  ILE142      0.0019
      8  CD1      -33.4920  -31.8350   -3.4750 C.3   142  ILE142      0.0001
      9  N        -33.6690  -28.5280  -10.5680 N.3   146  THR146     -0.1218
     10  CA       -32.6210  -27.5970  -10.9940 C.3   146  THR146      0.1862
     11  C        -32.6990  -27.4730  -12.5020 C.2   146  THR146      0.2287
     12  O        -32.7060  -26.3580  -13.0200 O.2   146  THR146     -0.2866
     13  CB       -31.2230  -28.1020  -10.6110 C.3   146  THR146      0.1770
     14  OG1      -31.2770  -28.8410   -9.3990 O.3   146  THR146     -0.2211
     15  CG2      -30.2030  -26.9800  -10.5100 C.3   146  THR146      0.0375
     16  N        -35.6190  -25.4970  -13.6360 N.3   149  PHE149     -0.1227
     17  CA       -35.3820  -24.0820  -13.3530 C.3   149  PHE149      0.1736
     18  C        -34.6080  -23.3860  -14.4530 C.2   149  PHE149      0.2595
     19  O        -34.9180  -22.2410  -14.7540 O.2   149  PHE149     -0.2718
     20  CB       -34.6530  -23.8980  -12.0230 C.3   149  PHE149      0.0547
     21  CG       -35.5050  -23.3630  -10.8960 C.ar  149  PHE149     -0.0202
     22  CD1      -35.7850  -21.9950  -10.7980 C.ar  149  PHE149     -0.0042
     23  CD2      -36.0110  -24.2230   -9.9140 C.ar  149  PHE149     -0.0042
     24  CE1      -36.5540  -21.4920   -9.7290 C.ar  149  PHE149     -0.0003
     25  CE2      -36.7940  -23.7240   -8.8540 C.ar  149  PHE149     -0.0003
     26  CZ       -37.0620  -22.3620   -8.7670 C.ar  149  PHE149     -0.0000
     27  N        -33.6100  -24.0680  -15.0470 N.am  150  TYR150     -0.1976
     28  CA       -32.7880  -23.5220  -16.1240 C.3   150  TYR150      0.1639
     29  C        -33.5960  -23.1770  -17.3670 C.2   150  TYR150      0.2290
     30  O        -33.3910  -22.1060  -17.9400 O.2   150  TYR150     -0.2864
     31  CB       -31.6220  -24.4600  -16.4640 C.3   150  TYR150      0.0560
     32  CG       -30.4450  -24.2980  -15.5320 C.ar  150  TYR150     -0.0198
     33  CD1      -29.5500  -23.2410  -15.6840 C.ar  150  TYR150     -0.0009
     34  CD2      -30.2230  -25.1970  -14.4940 C.ar  150  TYR150     -0.0009
     35  CE1      -28.4730  -23.0740  -14.8150 C.ar  150  TYR150      0.0417
     36  CE2      -29.1470  -25.0440  -13.6210 C.ar  150  TYR150      0.0417
     37  CZ       -28.2710  -23.9830  -13.7880 C.ar  150  TYR150      0.1957
     38  OH       -27.2070  -23.8230  -12.9340 O.3   150  TYR150     -0.2866
     39  N        -30.7550  -10.4550  -15.9220 N.3   170  THR170     -0.1203
     40  CA       -29.8520  -11.5690  -16.1900 C.3   170  THR170      0.1994
     41  C        -30.5460  -12.8590  -15.7410 C.2   170  THR170      0.2618
     42  O        -31.6050  -12.7950  -15.1050 O.2   170  THR170     -0.2717
     43  CB       -28.4660  -11.3510  -15.5140 C.3   170  THR170      0.1784
     44  OG1      -27.6820  -12.5470  -15.6080 O.3   170  THR170     -0.2211
     45  CG2      -28.5590  -10.9340  -14.0460 C.3   170  THR170      0.0376
     46  N        -29.9530  -14.0250  -16.0760 N.am  171  LEU171     -0.1965
     47  CA       -30.4300  -15.3470  -15.6680 C.3   171  LEU171      0.1728
     48  C        -30.3310  -15.4800  -14.1430 C.2   171  LEU171      0.2617
     49  O        -31.0160  -16.3090  -13.5390 O.2   171  LEU171     -0.2715
     50  CB       -29.5880  -16.4230  -16.3340 C.3   171  LEU171      0.0311
     51  CG       -30.2550  -17.7680  -16.4310 C.3   171  LEU171      0.0022
     52  CD1      -30.3640  -18.1880  -17.8580 C.3   171  LEU171      0.0001
     53  CD2      -29.5260  -18.7970  -15.5890 C.3   171  LEU171      0.0001
     54  N        -29.4760  -14.6510  -13.5510 N.am  172  GLY172     -0.1940
     55  CA       -29.3000  -14.5600  -12.1130 C.3   172  GLY172      0.2014
     56  C        -30.5480  -14.0240  -11.4450 C.2   172  GLY172      0.2638
     57  O        -31.0710  -14.6410  -10.5100 O.2   172  GLY172     -0.2714
     58  N        -31.0520  -12.8810  -11.9650 N.am  173  GLU173     -0.1977
     59  CA       -32.2770  -12.2180  -11.5060 C.3   173  GLU173      0.1602
     60  C        -33.4580  -13.1470  -11.7650 C.2   173  GLU173      0.2287
     61  O        -34.3040  -13.3240  -10.8840 O.2   173  GLU173     -0.2864
     62  CB       -32.4960  -10.8720  -12.2290 C.3   173  GLU173      0.0415
     63  CG       -31.3170   -9.9220  -12.1500 C.3   173  GLU173      0.1163
     64  CD       -31.6030   -8.5190  -11.6560 C.2   173  GLU173      0.3649
     65  OE1      -31.2630   -7.5580  -12.3860 O.co2 173  GLU173     -0.2457
     66  OE2      -32.1130   -8.3770  -10.5200 O.co2 173  GLU173     -0.2457
     67  N        -33.5190  -16.5200  -12.0810 N.3   175  PHE175     -0.1227
     68  CA       -33.4960  -17.7000  -11.2040 C.3   175  PHE175      0.1736
     69  C        -34.1060  -17.4160   -9.8290 C.2   175  PHE175      0.2595
     70  O        -34.8680  -18.2340   -9.2990 O.2   175  PHE175     -0.2718
     71  CB       -32.0620  -18.2270  -11.0530 C.3   175  PHE175      0.0547
     72  CG       -31.8860  -19.6620  -11.4900 C.ar  175  PHE175     -0.0202
     73  CD1      -32.1880  -20.7120  -10.6290 C.ar  175  PHE175     -0.0042
     74  CD2      -31.3950  -19.9650  -12.7500 C.ar  175  PHE175     -0.0042
     75  CE1      -32.0100  -22.0400  -11.0280 C.ar  175  PHE175     -0.0003
     76  CE2      -31.2350  -21.2940  -13.1560 C.ar  175  PHE175     -0.0003
     77  CZ       -31.5410  -22.3220  -12.2900 C.ar  175  PHE175     -0.0000
     78  N        -33.7880  -16.2280   -9.2870 N.am  176  TYR176     -0.1976
     79  CA       -34.2300  -15.7230   -7.9920 C.3   176  TYR176      0.1639
     80  C        -35.7440  -15.4820   -7.9260 C.2   176  TYR176      0.2290
     81  O        -36.3920  -16.0050   -7.0180 O.2   176  TYR176     -0.2864
     82  CB       -33.4200  -14.4630   -7.6210 C.3   176  TYR176      0.0560
     83  CG       -33.7760  -13.8540   -6.2820 C.ar  176  TYR176     -0.0198
     84  CD1      -33.2670  -14.3780   -5.0970 C.ar  176  TYR176     -0.0009
     85  CD2      -34.5970  -12.7350   -6.2010 C.ar  176  TYR176     -0.0009
     86  CE1      -33.5980  -13.8270   -3.8630 C.ar  176  TYR176      0.0417
     87  CE2      -34.9280  -12.1720   -4.9730 C.ar  176  TYR176      0.0417
     88  CZ       -34.4350  -12.7280   -3.8080 C.ar  176  TYR176      0.1957
     89  OH       -34.7550  -12.1550   -2.6070 O.3   176  TYR176     -0.2866
     90  N        -37.6780  -18.7440   -8.0880 N.3   179  PHE179     -0.1241
     91  CA       -37.6210  -19.4190   -6.7900 C.3   179  PHE179      0.1605
     92  C        -38.6440  -18.7880   -5.8350 C.2   179  PHE179      0.2264
     93  O        -39.2960  -19.5010   -5.0730 O.2   179  PHE179     -0.2867
     94  CB       -36.2040  -19.3520   -6.1840 C.3   179  PHE179      0.0534
     95  CG       -36.1370  -19.8470   -4.7540 C.ar  179  PHE179     -0.0203
     96  CD1      -36.0480  -21.2070   -4.4740 C.ar  179  PHE179     -0.0042
     97  CD2      -36.2110  -18.9580   -3.6860 C.ar  179  PHE179     -0.0042
     98  CE1      -36.0240  -21.6680   -3.1500 C.ar  179  PHE179     -0.0003
     99  CE2      -36.1980  -19.4220   -2.3630 C.ar  179  PHE179     -0.0003
    100  CZ       -36.0970  -20.7720   -2.1050 C.ar  179  PHE179     -0.0000
@<TRIPOS>BOND
     1    30    29    2
     2    52    51    1
     3    29    28    1
     4    31    28    1
     5    31    32    1
     6    51    50    1
     7    51    53    1
     8    50    47    1
     9    40    39    1
    10    40    41    1
    11    40    43    1
    12    28    27    1
    13    46    41   am
    14    46    47    1
    15    41    42    2
    16    33    32   ar
    17    33    35   ar
    18    47    48    1
    19    44    43    1
    20    32    34   ar
    21    43    45    1
    22    27    18   am
    23    35    37   ar
    24    19    18    2
    25    34    36   ar
    26    18    17    1
    27    48    54   am
    28    48    49    2
    29    37    36   ar
    30    37    38    1
    31    16    17    1
    32    54    55    1
    33    17    20    1
    34    76    74   ar
    35    76    77   ar
    36    12    11    2
    37    74    72   ar
    38    11    10    1
    39    65    64   ar
    40    77    75   ar
    41    62    63    1
    42    62    59    1
    43    63    64    1
    44    55    56    1
    45    67    68    1
    46    20    21    1
    47    58    59    1
    48    58    56   am
    49    60    59    1
    50    60    61    2
    51    64    66   ar
    52    72    71    1
    53    72    73   ar
    54    56    57    2
    55    68    71    1
    56    68    69    1
    57    75    73   ar
    58    10    13    1
    59    10     9    1
    60    21    22   ar
    61    21    23   ar
    62    22    24   ar
    63    13    15    1
    64    13    14    1
    65    23    25   ar
    66    69    70    2
    67    69    78   am
    68    24    26   ar
    69    78    79    1
    70    25    26   ar
    71     4     3    2
    72     3     2    1
    73    90    91    1
    74    79    80    1
    75    79    82    1
    76    80    81    2
    77    82    83    1
    78     1     2    1
    79     2     5    1
    80    91    94    1
    81    91    92    1
    82    83    85   ar
    83    83    84   ar
    84    85    87   ar
    85    94    95    1
    86    92    93    2
    87     5     7    1
    88     5     6    1
    89    84    86   ar
    90    87    88   ar
    91    95    96   ar
    92    95    97   ar
    93    96    98   ar
    94     6     8    1
    95    86    88   ar
    96    88    89    1
    97    97    99   ar
    98    98   100   ar
    99    99   100   ar
