@<TRIPOS>MOLECULE
tmp/5ek3B01.pdb
 131 124 0 0 0
SMALL
GASTEIGER

@<TRIPOS>ATOM
      1  N          7.2880   25.9960   26.2850 N.3   114  TYR114     -0.1241
      2  CA         7.5590   27.3910   25.9540 C.3   114  TYR114      0.1605
      3  C          6.8450   27.8140   24.6720 C.2   114  TYR114      0.2264
      4  O          6.2980   28.9210   24.5940 O.2   114  TYR114     -0.2867
      5  CB         9.0760   27.5700   25.8460 C.3   114  TYR114      0.0534
      6  CG         9.5940   28.9650   25.5610 C.ar  114  TYR114     -0.0201
      7  CD1        9.8260   29.8660   26.5920 C.ar  114  TYR114     -0.0009
      8  CD2        9.9070   29.3560   24.2680 C.ar  114  TYR114     -0.0009
      9  CE1       10.3240   31.1310   26.3370 C.ar  114  TYR114      0.0417
     10  CE2       10.4010   30.6170   24.0010 C.ar  114  TYR114      0.0417
     11  CZ        10.6080   31.4980   25.0400 C.ar  114  TYR114      0.1957
     12  OH        11.1030   32.7530   24.7830 O.3   114  TYR114     -0.2866
     13  N          2.9940   28.6450   25.7160 N.3   117  CYS117     -0.1221
     14  CA         2.6140   29.7520   26.5790 C.3   117  CYS117      0.1808
     15  C          3.3870   31.0380   26.3000 C.2   117  CYS117      0.2601
     16  O          3.0680   32.0700   26.9020 O.2   117  CYS117     -0.2717
     17  CB         2.7820   29.3610   28.0540 C.3   117  CYS117      0.0970
     18  SG         4.4120   28.7790   28.5310 S.3   117  CYS117     -0.0800
     19  N          4.3820   31.0130   25.4150 N.am  118  VAL118     -0.1979
     20  CA         5.0150   32.2290   24.9040 C.3   118  VAL118      0.1595
     21  C          4.7220   32.4160   23.4150 C.2   118  VAL118      0.2287
     22  O          4.1080   33.4050   23.0140 O.2   118  VAL118     -0.2864
     23  CB         6.5360   32.2340   25.1810 C.3   118  VAL118      0.0276
     24  CG1        7.1770   33.4930   24.5990 C.3   118  VAL118      0.0022
     25  CG2        6.8080   32.1610   26.6750 C.3   118  VAL118      0.0022
     26  N          5.3690   38.0340   32.4130 N.3   151  PHE151     -0.1227
     27  CA         6.3760   37.0150   32.1460 C.3   151  PHE151      0.1736
     28  C          6.3350   36.5660   30.6900 C.2   151  PHE151      0.2595
     29  O          7.3590   36.5710   29.9950 O.2   151  PHE151     -0.2718
     30  CB         6.1480   35.8320   33.0850 C.3   151  PHE151      0.0547
     31  CG         7.2810   34.8550   33.1230 C.ar  151  PHE151     -0.0202
     32  CD1        8.5680   35.2810   33.3950 C.ar  151  PHE151     -0.0042
     33  CD2        7.0560   33.5060   32.9150 C.ar  151  PHE151     -0.0042
     34  CE1        9.6150   34.3840   33.4380 C.ar  151  PHE151     -0.0003
     35  CE2        8.0970   32.6020   32.9610 C.ar  151  PHE151     -0.0003
     36  CZ         9.3790   33.0400   33.2230 C.ar  151  PHE151     -0.0000
     37  N          5.1550   36.1700   30.2130 N.am  152  PHE152     -0.1976
     38  CA         5.0490   35.6040   28.8730 C.3   152  PHE152      0.1639
     39  C          5.3390   36.6440   27.7970 C.2   152  PHE152      0.2290
     40  O          6.0470   36.3530   26.8270 O.2   152  PHE152     -0.2864
     41  CB         3.6590   34.9980   28.6730 C.3   152  PHE152      0.0560
     42  CG         3.3950   33.7640   29.5050 C.ar  152  PHE152     -0.0200
     43  CD1        4.4400   32.9920   29.9970 C.ar  152  PHE152     -0.0042
     44  CD2        2.0950   33.3760   29.7890 C.ar  152  PHE152     -0.0042
     45  CE1        4.1920   31.8620   30.7540 C.ar  152  PHE152     -0.0003
     46  CE2        1.8420   32.2460   30.5490 C.ar  152  PHE152     -0.0003
     47  CZ         2.8920   31.4890   31.0300 C.ar  152  PHE152     -0.0000
     48  N          9.0690   37.7390   27.5870 N.3   155  SER155     -0.1217
     49  CA         9.8030   36.6830   26.8890 C.3   155  SER155      0.1889
     50  C          9.5590   36.7600   25.3900 C.2   155  SER155      0.2288
     51  O         10.4930   36.6600   24.5850 O.2   155  SER155     -0.2866
     52  CB         9.3940   35.3100   27.4150 C.3   155  SER155      0.2089
     53  OG         9.7750   35.1320   28.7650 O.3   155  SER155     -0.2183
     54  N          5.4710   35.9220   41.1320 N.3   214  PHE214     -0.1241
     55  CA         6.1490   34.9890   40.2400 C.3   214  PHE214      0.1605
     56  C          6.6120   33.7490   40.9930 C.2   214  PHE214      0.2264
     57  O          6.3400   32.6170   40.5790 O.2   214  PHE214     -0.2867
     58  CB         7.3370   35.6680   39.5610 C.3   214  PHE214      0.0534
     59  CG         8.1650   34.7300   38.7380 C.ar  214  PHE214     -0.0203
     60  CD1        7.8340   34.4680   37.4190 C.ar  214  PHE214     -0.0042
     61  CD2        9.2610   34.0900   39.2870 C.ar  214  PHE214     -0.0042
     62  CE1        8.5900   33.5950   36.6590 C.ar  214  PHE214     -0.0003
     63  CE2       10.0160   33.2170   38.5380 C.ar  214  PHE214     -0.0003
     64  CZ         9.6820   32.9670   37.2190 C.ar  214  PHE214     -0.0000
     65  N          5.4440   30.1600   39.2860 N.3   219  ARG219     -0.1245
     66  CA         6.3770   29.0370   39.2620 C.3   219  ARG219      0.1563
     67  C          5.6500   27.7190   39.4960 C.2   219  ARG219      0.2260
     68  O          5.9590   26.7060   38.8560 O.2   219  ARG219     -0.2867
     69  CB         7.4610   29.2490   40.3190 C.3   219  ARG219      0.0307
     70  CG         8.3200   28.0290   40.6120 C.3   219  ARG219      0.0489
     71  CD         9.3870   28.3480   41.6480 C.3   219  ARG219      0.2205
     72  NE         8.8070   28.6170   42.9650 N.pl3 219  ARG219     -0.0865
     73  CZ         8.6650   27.7150   43.9320 C.cat 219  ARG219      0.5346
     74  NH1        9.0660   26.4620   43.7530 N.pl3 219  ARG219      0.1354
     75  NH2        8.1210   28.0670   45.0900 N.pl3 219  ARG219      0.1354
     76  N          3.9430   26.4300   36.3000 N.3   222  LEU222     -0.1245
     77  CA         4.8520   26.0690   35.2210 C.3   222  LEU222      0.1561
     78  C          5.6460   24.8050   35.5200 C.2   222  LEU222      0.2260
     79  O          6.3310   24.2940   34.6250 O.2   222  LEU222     -0.2867
     80  CB         5.8120   27.2290   34.9330 C.3   222  LEU222      0.0270
     81  CG         5.1420   28.5310   34.4790 C.3   222  LEU222      0.0019
     82  CD1        6.1610   29.6470   34.3040 C.3   222  LEU222      0.0001
     83  CD2        4.3880   28.3220   33.1810 C.3   222  LEU222      0.0001
     84  N          7.7530   23.8440   31.8270 N.3   250  GLY250     -0.1210
     85  CA         8.1570   24.9430   30.9690 C.3   250  GLY250      0.1956
     86  C          9.5390   25.4790   31.2880 C.2   250  GLY250      0.2613
     87  O          9.8570   25.7680   32.4470 O.2   250  GLY250     -0.2717
     88  N         10.3670   25.6300   30.2590 N.am  251  SER251     -0.1938
     89  CA        11.7620   26.0100   30.4360 C.3   251  SER251      0.2055
     90  C         12.2300   26.7790   29.2120 C.2   251  SER251      0.2642
     91  O         11.9780   26.3550   28.0810 O.2   251  SER251     -0.2714
     92  CB        12.6390   24.7710   30.6550 C.3   251  SER251      0.2130
     93  OG        13.9580   24.9850   30.1810 O.3   251  SER251     -0.2179
     94  N         12.9130   27.9000   29.4400 N.am  252  ALA252     -0.1977
     95  CA        13.4380   28.6840   28.3320 C.3   252  ALA252      0.1597
     96  C         14.6250   28.0140   27.6590 C.2   252  ALA252      0.2287
     97  O         15.0530   28.4740   26.5960 O.2   252  ALA252     -0.2864
     98  CB        13.8260   30.0800   28.8100 C.3   252  ALA252      0.0319
     99  N         20.3640   38.6090   32.7740 N.3   334  HIS334     -0.1241
    100  CA        19.4220   37.5610   33.1270 C.3   334  HIS334      0.1621
    101  C         19.7190   36.9680   34.5020 C.2   334  HIS334      0.2264
    102  O         18.7990   36.6220   35.2520 O.2   334  HIS334     -0.2867
    103  CB        19.4840   36.5040   32.0380 C.3   334  HIS334      0.0745
    104  CG        18.5360   35.3830   32.2410 C.ar  334  HIS334      0.0817
    105  ND1       18.9350   34.1460   32.6950 N.ar  334  HIS334     -0.2268
    106  CD2       17.2020   35.3100   32.0530 C.ar  334  HIS334      0.1154
    107  CE1       17.8830   33.3560   32.7770 C.ar  334  HIS334      0.1986
    108  NE2       16.8220   34.0420   32.4000 N.ar  334  HIS334     -0.2212
    109  N         13.9980   34.7640   42.0540 N.3   342  ILE342     -0.1245
    110  CA        14.0660   33.3980   42.5670 C.3   342  ILE342      0.1561
    111  C         14.7810   33.3610   43.9110 C.2   342  ILE342      0.2260
    112  O         14.1960   32.9660   44.9240 O.2   342  ILE342     -0.2867
    113  CB        14.7660   32.4530   41.5740 C.3   342  ILE342      0.0252
    114  CG1       14.0790   32.4910   40.2060 C.3   342  ILE342      0.0019
    115  CG2       14.7820   31.0250   42.1370 C.3   342  ILE342      0.0019
    116  CD1       12.7170   31.8420   40.1710 C.3   342  ILE342      0.0001
    117  N         15.5190   22.0530   40.3100 N.3   354  THR354     -0.1218
    118  CA        14.8150   23.3370   40.3050 C.3   354  THR354      0.1862
    119  C         15.2890   24.2350   41.4450 C.2   354  THR354      0.2287
    120  O         14.4980   24.8160   42.1880 O.2   354  THR354     -0.2866
    121  CB        13.3100   23.1140   40.3660 C.3   354  THR354      0.1770
    122  OG1       12.9810   22.3540   41.5360 O.3   354  THR354     -0.2211
    123  CG2       12.8320   22.3770   39.1070 C.3   354  THR354      0.0375
    124  N         19.5340   25.9910   39.9480 N.3   359  LEU359     -0.1245
    125  CA        19.1750   26.8680   38.8390 C.3   359  LEU359      0.1561
    126  C         20.2690   27.8960   38.5890 C.2   359  LEU359      0.2260
    127  O         20.6630   28.1400   37.4420 O.2   359  LEU359     -0.2867
    128  CB        17.8450   27.5650   39.1290 C.3   359  LEU359      0.0270
    129  CG        16.5950   26.6790   39.1320 C.3   359  LEU359      0.0019
    130  CD1       15.3550   27.4710   39.5490 C.3   359  LEU359      0.0001
    131  CD2       16.3880   26.0230   37.7780 C.3   359  LEU359      0.0001
@<TRIPOS>BOND
     1    22    21    2
     2    21    20    1
     3    10     8   ar
     4    10    11   ar
     5     8     6   ar
     6    51    50    2
     7     4     3    2
     8    24    23    1
     9     3     2    1
    10    12    11    1
    11    20    23    1
    12    20    19    1
    13    11     9   ar
    14    23    25    1
    15    50    49    1
    16    19    15   am
    17     6     5    1
    18     6     7   ar
    19    13    14    1
    20     5     2    1
    21     2     1    1
    22    15    14    1
    23    15    16    2
    24     9     7   ar
    25    14    17    1
    26    97    96    2
    27    40    39    2
    28    49    52    1
    29    49    48    1
    30    52    53    1
    31    96    95    1
    32    39    38    1
    33    17    18    1
    34    91    90    2
    35    95    98    1
    36    95    94    1
    37    41    38    1
    38    41    42    1
    39    38    37    1
    40    90    94   am
    41    90    89    1
    42    42    44   ar
    43    42    43   ar
    44    44    46   ar
    45    29    28    2
    46    43    45   ar
    47    93    92    1
    48    37    28   am
    49    88    89    1
    50    88    86   am
    51    89    92    1
    52    46    47   ar
    53    28    27    1
    54    45    47   ar
    55    85    86    1
    56    85    84    1
    57    86    87    2
    58   103   104    1
    59   103   100    1
    60   106   104   ar
    61   106   108   ar
    62    27    26    1
    63    27    30    1
    64   104   105   ar
    65   108   107   ar
    66   105   107   ar
    67    99   100    1
    68    33    35   ar
    69    33    31   ar
    70    35    36   ar
    71    30    31    1
    72    31    32   ar
    73   100   101    1
    74    83    81    1
    75    36    34   ar
    76    32    34   ar
    77    82    81    1
    78    81    80    1
    79   101   102    2
    80    79    78    2
    81    80    77    1
    82    77    78    1
    83    77    76    1
    84    62    64   ar
    85    62    60   ar
    86    64    63   ar
    87    60    59   ar
    88   127   126    2
    89   131   129    1
    90    63    61   ar
    91   126   125    1
    92    59    61   ar
    93    59    58    1
    94   125   128    1
    95   125   124    1
    96    68    67    2
    97   123   121    1
    98   128   129    1
    99   129   130    1
   100    66    65    1
   101    66    67    1
   102    66    69    1
   103    58    55    1
   104   116   114    1
   105   114   113    1
   106    55    56    1
   107    55    54    1
   108   118   117    1
   109   118   121    1
   110   118   119    1
   111    69    70    1
   112   121   122    1
   113    57    56    2
   114    70    71    1
   115   119   120    2
   116   113   115    1
   117   113   110    1
   118    71    72    1
   119   109   110    1
   120   110   111    1
   121    72    73    2
   122    74    73    1
   123   111   112    2
   124    73    75    1
