@<TRIPOS>MOLECULE
tmp/5ek9B00.pdb
 140 138 0 0 0
SMALL
GASTEIGER

@<TRIPOS>ATOM
      1  N         21.5670   -1.0990   38.1990 N.3    23  TRP23      -0.1228
      2  CA        22.5390   -2.1730   37.9990 C.3    23  TRP23       0.1722
      3  C         23.8130   -2.0860   38.8060 C.2    23  TRP23       0.2437
      4  O         24.3560   -3.1140   39.1540 O.2    23  TRP23      -0.2733
      5  CB        22.8610   -2.4160   36.5200 C.3    23  TRP23       0.0563
      6  CG        23.5500   -1.2760   35.8920 C.ar   23  TRP23       0.0003
      7  CD1       22.9800   -0.2790   35.1720 C.ar   23  TRP23       0.0946
      8  CD2       24.9370   -1.0250   35.9060 C.ar   23  TRP23       0.0152
      9  NE1       23.9390    0.6250   34.7650 N.ar   23  TRP23      -0.2442
     10  CE2       25.1550    0.1650   35.1920 C.ar   23  TRP23       0.0810
     11  CE3       26.0390   -1.7100   36.4340 C.ar   23  TRP23       0.0012
     12  CZ2       26.4170    0.7140   35.0260 C.ar   23  TRP23       0.0191
     13  CZ3       27.2980   -1.1600   36.2540 C.ar   23  TRP23       0.0001
     14  CH2       27.4690    0.0350   35.5580 C.ar   23  TRP23       0.0015
     15  N         24.2940   -0.8750   39.1520 N.am   24  PRO24      -0.2718
     16  CA        25.5290   -0.8930   39.9600 C.3    24  PRO24       0.1535
     17  C         25.3700   -1.4540   41.3760 C.2    24  PRO24       0.2598
     18  O         26.3780   -1.8240   41.9830 O.2    24  PRO24      -0.2715
     19  CB        25.9350    0.5930   40.0300 C.3    24  PRO24       0.0310
     20  CG        25.2080    1.2340   38.8860 C.3    24  PRO24       0.0237
     21  CD        23.9180    0.4970   38.7560 C.3    24  PRO24       0.0939
     22  N         24.1280   -1.5110   41.8630 N.am   25  PHE25      -0.1974
     23  CA        23.7730   -1.9250   43.2340 C.3    25  PHE25       0.1639
     24  C         23.3420   -3.3740   43.3690 C.2    25  PHE25       0.2290
     25  O         23.1290   -3.8250   44.4870 O.2    25  PHE25      -0.2864
     26  CB        22.6950   -0.9640   43.7620 C.3    25  PHE25       0.0560
     27  CG        23.1130    0.4490   43.6180 C.ar   25  PHE25      -0.0200
     28  CD1       24.0310    0.9900   44.5010 C.ar   25  PHE25      -0.0042
     29  CD2       22.7370    1.1890   42.5110 C.ar   25  PHE25      -0.0042
     30  CE1       24.5040    2.2740   44.3210 C.ar   25  PHE25      -0.0003
     31  CE2       23.2030    2.4660   42.3280 C.ar   25  PHE25      -0.0003
     32  CZ        24.0800    3.0200   43.2340 C.ar   25  PHE25      -0.0000
     33  N         25.0840   -6.1800   42.8920 N.3    27  LYS27      -0.1231
     34  CA        26.0670   -7.1010   43.5030 C.3    27  LYS27       0.1678
     35  C         27.1070   -6.3330   44.2520 C.2    27  LYS27       0.2434
     36  O         27.2750   -5.1280   44.0240 O.2    27  LYS27      -0.2733
     37  CB        26.7150   -7.9470   42.4000 C.3    27  LYS27       0.0284
     38  CG        25.7500   -9.0040   41.8640 C.3    27  LYS27       0.0035
     39  CD        26.4190   -9.8760   40.8360 C.3    27  LYS27       0.0206
     40  CE        25.3840  -10.7710   40.1720 C.3    27  LYS27       0.1093
     41  NZ        26.0840  -11.7030   39.2620 N.3    27  LYS27      -0.1314
     42  N         27.8500   -7.0040   45.1350 N.am   28  PRO28      -0.2718
     43  CA        28.8760   -6.2160   45.8390 C.3    28  PRO28       0.1535
     44  C         29.8820   -5.5160   44.9190 C.2    28  PRO28       0.2598
     45  O         30.2040   -6.0290   43.8560 O.2    28  PRO28      -0.2715
     46  CB        29.6030   -7.2570   46.7140 C.3    28  PRO28       0.0310
     47  CG        28.6650   -8.4060   46.8230 C.3    28  PRO28       0.0237
     48  CD        27.8200   -8.4100   45.5790 C.3    28  PRO28       0.0939
     49  N         30.4070   -4.3790   45.3740 N.am   29  VAL29      -0.1964
     50  CA        31.4480   -3.6790   44.6620 C.3    29  VAL29       0.1727
     51  C         32.6270   -4.6570   44.5860 C.2    29  VAL29       0.2616
     52  O         33.0660   -5.1960   45.6150 O.2    29  VAL29      -0.2715
     53  CB        31.8210   -2.3660   45.3730 C.3    29  VAL29       0.0290
     54  CG1       33.0500   -1.7290   44.7590 C.3    29  VAL29       0.0023
     55  CG2       30.6550   -1.3900   45.3750 C.3    29  VAL29       0.0023
     56  N         33.0920   -4.9210   43.3690 N.am   30  ASP30      -0.1971
     57  CA        34.2850   -5.6970   43.1460 C.3    30  ASP30       0.1709
     58  C         35.4930   -4.7920   42.9500 C.2    30  ASP30       0.2293
     59  O         35.8060   -4.3770   41.8280 O.2    30  ASP30      -0.2864
     60  CB        34.1000   -6.5890   41.9410 C.3    30  ASP30       0.1436
     61  CG        35.2120   -7.6470   41.8250 C.2    30  ASP30       0.3671
     62  OD1       36.3530   -7.3720   42.2800 O.co2  30  ASP30      -0.2456
     63  OD2       34.9090   -8.7360   41.2860 O.co2  30  ASP30      -0.2456
     64  N         37.1940   -3.3920   39.3750 N.3    34  LEU34      -0.1245
     65  CA        37.1120   -1.9600   39.0360 C.3    34  LEU34       0.1561
     66  C         38.4170   -1.1910   39.1660 C.2    34  LEU34       0.2260
     67  O         38.4390    0.0250   38.9660 O.2    34  LEU34      -0.2867
     68  CB        36.0730   -1.2690   39.9140 C.3    34  LEU34       0.0270
     69  CG        34.6740   -1.8480   39.8510 C.3    34  LEU34       0.0019
     70  CD1       33.7970   -1.3180   40.9700 C.3    34  LEU34       0.0001
     71  CD2       34.0400   -1.5470   38.5090 C.3    34  LEU34       0.0001
     72  N         40.0840   -0.5090   41.8790 N.3    36  LEU36      -0.1245
     73  CA        40.1270    0.3640   43.0540 C.3    36  LEU36       0.1561
     74  C         41.0340   -0.2550   44.1050 C.2    36  LEU36       0.2260
     75  O         41.0150   -1.4670   44.3330 O.2    36  LEU36      -0.2867
     76  CB        38.7340    0.6020   43.6160 C.3    36  LEU36       0.0270
     77  CG        37.6710    0.9800   42.5890 C.3    36  LEU36       0.0019
     78  CD1       36.3380    0.9590   43.2960 C.3    36  LEU36       0.0001
     79  CD2       37.8770    2.3440   41.9160 C.3    36  LEU36       0.0001
     80  N         38.9010    1.0180   48.2770 N.3    39  TYR39      -0.1241
     81  CA        37.4680    0.9030   48.5350 C.3    39  TYR39       0.1605
     82  C         37.2100    0.3240   49.9130 C.2    39  TYR39       0.2264
     83  O         36.4120    0.8820   50.6860 O.2    39  TYR39      -0.2867
     84  CB        36.7360    0.0710   47.4720 C.3    39  TYR39       0.0534
     85  CG        35.2490    0.1220   47.6950 C.ar   39  TYR39      -0.0201
     86  CD1       34.5180    1.2220   47.2790 C.ar   39  TYR39      -0.0009
     87  CD2       34.5770   -0.9010   48.3470 C.ar   39  TYR39      -0.0009
     88  CE1       33.1810    1.3040   47.4910 C.ar   39  TYR39       0.0417
     89  CE2       33.2060   -0.8290   48.5830 C.ar   39  TYR39       0.0417
     90  CZ        32.5230    0.2990   48.1660 C.ar   39  TYR39       0.1957
     91  OH        31.1750    0.4390   48.3980 O.3    39  TYR39      -0.2866
     92  N         27.8870    4.5340   48.7880 N.3    78  CYS78      -0.1235
     93  CA        28.0860    5.1610   47.4950 C.3    78  CYS78       0.1677
     94  C         28.4100    6.6600   47.6000 C.2    78  CYS78       0.2270
     95  O         29.3540    7.1260   46.9710 O.2    78  CYS78      -0.2867
     96  CB        26.8480    4.9250   46.6290 C.3    78  CYS78       0.0956
     97  SG        27.0270    5.5030   44.9440 S.3    78  CYS78      -0.0801
     98  N         31.9770    7.0970   49.2300 N.3    81  TYR81      -0.1227
     99  CA        33.1610    6.7790   48.4460 C.3    81  TYR81       0.1736
    100  C         33.3150    7.6520   47.2260 C.2    81  TYR81       0.2595
    101  O         34.4140    8.0320   46.9140 O.2    81  TYR81      -0.2718
    102  CB        33.1980    5.3070   48.0540 C.3    81  TYR81       0.0548
    103  CG        34.4240    4.9370   47.2570 C.ar   81  TYR81      -0.0200
    104  CD1       35.6080    4.6540   47.8980 C.ar   81  TYR81      -0.0009
    105  CD2       34.3940    4.8670   45.8610 C.ar   81  TYR81      -0.0009
    106  CE1       36.7530    4.3350   47.1840 C.ar   81  TYR81       0.0417
    107  CE2       35.5380    4.5180   45.1360 C.ar   81  TYR81       0.0417
    108  CZ        36.7060    4.2670   45.8120 C.ar   81  TYR81       0.1957
    109  OH        37.8370    3.9390   45.1630 O.3    81  TYR81      -0.2866
    110  N         32.2280    7.9680   46.5370 N.am   82  ASN82      -0.1974
    111  CA        32.3110    8.6340   45.2490 C.3    82  ASN82       0.1688
    112  C         32.1250   10.1720   45.2890 C.2    82  ASN82       0.2292
    113  O         31.4000   10.6960   46.1340 O.2    82  ASN82      -0.2864
    114  CB        31.2570    8.0340   44.3040 C.3    82  ASN82       0.1181
    115  CG        31.3930    6.5310   44.1350 C.2    82  ASN82       0.2629
    116  OD1       32.2140    6.0690   43.3850 O.2    82  ASN82      -0.2716
    117  ND2       30.5740    5.7730   44.8260 N.am   82  ASN82      -0.0877
    118  N         28.5870   10.0670   37.9160 N.3    87  ASP87      -0.1225
    119  CA        27.4020    9.3650   37.4170 C.3    87  ASP87       0.1805
    120  C         26.8420    8.3240   38.3690 C.2    87  ASP87       0.2597
    121  O         25.6580    8.2570   38.5180 O.2    87  ASP87      -0.2718
    122  CB        27.6800    8.7530   36.0570 C.3    87  ASP87       0.1424
    123  CG        28.0090    9.8220   35.0140 C.2    87  ASP87       0.3668
    124  OD1       27.5880   10.9750   35.1780 O.co2  87  ASP87      -0.2456
    125  OD2       28.7000    9.5230   34.0510 O.co2  87  ASP87      -0.2456
    126  N         27.6800    7.5390   39.0440 N.am   88  VAL88      -0.1980
    127  CA        27.1340    6.5210   39.9180 C.3    88  VAL88       0.1595
    128  C         26.3190    7.1130   41.0630 C.2    88  VAL88       0.2287
    129  O         25.2980    6.5360   41.4540 O.2    88  VAL88      -0.2864
    130  CB        28.1970    5.5320   40.4530 C.3    88  VAL88       0.0276
    131  CG1       29.0830    6.2060   41.5020 C.3    88  VAL88       0.0022
    132  CG2       27.4890    4.3090   41.0260 C.3    88  VAL88       0.0022
    133  N         22.9030    7.9930   39.9020 N.3    91  MET91      -0.1245
    134  CA        22.0730    6.7890   39.7870 C.3    91  MET91       0.1570
    135  C         21.5980    6.3490   41.1580 C.2    91  MET91       0.2261
    136  O         20.4720    5.8760   41.3200 O.2    91  MET91      -0.2867
    137  CB        22.8640    5.6630   39.1450 C.3    91  MET91       0.0387
    138  CG        23.2630    5.9980   37.7070 C.3    91  MET91       0.0595
    139  SD        24.5000    4.8060   37.1560 S.3    91  MET91      -0.1393
    140  CE        23.4840    3.6490   36.3450 C.3    91  MET91       0.0692
@<TRIPOS>BOND
     1   125   123   ar
     2     9     7   ar
     3     9    10   ar
     4   123   124   ar
     5   123   122    1
     6    12    10   ar
     7    12    14   ar
     8     7     6   ar
     9    10     8   ar
    10    14    13   ar
    11     6     8   ar
    12     6     5    1
    13     8    11   ar
    14   122   119    1
    15    13    11   ar
    16   140   139    1
    17     5     2    1
    18   139   138    1
    19   119   118    1
    20   119   120    1
    21   138   137    1
    22     2     1    1
    23     2     3    1
    24   120   121    2
    25   120   126   am
    26    71    69    1
    27    21    20    1
    28    21    15    1
    29     3    15   am
    30     3     4    2
    31    20    19    1
    32    67    66    2
    33    65    66    1
    34    65    64    1
    35    65    68    1
    36   126   127    1
    37   137   134    1
    38    15    16    1
    39    41    40    1
    40   134   133    1
    41   134   135    1
    42    69    68    1
    43    69    70    1
    44   127   130    1
    45   127   128    1
    46    16    19    1
    47    16    17    1
    48    40    39    1
    49   130   132    1
    50   130   131    1
    51    39    38    1
    52   128   129    2
    53   135   136    2
    54    63    61   ar
    55    17    22   am
    56    17    18    2
    57    61    60    1
    58    61    62   ar
    59    59    58    2
    60    22    23    1
    61    38    37    1
    62    72    73    1
    63    79    77    1
    64    60    57    1
    65    31    29   ar
    66    31    32   ar
    67    37    34    1
    68    29    27   ar
    69    77    78    1
    70    77    76    1
    71    33    34    1
    72    58    57    1
    73    73    76    1
    74    73    74    1
    75    57    56    1
    76    23    24    1
    77    23    26    1
    78    32    30   ar
    79    24    25    2
    80    56    51   am
    81   116   115    2
    82    34    35    1
    83    27    26    1
    84    27    28   ar
    85    45    44    2
    86    36    35    2
    87    74    75    2
    88   115   114    1
    89   115   117   am
    90    35    42   am
    91   114   111    1
    92    30    28   ar
    93    51    50    1
    94    51    52    2
    95    50    53    1
    96    50    49    1
    97    54    53    1
    98    44    49   am
    99    44    43    1
   100    97    96    1
   101    42    48    1
   102    42    43    1
   103   107   108   ar
   104   107   105   ar
   105   109   108    1
   106   111   112    1
   107   111   110    1
   108   112   113    2
   109    53    55    1
   110    48    47    1
   111   108   106   ar
   112    43    46    1
   113   105   103   ar
   114   110   100   am
   115    96    93    1
   116    46    47    1
   117   101   100    2
   118    95    94    2
   119   106   104   ar
   120   100    99    1
   121   103   104   ar
   122   103   102    1
   123    86    88   ar
   124    86    85   ar
   125    84    85    1
   126    84    81    1
   127    88    90   ar
   128    93    94    1
   129    93    92    1
   130    85    87   ar
   131   102    99    1
   132    90    91    1
   133    90    89   ar
   134    80    81    1
   135    87    89   ar
   136    99    98    1
   137    81    82    1
   138    82    83    2
