@<TRIPOS>MOLECULE
tmp/5ekcB00.pdb
 211 208 0 0 0
SMALL
GASTEIGER

@<TRIPOS>ATOM
      1  N        -73.4220   27.5380   29.4090 N.3   146  ILE146     -0.1231
      2  CA       -73.9570   26.1910   29.1720 C.3   146  ILE146      0.1692
      3  C        -74.0190   25.4130   30.4830 C.2   146  ILE146      0.2593
      4  O        -73.0070   25.2720   31.1720 O.2   146  ILE146     -0.2718
      5  CB       -73.1030   25.4050   28.1390 C.3   146  ILE146      0.0266
      6  CG1      -73.0470   26.1550   26.8060 C.3   146  ILE146      0.0019
      7  CG2      -73.6700   23.9860   27.9430 C.3   146  ILE146      0.0020
      8  CD1      -72.0860   25.5650   25.7810 C.3   146  ILE146      0.0001
      9  N        -75.2050   24.9280   30.8430 N.am  147  THR147     -0.1940
     10  CA       -75.4370   24.5110   32.2220 C.3   147  THR147      0.2013
     11  C        -76.0240   23.0950   32.3660 C.2   147  THR147      0.2484
     12  O        -76.5360   22.5320   31.3940 O.2   147  THR147     -0.2729
     13  CB       -76.3680   25.5150   32.9190 C.3   147  THR147      0.1807
     14  OG1      -77.5550   25.6600   32.1370 O.3   147  THR147     -0.2208
     15  CG2      -75.6760   26.8670   33.0590 C.3   147  THR147      0.0379
     16  N        -75.9540   22.5240   33.5830 N.am  148  PRO148     -0.2715
     17  CA       -76.4470   21.1600   33.8160 C.3   148  PRO148      0.1536
     18  C        -77.8590   21.1150   34.3830 C.2   148  PRO148      0.2598
     19  O        -78.4960   22.1580   34.5530 O.2   148  PRO148     -0.2715
     20  CB       -75.4630   20.6210   34.8480 C.3   148  PRO148      0.0310
     21  CG       -75.2000   21.8250   35.7160 C.3   148  PRO148      0.0237
     22  CD       -75.2050   23.0220   34.7560 C.3   148  PRO148      0.0939
     23  N        -78.3270   19.9150   34.7190 N.am  149  TRP149     -0.1974
     24  CA       -79.7120   19.7300   35.1310 C.3   149  TRP149      0.1640
     25  C        -79.9120   19.5920   36.6360 C.2   149  TRP149      0.2290
     26  O        -81.0540   19.5570   37.0890 O.2   149  TRP149     -0.2864
     27  CB       -80.2980   18.4840   34.4350 C.3   149  TRP149      0.0576
     28  CG       -79.4110   17.2710   34.5860 C.ar  149  TRP149      0.0006
     29  CD1      -78.5000   16.8030   33.6750 C.ar  149  TRP149      0.0946
     30  CD2      -79.3270   16.3910   35.7230 C.ar  149  TRP149      0.0152
     31  NE1      -77.8610   15.6880   34.1730 N.ar  149  TRP149     -0.2442
     32  CE2      -78.3440   15.4200   35.4290 C.ar  149  TRP149      0.0810
     33  CE3      -79.9820   16.3340   36.9600 C.ar  149  TRP149      0.0012
     34  CZ2      -78.0080   14.4000   36.3190 C.ar  149  TRP149      0.0191
     35  CZ3      -79.6450   15.3180   37.8460 C.ar  149  TRP149      0.0001
     36  CH2      -78.6630   14.3670   37.5200 C.ar  149  TRP149      0.0015
     37  N        -77.6920   28.3730   27.0410 N.3   173  LYS173     -0.1231
     38  CA       -78.3050   27.1210   26.6030 C.3   173  LYS173      0.1678
     39  C        -78.4430   26.1870   27.7860 C.2   173  LYS173      0.2434
     40  O        -77.4580   25.6090   28.2400 O.2   173  LYS173     -0.2733
     41  CB       -77.5000   26.4330   25.4960 C.3   173  LYS173      0.0284
     42  CG       -78.2700   25.2430   24.8740 C.3   173  LYS173      0.0035
     43  CD       -77.3520   24.0700   24.5770 C.3   173  LYS173      0.0206
     44  CE       -77.1310   23.1960   25.8090 C.3   173  LYS173      0.1093
     45  NZ       -78.2590   22.2240   26.0290 N.3   173  LYS173     -0.1314
     46  N        -79.6740   26.0390   28.2970 N.am  174  PRO174     -0.2718
     47  CA       -79.8640   25.2030   29.4790 C.3   174  PRO174      0.1535
     48  C        -79.7480   23.7170   29.1230 C.2   174  PRO174      0.2598
     49  O        -79.8140   23.3450   27.9470 O.2   174  PRO174     -0.2715
     50  CB       -81.2800   25.5610   29.9350 C.3   174  PRO174      0.0310
     51  CG       -82.0020   25.8930   28.6490 C.3   174  PRO174      0.0237
     52  CD       -80.9460   26.6040   27.7990 C.3   174  PRO174      0.0939
     53  N        -79.5660   22.8870   30.1420 N.am  175  ALA175     -0.1964
     54  CA       -79.5520   21.4350   29.9730 C.3   175  ALA175      0.1728
     55  C        -80.8650   20.9740   29.3520 C.2   175  ALA175      0.2617
     56  O        -81.9150   21.5120   29.6670 O.2   175  ALA175     -0.2715
     57  CB       -79.3360   20.7510   31.3130 C.3   175  ALA175      0.0334
     58  N        -80.8120   19.9700   28.4900 N.am  176  SER176     -0.1936
     59  CA       -82.0240   19.4850   27.8290 C.3   176  SER176      0.2055
     60  C        -83.0560   18.8960   28.7790 C.2   176  SER176      0.2643
     61  O        -84.2430   18.8750   28.4640 O.2   176  SER176     -0.2714
     62  CB       -81.6660   18.4470   26.7740 C.3   176  SER176      0.2130
     63  OG       -81.0730   19.0870   25.6610 O.3   176  SER176     -0.2179
     64  N        -82.6280   18.4250   29.9410 N.am  177  ASP177     -0.1971
     65  CA       -83.5970   17.8960   30.8970 C.3   177  ASP177      0.1709
     66  C        -84.2210   18.9740   31.7660 C.2   177  ASP177      0.2293
     67  O        -85.1550   18.6920   32.5090 O.2   177  ASP177     -0.2864
     68  CB       -82.9600   16.8330   31.7870 C.3   177  ASP177      0.1436
     69  CG       -82.6670   15.5490   31.0280 C.2   177  ASP177      0.3671
     70  OD1      -83.5450   15.1110   30.2670 O.co2 177  ASP177     -0.2456
     71  OD2      -81.5510   15.0100   31.1720 O.co2 177  ASP177     -0.2456
     72  N        -80.4170   20.8550   21.6050 N.3   205  PRO205     -0.2102
     73  CA       -79.4190   19.8180   21.8920 C.3   205  PRO205      0.1504
     74  C        -78.0080   20.3840   22.0400 C.2   205  PRO205      0.2576
     75  O        -77.5800   21.1820   21.2090 O.2   205  PRO205     -0.2718
     76  CB       -79.5020   18.8880   20.6640 C.3   205  PRO205      0.0282
     77  CG       -80.7980   19.2170   20.0100 C.3   205  PRO205      0.0208
     78  CD       -81.0420   20.6640   20.2850 C.3   205  PRO205      0.0893
     79  N        -77.3100   19.9700   23.0940 N.am  206  GLY206     -0.1943
     80  CA       -75.9140   20.3270   23.3050 C.3   206  GLY206      0.1998
     81  C        -74.9940   20.1850   22.0940 C.2   206  GLY206      0.2480
     82  O        -74.2930   21.1310   21.7390 O.2   206  GLY206     -0.2729
     83  N        -74.9820   19.0010   21.4520 N.am  207  PRO207     -0.2726
     84  CA       -74.1280   18.7820   20.2750 C.3   207  PRO207      0.1402
     85  C        -74.4640   19.6350   19.0460 C.2   207  PRO207      0.2269
     86  O        -73.7280   19.5960   18.0620 O.2   207  PRO207     -0.2865
     87  CB       -74.3460   17.2960   19.9680 C.3   207  PRO207      0.0296
     88  CG       -74.6490   16.6980   21.3000 C.3   207  PRO207      0.0237
     89  CD       -75.5230   17.7280   21.9700 C.3   207  PRO207      0.0939
     90  N        -75.1220   23.9050   21.5130 N.3   210  GLY210     -0.1210
     91  CA       -73.9470   24.1170   22.3450 C.3   210  GLY210      0.1956
     92  C        -72.6800   24.1980   21.5100 C.2   210  GLY210      0.2611
     93  O        -71.8350   25.0770   21.7140 O.2   210  GLY210     -0.2717
     94  N        -72.5480   23.2940   20.5440 N.am  211  GLU211     -0.1979
     95  CA       -71.3470   23.2890   19.7110 C.3   211  GLU211      0.1602
     96  C        -71.2230   24.5620   18.8780 C.2   211  GLU211      0.2287
     97  O        -70.1210   25.0970   18.6970 O.2   211  GLU211     -0.2864
     98  CB       -71.3130   22.0750   18.7870 C.3   211  GLU211      0.0415
     99  CG       -70.0450   22.0820   17.9380 C.3   211  GLU211      0.1163
    100  CD       -69.7880   20.7830   17.2380 C.2   211  GLU211      0.3649
    101  OE1      -69.9940   20.7250   16.0090 O.co2 211  GLU211     -0.2457
    102  OE2      -69.3800   19.8180   17.9160 O.co2 211  GLU211     -0.2457
    103  N        -69.8660   27.1880   21.1100 N.3   214  VAL214     -0.1245
    104  CA       -68.4600   26.9600   21.4570 C.3   214  VAL214      0.1561
    105  C        -67.5070   27.2230   20.2900 C.2   214  VAL214      0.2260
    106  O        -66.3440   27.5750   20.4950 O.2   214  VAL214     -0.2867
    107  CB       -68.2750   25.5160   22.0020 C.3   214  VAL214      0.0252
    108  CG1      -66.8060   25.1860   22.2290 C.3   214  VAL214      0.0019
    109  CG2      -69.0510   25.3640   23.3070 C.3   214  VAL214      0.0019
    110  N        -68.9880   26.7800   31.4580 N.3   224  PHE224     -0.1227
    111  CA       -69.6320   25.4880   31.2950 C.3   224  PHE224      0.1736
    112  C        -69.5780   24.6860   32.5710 C.2   224  PHE224      0.2596
    113  O        -68.5370   24.6300   33.2190 O.2   224  PHE224     -0.2718
    114  CB       -68.9560   24.6960   30.1780 C.3   224  PHE224      0.0547
    115  CG       -69.3540   23.2460   30.1420 C.ar  224  PHE224     -0.0202
    116  CD1      -70.4980   22.8490   29.4670 C.ar  224  PHE224     -0.0042
    117  CD2      -68.5810   22.2740   30.7740 C.ar  224  PHE224     -0.0042
    118  CE1      -70.8650   21.5270   29.4300 C.ar  224  PHE224     -0.0003
    119  CE2      -68.9540   20.9400   30.7380 C.ar  224  PHE224     -0.0003
    120  CZ       -70.0910   20.5700   30.0680 C.ar  224  PHE224     -0.0000
    121  N        -70.6930   24.0700   32.9360 N.am  225  THR225     -0.1939
    122  CA       -70.7070   23.1500   34.0690 C.3   225  THR225      0.2028
    123  C        -71.3560   21.8700   33.5750 C.2   225  THR225      0.2643
    124  O        -72.4060   21.9070   32.9460 O.2   225  THR225     -0.2714
    125  CB       -71.4550   23.7270   35.2900 C.3   225  THR225      0.1808
    126  OG1      -70.7390   24.8730   35.7740 O.3   225  THR225     -0.2208
    127  CG2      -71.5730   22.6800   36.4400 C.3   225  THR225      0.0379
    128  N        -70.6970   20.7420   33.8080 N.am  226  GLY226     -0.1939
    129  CA       -71.1960   19.4710   33.3150 C.3   226  GLY226      0.2014
    130  C        -70.1460   18.3820   33.4650 C.2   226  GLY226      0.2638
    131  O        -69.2810   18.4670   34.3260 O.2   226  GLY226     -0.2714
    132  N        -70.2210   17.3530   32.6310 N.am  227  GLU227     -0.1977
    133  CA       -69.2770   16.2370   32.7560 C.3   227  GLU227      0.1602
    134  C        -67.8860   16.5580   32.2320 C.2   227  GLU227      0.2287
    135  O        -67.7190   17.3440   31.2950 O.2   227  GLU227     -0.2864
    136  CB       -69.8210   15.0110   32.0420 C.3   227  GLU227      0.0415
    137  CG       -70.9560   14.3730   32.7980 C.3   227  GLU227      0.1163
    138  CD       -71.4920   13.1530   32.0990 C.2   227  GLU227      0.3649
    139  OE1      -70.9840   12.8290   31.0030 O.co2 227  GLU227     -0.2457
    140  OE2      -72.4260   12.5290   32.6450 O.co2 227  GLU227     -0.2457
    141  N        -67.4230   16.0930   28.5240 N.3   230  THR230     -0.1218
    142  CA       -67.9970   17.1950   27.7490 C.3   230  THR230      0.1862
    143  C        -67.0650   18.4020   27.8300 C.2   230  THR230      0.2287
    144  O        -66.8240   19.0890   26.8350 O.2   230  THR230     -0.2866
    145  CB       -69.3980   17.6090   28.2550 C.3   230  THR230      0.1770
    146  OG1      -70.2090   16.4450   28.4650 O.3   230  THR230     -0.2211
    147  CG2      -70.0860   18.5440   27.2450 C.3   230  THR230      0.0375
    148  N        -64.0740   18.1780   25.5900 N.3   233  GLU233     -0.1231
    149  CA       -64.5240   18.3860   24.2180 C.3   233  GLU233      0.1699
    150  C        -64.6840   19.8760   23.9150 C.2   233  GLU233      0.2592
    151  O        -64.2180   20.3780   22.8880 O.2   233  GLU233     -0.2718
    152  CB       -65.8460   17.6480   23.9870 C.3   233  GLU233      0.0402
    153  CG       -66.3410   17.6790   22.5430 C.3   233  GLU233      0.1161
    154  CD       -67.5630   16.8040   22.3130 C.2   233  GLU233      0.3649
    155  OE1      -67.9910   16.0640   23.2290 O.co2 233  GLU233     -0.2457
    156  OE2      -68.1190   16.8770   21.2110 O.co2 233  GLU233     -0.2457
    157  N        -65.3440   20.5790   24.8250 N.am  234  ILE234     -0.1980
    158  CA       -65.5570   22.0120   24.6820 C.3   234  ILE234      0.1595
    159  C        -64.2360   22.7810   24.7020 C.2   234  ILE234      0.2287
    160  O        -64.0380   23.7010   23.9140 O.2   234  ILE234     -0.2864
    161  CB       -66.5110   22.5200   25.7950 C.3   234  ILE234      0.0276
    162  CG1      -67.9430   22.0900   25.4510 C.3   234  ILE234      0.0022
    163  CG2      -66.3760   24.0380   26.0080 C.3   234  ILE234      0.0022
    164  CD1      -68.9560   22.4120   26.5130 C.3   234  ILE234      0.0001
    165  N        -82.8840   12.0670   37.6030 N.3   326  ILE326     -0.1231
    166  CA       -83.4430   12.9050   36.5390 C.3   326  ILE326      0.1692
    167  C        -84.0340   12.0910   35.3750 C.2   326  ILE326      0.2592
    168  O        -84.9690   12.5420   34.7220 O.2   326  ILE326     -0.2718
    169  CB       -82.3680   13.9100   36.0090 C.3   326  ILE326      0.0266
    170  CG1      -82.9980   15.0220   35.1480 C.3   326  ILE326      0.0019
    171  CG2      -81.2790   13.1930   35.2440 C.3   326  ILE326      0.0020
    172  CD1      -84.0110   15.8690   35.8860 C.3   326  ILE326      0.0001
    173  N        -83.5110   10.8910   35.1100 N.am  327  ASN327     -0.1974
    174  CA       -84.0460   10.0790   34.0120 C.3   327  ASN327      0.1688
    175  C        -83.6640    8.6010   34.1440 C.2   327  ASN327      0.2292
    176  O        -82.9910    8.2250   35.1020 O.2   327  ASN327     -0.2864
    177  CB       -83.5740   10.6270   32.6550 C.3   327  ASN327      0.1181
    178  CG       -82.0620   10.5840   32.4980 C.2   327  ASN327      0.2629
    179  OD1      -81.3910    9.7060   33.0440 O.2   327  ASN327     -0.2716
    180  ND2      -81.5160   11.5450   31.7580 N.am  327  ASN327     -0.0877
    181  N        -81.6260    6.7570   32.2610 N.3   329  ARG329     -0.1231
    182  CA       -80.1990    6.5100   32.0570 C.3   329  ARG329      0.1694
    183  C        -79.4310    6.5830   33.3770 C.2   329  ARG329      0.2591
    184  O        -78.5140    5.7890   33.6120 O.2   329  ARG329     -0.2718
    185  CB       -79.6130    7.5020   31.0480 C.3   329  ARG329      0.0321
    186  CG       -78.1830    7.1120   30.7210 C.3   329  ARG329      0.0489
    187  CD       -77.6240    8.0540   29.6790 C.3   329  ARG329      0.2205
    188  NE       -77.7940    9.4210   30.1210 N.pl3 329  ARG329     -0.0865
    189  CZ       -78.1850   10.3430   29.2460 C.cat 329  ARG329      0.5346
    190  NH1      -78.4080   10.0000   27.9780 N.pl3 329  ARG329      0.1354
    191  NH2      -78.3810   11.6010   29.6420 N.pl3 329  ARG329      0.1354
    192  N        -79.8080    7.5210   34.2480 N.am  330  GLN330     -0.1979
    193  CA       -79.1390    7.6460   35.5370 C.3   330  GLN330      0.1601
    194  C        -79.4120    6.4180   36.3960 C.2   330  GLN330      0.2287
    195  O        -78.5020    5.9030   37.0570 O.2   330  GLN330     -0.2864
    196  CB       -79.5750    8.9230   36.2680 C.3   330  GLN330      0.0394
    197  CG       -79.1120   10.2040   35.5680 C.3   330  GLN330      0.0908
    198  CD       -77.6230   10.2300   35.3200 C.2   330  GLN330      0.2608
    199  OE1      -76.8140   10.3730   36.2500 O.2   330  GLN330     -0.2717
    200  NE2      -77.2440   10.0910   34.0680 N.am  330  GLN330     -0.0878
    201  N        -72.7010   10.1500   40.3210 N.3   379  PHE379     -0.1241
    202  CA       -73.6360   11.2730   40.3660 C.3   379  PHE379      0.1605
    203  C        -75.0240   10.7470   40.7110 C.2   379  PHE379      0.2264
    204  O        -75.9550   10.8400   39.9170 O.2   379  PHE379     -0.2867
    205  CB       -73.6350   12.0070   39.0180 C.3   379  PHE379      0.0534
    206  CG       -73.9290   13.4880   39.1260 C.ar  379  PHE379     -0.0203
    207  CD1      -72.9870   14.3590   39.6640 C.ar  379  PHE379     -0.0042
    208  CD2      -75.1470   13.9930   38.6980 C.ar  379  PHE379     -0.0042
    209  CE1      -73.2560   15.7280   39.7660 C.ar  379  PHE379     -0.0003
    210  CE2      -75.4320   15.3500   38.7950 C.ar  379  PHE379     -0.0003
    211  CZ       -74.4840   16.2180   39.3330 C.ar  379  PHE379     -0.0000
@<TRIPOS>BOND
     1   101   100   ar
     2   100   102   ar
     3   100    99    1
     4    99    98    1
     5    86    85    2
     6    97    96    2
     7    98    95    1
     8    96    95    1
     9    85    84    1
    10    95    94    1
    11    87    84    1
    12    87    88    1
    13    77    78    1
    14    77    76    1
    15    84    83    1
    16    78    72    1
    17   105   106    2
    18   105   104    1
    19    94    92   am
    20    76    73    1
    21   103   104    1
    22    75    74    2
    23   156   154   ar
    24    88    89    1
    25    83    89    1
    26    83    81   am
    27   104   107    1
    28    92    93    2
    29    92    91    1
    30    90    91    1
    31    72    73    1
    32    82    81    2
    33    73    74    1
    34   107   108    1
    35   107   109    1
    36    74    79   am
    37    81    80    1
    38   154   153    1
    39   154   155   ar
    40   153   152    1
    41   151   150    2
    42    79    80    1
    43   160   159    2
    44   150   149    1
    45   150   157   am
    46   152   149    1
    47   149   148    1
    48    43    42    1
    49    43    44    1
    50   158   159    1
    51   158   157    1
    52   158   161    1
    53    42    41    1
    54   162   161    1
    55   162   164    1
    56    41    38    1
    57    63    62    1
    58     8     6    1
    59   161   163    1
    60    44    45    1
    61    38    37    1
    62    38    39    1
    63    62    59    1
    64     6     5    1
    65   144   143    2
    66   147   145    1
    67   142   143    1
    68   142   145    1
    69   142   141    1
    70    39    40    2
    71    39    46   am
    72    52    46    1
    73    52    51    1
    74    59    58    1
    75    59    60    1
    76     7     5    1
    77    49    48    2
    78   190   189    1
    79     5     2    1
    80   145   146    1
    81    46    47    1
    82    61    60    2
    83    58    55   am
    84    51    50    1
    85    60    64   am
    86    48    47    1
    87    48    53   am
    88     2     1    1
    89     2     3    1
    90   189   191    1
    91   189   188    2
    92    55    56    2
    93    55    54    1
    94   118   116   ar
    95   118   120   ar
    96   116   115   ar
    97    47    50    1
    98   187   188    1
    99   187   186    1
   100    64    65    1
   101    54    53    1
   102    54    57    1
   103   120   119   ar
   104   115   114    1
   105   115   117   ar
   106   114   111    1
   107    70    69   ar
   108     3     9   am
   109     3     4    2
   110   186   185    1
   111   119   117   ar
   112     9    10    1
   113    65    66    1
   114    65    68    1
   115   139   138   ar
   116    69    71   ar
   117    69    68    1
   118   185   182    1
   119   135   134    2
   120   111   110    1
   121   111   112    1
   122    12    11    2
   123   180   178   am
   124    66    67    2
   125   136   133    1
   126   136   137    1
   127   182   181    1
   128   182   183    1
   129   138   140   ar
   130   138   137    1
   131    14    13    1
   132    10    11    1
   133    10    13    1
   134   134   133    1
   135    11    16   am
   136   178   177    1
   137   178   179    2
   138   112   121   am
   139   112   113    2
   140   132   133    1
   141   132   130   am
   142   177   174    1
   143    13    15    1
   144   121   122    1
   145   124   123    2
   146   129   130    1
   147   129   128    1
   148   183   184    2
   149   183   192   am
   150   130   131    2
   151   123   128   am
   152   123   122    1
   153    16    17    1
   154    16    22    1
   155    29    31   ar
   156    29    28   ar
   157    17    18    1
   158    17    20    1
   159   174   175    1
   160   174   173    1
   161   200   198   am
   162   122   125    1
   163   175   176    2
   164    31    32   ar
   165   192   193    1
   166    18    19    2
   167    18    23   am
   168    27    28    1
   169    27    24    1
   170    28    30   ar
   171    23    24    1
   172   168   167    2
   173    22    21    1
   174    20    21    1
   175   173   167   am
   176    24    25    1
   177   170   172    1
   178   170   169    1
   179   171   169    1
   180   125   126    1
   181   125   127    1
   182   198   197    1
   183   198   199    2
   184   167   166    1
   185    32    30   ar
   186    32    34   ar
   187   193   196    1
   188   193   194    1
   189   197   196    1
   190    30    33   ar
   191   169   166    1
   192    34    36   ar
   193   194   195    2
   194   166   165    1
   195    25    26    2
   196    33    35   ar
   197    36    35   ar
   198   208   210   ar
   199   208   206   ar
   200   210   211   ar
   201   205   206    1
   202   205   202    1
   203   206   207   ar
   204   211   209   ar
   205   207   209   ar
   206   204   203    2
   207   201   202    1
   208   202   203    1
