@<TRIPOS>MOLECULE
tmp/5ekdB01.pdb
 194 185 0 0 0
SMALL
GASTEIGER

@<TRIPOS>ATOM
      1  N         35.2930   24.7330   50.6260 N.3    11  SER11      -0.1202
      2  CA        34.7480   25.5550   51.6510 C.3    11  SER11       0.2020
      3  C         34.9620   27.0400   51.3870 C.2    11  SER11       0.2619
      4  O         35.8500   27.3860   50.7320 O.2    11  SER11      -0.2717
      5  CB        35.3030   25.1600   52.9970 C.3    11  SER11       0.2103
      6  OG        34.4820   25.5140   54.0100 O.3    11  SER11      -0.2182
      7  N         34.1060   27.8720   51.9230 N.am   12  GLY12      -0.1942
      8  CA        34.2090   29.2850   51.7390 C.3    12  GLY12       0.2014
      9  C         34.0400   30.1030   52.9930 C.2    12  GLY12       0.2639
     10  O         33.4200   29.6640   53.8770 O.2    12  GLY12      -0.2714
     11  N         34.6630   31.2690   53.0180 N.am   13  ILE13      -0.1963
     12  CA        34.5230   32.2110   54.0700 C.3    13  ILE13       0.1727
     13  C         34.4180   33.6270   53.5260 C.2    13  ILE13       0.2616
     14  O         35.0790   33.9810   52.6460 O.2    13  ILE13      -0.2715
     15  CB        35.6930   32.1280   55.0720 C.3    13  ILE13       0.0290
     16  CG1       35.4470   33.0150   56.2990 C.3    13  ILE13       0.0022
     17  CG2       36.9930   32.4390   54.3860 C.3    13  ILE13       0.0023
     18  CD1       36.2330   32.6180   57.4970 C.3    13  ILE13       0.0001
     19  N         33.5190   34.3780   54.1050 N.am   14  GLN14      -0.1977
     20  CA        33.3430   35.7680   53.7990 C.3    14  GLN14       0.1601
     21  C         34.4960   36.6100   54.2900 C.2    14  GLN14       0.2287
     22  O         34.9170   36.5280   55.3690 O.2    14  GLN14      -0.2864
     23  CB        32.0410   36.2960   54.3810 C.3    14  GLN14       0.0394
     24  CG        30.7870   35.6030   53.9390 C.3    14  GLN14       0.0908
     25  CD        29.5630   36.3100   54.3930 C.2    14  GLN14       0.2608
     26  OE1       29.1410   37.2460   53.7930 O.2    14  GLN14      -0.2717
     27  NE2       29.0200   35.8670   55.4620 N.am   14  GLN14      -0.0878
     28  N         34.6300   39.7500   54.9280 N.3    16  THR16      -0.1218
     29  CA        34.2000   40.7680   55.8290 C.3    16  THR16       0.1862
     30  C         34.2040   40.3440   57.2930 C.2    16  THR16       0.2287
     31  O         33.9110   39.2440   57.6110 O.2    16  THR16      -0.2866
     32  CB        32.8150   41.3220   55.4300 C.3    16  THR16       0.1770
     33  OG1       31.9280   40.2730   55.1110 O.3    16  THR16      -0.2211
     34  CG2       32.9490   42.1560   54.2650 C.3    16  THR16       0.0375
     35  N         37.0910   34.9240   64.0350 N.3    20  HIS20      -0.1241
     36  CA        36.8720   34.7130   65.4250 C.3    20  HIS20       0.1621
     37  C         36.8800   33.2490   65.7940 C.2    20  HIS20       0.2264
     38  O         37.0290   32.4100   64.9800 O.2    20  HIS20      -0.2867
     39  CB        35.6250   35.4180   65.8650 C.3    20  HIS20       0.0745
     40  CG        34.3600   34.8860   65.2730 C.ar   20  HIS20       0.0817
     41  ND1       33.8570   33.7610   65.6320 N.ar   20  HIS20      -0.2268
     42  CD2       33.4910   35.4250   64.3870 C.ar   20  HIS20       0.1154
     43  CE1       32.7510   33.5300   64.9890 C.ar   20  HIS20       0.1986
     44  NE2       32.5180   34.5620   64.2230 N.ar   20  HIS20      -0.2212
     45  N         34.7660   31.0380   66.7540 N.3    22  GLY22      -0.1210
     46  CA        33.7950   30.2090   66.0930 C.3    22  GLY22       0.1956
     47  C         34.1250   29.8340   64.6490 C.2    22  GLY22       0.2611
     48  O         34.0090   28.7350   64.3060 O.2    22  GLY22      -0.2717
     49  N         34.6050   30.7620   63.8460 N.am   23  ASN23      -0.1974
     50  CA        35.0790   30.4530   62.5160 C.3    23  ASN23       0.1688
     51  C         36.2450   29.4590   62.5460 C.2    23  ASN23       0.2292
     52  O         36.3520   28.5800   61.7170 O.2    23  ASN23      -0.2864
     53  CB        35.5550   31.7060   61.7820 C.3    23  ASN23       0.1181
     54  CG        34.5440   32.8220   61.7510 C.2    23  ASN23       0.2629
     55  OD1       34.8440   33.9060   62.1050 O.2    23  ASN23      -0.2716
     56  ND2       33.3370   32.5250   61.3440 N.am   23  ASN23      -0.0877
     57  N         35.0250   25.9980   64.2330 N.3    26  GLY26      -0.1210
     58  CA        34.0260   25.4500   63.3690 C.3    26  GLY26       0.1956
     59  C         34.4830   24.9480   62.0380 C.2    26  GLY26       0.2611
     60  O         34.0030   24.0070   61.5520 O.2    26  GLY26      -0.2717
     61  N         35.3810   25.6920   61.4400 N.am   27  ALA27      -0.1979
     62  CA        35.7940   25.4970   60.0780 C.3    27  ALA27       0.1597
     63  C         37.2720   25.5800   59.7710 C.2    27  ALA27       0.2287
     64  O         37.7960   24.7000   59.2290 O.2    27  ALA27      -0.2864
     65  CB        35.0510   26.4670   59.2000 C.3    27  ALA27       0.0319
     66  N         40.1280   23.0770   57.8850 N.3    31  TRP31      -0.1241
     67  CA        40.6340   23.2870   56.5670 C.3    31  TRP31       0.1605
     68  C         42.0780   23.0020   56.4940 C.2    31  TRP31       0.2264
     69  O         42.5580   22.3990   55.5780 O.2    31  TRP31      -0.2867
     70  CB        40.4810   24.7230   56.1610 C.3    31  TRP31       0.0550
     71  CG        39.1160   25.2680   55.9580 C.ar   31  TRP31       0.0003
     72  CD1       37.9110   24.7300   56.2650 C.ar   31  TRP31       0.0946
     73  CD2       38.8190   26.5200   55.3760 C.ar   31  TRP31       0.0152
     74  NE1       36.9220   25.5480   55.9290 N.ar   31  TRP31      -0.2442
     75  CE2       37.4020   26.6340   55.3800 C.ar   31  TRP31       0.0810
     76  CE3       39.5640   27.5120   54.8400 C.ar   31  TRP31       0.0012
     77  CZ2       36.7910   27.7210   54.9060 C.ar   31  TRP31       0.0191
     78  CZ3       38.9390   28.5830   54.3400 C.ar   31  TRP31       0.0001
     79  CH2       37.5900   28.6940   54.3810 C.ar   31  TRP31       0.0015
     80  N         18.3220   31.1230   58.1700 N.3   113  GLN113     -0.1245
     81  CA        19.1740   32.2710   58.0410 C.3   113  GLN113      0.1566
     82  C         18.4800   33.4670   57.4630 C.2   113  GLN113      0.2260
     83  O         18.6430   34.5190   57.9230 O.2   113  GLN113     -0.2867
     84  CB        20.4320   31.9420   57.2730 C.3   113  GLN113      0.0367
     85  CG        21.4140   31.0500   57.9980 C.3   113  GLN113      0.0905
     86  CD        21.9510   31.6230   59.3040 C.2   113  GLN113      0.2608
     87  OE1       21.4770   31.3060   60.3670 O.2   113  GLN113     -0.2717
     88  NE2       22.9340   32.4360   59.2070 N.am  113  GLN113     -0.0878
     89  N         17.9080   37.0000   59.6120 N.3   117  LYS117     -0.1245
     90  CA        18.3690   38.3030   59.1320 C.3   117  LYS117      0.1561
     91  C         17.2140   39.2470   58.8360 C.2   117  LYS117      0.2260
     92  O         17.3280   40.4180   59.0200 O.2   117  LYS117     -0.2867
     93  CB        19.3200   38.2050   57.9260 C.3   117  LYS117      0.0271
     94  CG        20.3190   37.0570   57.8520 C.3   117  LYS117      0.0035
     95  CD        20.2890   36.1900   56.5130 C.3   117  LYS117      0.0206
     96  CE        21.5550   35.4570   56.2270 C.3   117  LYS117      0.1093
     97  NZ        22.8060   36.1060   56.7110 N.3   117  LYS117     -0.1314
     98  N         33.3310   21.4190   54.6740 N.2   144  PRO144     -0.2571
     99  CA        33.4260   21.8290   56.0680 C.3   144  PRO144      0.2026
    100  C         32.7610   23.1510   56.3140 C.2   144  PRO144      0.2683
    101  O         33.0850   24.1110   55.7070 O.2   144  PRO144     -0.2709
    102  CB        34.9170   21.9130   56.3250 C.2   144  PRO144      0.0085
    103  CG        35.6000   21.6640   55.0810 C.2   144  PRO144      0.0180
    104  CD        34.6370   21.3780   54.0180 C.2   144  PRO144      0.0938
    105  N         31.8160   23.1090   57.2220 N.am  145  VAL145     -0.1959
    106  CA        31.0110   24.2110   57.6330 C.3   145  VAL145      0.1727
    107  C         30.6470   24.1150   59.1200 C.2   145  VAL145      0.2616
    108  O         30.6590   23.0990   59.7020 O.2   145  VAL145     -0.2715
    109  CB        29.7020   24.2800   56.8300 C.3   145  VAL145      0.0290
    110  CG1       29.9440   24.5680   55.3950 C.3   145  VAL145      0.0023
    111  CG2       28.9130   23.0370   56.9790 C.3   145  VAL145      0.0023
    112  N         30.3050   25.2410   59.6930 N.am  146  GLY146     -0.1955
    113  CA        29.5960   25.3000   60.9380 C.3   146  GLY146      0.1869
    114  C         28.1270   24.8860   60.8890 C.2   146  GLY146      0.2309
    115  O         27.5570   24.7570   59.8570 O.2   146  GLY146     -0.2863
    116  N         25.3650   26.3580   61.5090 N.3   148  ASP148     -0.1225
    117  CA        24.4460   27.3400   60.9920 C.3   148  ASP148      0.1805
    118  C         24.1860   27.1650   59.4850 C.2   148  ASP148      0.2597
    119  O         23.2410   27.6640   58.9900 O.2   148  ASP148     -0.2718
    120  CB        24.9100   28.7510   61.2890 C.3   148  ASP148      0.1424
    121  CG        26.2400   29.0910   60.6820 C.2   148  ASP148      0.3668
    122  OD1       27.2560   28.6350   61.1350 O.co2 148  ASP148     -0.2456
    123  OD2       26.2340   29.8400   59.7430 O.co2 148  ASP148     -0.2456
    124  N         25.1080   26.4930   58.8230 N.am  149  GLN149     -0.1979
    125  CA        25.0220   26.1920   57.4130 C.3   149  GLN149      0.1601
    126  C         24.5290   24.7960   57.0530 C.2   149  GLN149      0.2287
    127  O         24.4840   24.4580   55.9360 O.2   149  GLN149     -0.2864
    128  CB        26.3370   26.4650   56.7170 C.3   149  GLN149      0.0394
    129  CG        26.7830   27.8880   56.7670 C.3   149  GLN149      0.0908
    130  CD        25.8410   28.8620   56.0950 C.2   149  GLN149      0.2608
    131  OE1       25.6210   28.7920   54.9480 O.2   149  GLN149     -0.2717
    132  NE2       25.3650   29.7680   56.8210 N.am  149  GLN149     -0.0878
    133  N         33.0930   21.6360   67.5750 N.3   181  MET181     -0.1230
    134  CA        32.8340   23.0310   67.7910 C.3   181  MET181      0.1702
    135  C         32.0270   23.6870   66.6510 C.2   181  MET181      0.2592
    136  O         32.2980   24.7690   66.2530 O.2   181  MET181     -0.2718
    137  CB        34.1280   23.7490   67.9680 C.3   181  MET181      0.0401
    138  CG        34.9850   23.2730   69.0800 C.3   181  MET181      0.0596
    139  SD        34.0820   23.1520   70.5630 S.3   181  MET181     -0.1393
    140  CE        33.8300   24.8190   70.9890 C.3   181  MET181      0.0692
    141  N         31.0200   22.9870   66.1880 N.am  182  LYS182     -0.1980
    142  CA        30.1960   23.4350   65.0890 C.3   182  LYS182      0.1596
    143  C         29.3770   24.6810   65.3950 C.2   182  LYS182      0.2287
    144  O         28.9820   25.3770   64.4970 O.2   182  LYS182     -0.2864
    145  CB        29.3310   22.3060   64.5700 C.3   182  LYS182      0.0298
    146  CG        28.2550   21.8590   65.4930 C.3   182  LYS182      0.0038
    147  CD        27.5190   20.6880   64.9240 C.3   182  LYS182      0.0206
    148  CE        26.5790   20.0610   65.8610 C.3   182  LYS182      0.1093
    149  NZ        26.0900   18.7600   65.4150 N.3   182  LYS182     -0.1314
    150  N         30.1980   27.3750   68.2350 N.3   184  VAL184     -0.1245
    151  CA        30.8000   28.1030   69.3180 C.3   184  VAL184      0.1561
    152  C         29.8630   29.2000   69.7040 C.2   184  VAL184      0.2260
    153  O         29.4170   29.9190   68.8740 O.2   184  VAL184     -0.2867
    154  CB        32.1790   28.6630   68.9450 C.3   184  VAL184      0.0252
    155  CG1       32.7190   29.5400   70.0310 C.3   184  VAL184      0.0019
    156  CG2       33.1650   27.5790   68.6150 C.3   184  VAL184      0.0019
    157  N         25.1820   31.8390   68.5280 N.3   193  LYS193     -0.1231
    158  CA        26.4920   31.5720   68.0550 C.3   193  LYS193      0.1693
    159  C         27.3190   32.8200   68.0440 C.2   193  LYS193      0.2592
    160  O         26.8250   33.8640   67.9630 O.2   193  LYS193     -0.2718
    161  CB        26.5260   30.9370   66.6840 C.3   193  LYS193      0.0285
    162  CG        26.3200   31.8930   65.5360 C.3   193  LYS193      0.0035
    163  CD        26.4750   31.1920   64.2100 C.3   193  LYS193      0.0206
    164  CE        26.5770   32.1360   63.0450 C.3   193  LYS193      0.1093
    165  NZ        27.7280   33.0160   63.0730 N.3   193  LYS193     -0.1314
    166  N         28.6060   32.6300   68.1100 N.am  194  MET194     -0.1965
    167  CA        29.5470   33.7030   67.9860 C.3   194  MET194      0.1736
    168  C         29.5840   34.1010   66.4930 C.2   194  MET194      0.2617
    169  O         29.6670   33.2650   65.6680 O.2   194  MET194     -0.2715
    170  CB        30.9160   33.2550   68.4530 C.3   194  MET194      0.0427
    171  CG        31.9340   34.3300   68.6380 C.3   194  MET194      0.0599
    172  SD        33.4910   33.7290   69.2630 S.3   194  MET194     -0.1393
    173  CE        33.0880   33.4900   70.9580 C.3   194  MET194      0.0692
    174  N         29.5110   35.3950   66.2260 N.am  195  SER195     -0.1936
    175  CA        29.4280   35.9280   64.8650 C.3   195  SER195      0.2055
    176  C         30.2620   37.1540   64.5510 C.2   195  SER195      0.2643
    177  O         30.3620   38.0180   65.3410 O.2   195  SER195     -0.2714
    178  CB        27.9900   36.2870   64.5800 C.3   195  SER195      0.2130
    179  OG        27.1660   35.1940   64.6040 O.3   195  SER195     -0.2179
    180  N         30.7860   37.2250   63.3490 N.am  196  LYS196     -0.1963
    181  CA        31.5620   38.3700   62.9070 C.3   196  LYS196      0.1728
    182  C         30.7030   39.6060   62.9580 C.2   196  LYS196      0.2616
    183  O         31.1790   40.6600   63.2500 O.2   196  LYS196     -0.2715
    184  CB        32.1680   38.1820   61.5400 C.3   196  LYS196      0.0311
    185  CG        33.3640   37.2870   61.5040 C.3   196  LYS196      0.0038
    186  CD        33.9650   37.1200   60.1430 C.3   196  LYS196      0.0206
    187  CE        33.2470   36.0950   59.3340 C.3   196  LYS196      0.1093
    188  NZ        33.6440   36.1700   57.9570 N.3   196  LYS196     -0.1314
    189  N         29.4220   39.4330   62.7230 N.am  197  SER197     -0.1950
    190  CA        28.4900   40.5130   62.5990 C.3   197  SER197      0.1924
    191  C         27.8910   40.9400   63.9170 C.2   197  SER197      0.2314
    192  O         27.1020   41.8410   63.9710 O.2   197  SER197     -0.2863
    193  CB        27.3880   40.1440   61.6070 C.3   197  SER197      0.2116
    194  OG        26.6760   39.0330   62.0080 O.3   197  SER197     -0.2180
@<TRIPOS>BOND
     1     1     2    1
     2     4     3    2
     3     3     2    1
     4     3     7   am
     5     2     5    1
     6     8     7    1
     7     8     9    1
     8    14    13    2
     9     9    11   am
    10     9    10    2
    11     5     6    1
    12    11    12    1
    13    13    12    1
    14    13    19   am
    15    26    25    2
    16    20    19    1
    17    20    21    1
    18    20    23    1
    19    24    23    1
    20    24    25    1
    21   104    98    2
    22   104   103    1
    23    12    15    1
    24    34    32    1
    25    21    22    2
    26    78    79   ar
    27    78    76   ar
    28    79    77   ar
    29    17    15    1
    30    25    27   am
    31    98    99    1
    32    76    73   ar
    33    77    75   ar
    34    28    29    1
    35   131   130    2
    36    15    16    1
    37   103   102    2
    38    33    32    1
    39    73    75   ar
    40    73    71   ar
    41    75    74   ar
    42   110   109    1
    43    32    29    1
    44    69    68    2
    45   101   100    2
    46    29    30    1
    47    74    72   ar
    48   127   126    2
    49    71    70    1
    50    71    72   ar
    51    99   100    1
    52    99   102    1
    53   130   129    1
    54   130   132   am
    55    70    67    1
    56    96    95    1
    57    96    97    1
    58    16    18    1
    59   100   105   am
    60    68    67    1
    61    95    94    1
    62    67    66    1
    63   128   129    1
    64   128   125    1
    65   109   111    1
    66   109   106    1
    67   126   125    1
    68   105   106    1
    69    84    85    1
    70    84    81    1
    71    30    31    2
    72   125   124    1
    73    82    83    2
    74    82    81    1
    75   106   107    1
    76    94    93    1
    77    93    90    1
    78   188   187    1
    79    85    86    1
    80    81    80    1
    81   124   118   am
    82    91    92    2
    83    91    90    1
    84   119   118    2
    85   107   112   am
    86   107   108    2
    87    90    89    1
    88    65    62    1
    89    88    86   am
    90    64    63    2
    91    86    87    2
    92   187   186    1
    93   118   117    1
    94   112   113    1
    95   123   121   ar
    96    63    62    1
    97   115   114    2
    98    62    61    1
    99   186   185    1
   100   121   122   ar
   101   121   120    1
   102   114   113    1
   103   117   120    1
   104   117   116    1
   105    56    54   am
   106    61    59   am
   107   185   184    1
   108   184   181    1
   109    60    59    2
   110   193   194    1
   111   193   190    1
   112    52    51    2
   113    54    53    1
   114    54    55    2
   115    53    50    1
   116    59    58    1
   117    50    51    1
   118    50    49    1
   119   190   189    1
   120   190   191    1
   121   189   182   am
   122   181   182    1
   123   181   180    1
   124   182   183    2
   125   164   165    1
   126   164   163    1
   127   180   176   am
   128    58    57    1
   129    49    47   am
   130   191   192    2
   131    35    36    1
   132   163   162    1
   133    44    42   ar
   134    44    43   ar
   135    48    47    2
   136    42    40   ar
   137   144   143    2
   138   176   175    1
   139   176   177    2
   140   145   142    1
   141   145   146    1
   142   178   179    1
   143   178   175    1
   144    47    46    1
   145   175   174    1
   146   147   146    1
   147   147   148    1
   148    38    37    2
   149    43    41   ar
   150   142   143    1
   151   142   141    1
   152    40    41   ar
   153    40    39    1
   154   149   148    1
   155    36    37    1
   156    36    39    1
   157   162   161    1
   158   169   168    2
   159    46    45    1
   160   141   135   am
   161   174   168   am
   162   136   135    2
   163   168   167    1
   164   135   134    1
   165   161   158    1
   166   133   134    1
   167   134   137    1
   168   160   159    2
   169   137   138    1
   170   167   166    1
   171   167   170    1
   172   159   158    1
   173   159   166   am
   174   158   157    1
   175   150   151    1
   176   170   171    1
   177   156   154    1
   178   171   172    1
   179   153   152    2
   180   154   151    1
   181   154   155    1
   182   138   139    1
   183   172   173    1
   184   151   152    1
   185   139   140    1
