@<TRIPOS>MOLECULE
tmp/5ekdB00.pdb
 147 138 0 0 0
SMALL
GASTEIGER

@<TRIPOS>ATOM
      1  N         35.6310   21.4430   49.3930 N.3    10  PHE10      -0.1227
      2  CA        35.3200   22.8420   49.1260 C.3    10  PHE10       0.1736
      3  C         34.8220   23.5390   50.3700 C.2    10  PHE10       0.2596
      4  O         34.0370   23.0260   51.0420 O.2    10  PHE10      -0.2718
      5  CB        34.2920   23.0460   47.9930 C.3    10  PHE10       0.0547
      6  CG        34.2480   24.4510   47.4880 C.ar   10  PHE10      -0.0202
      7  CD1       33.5450   25.3940   48.1360 C.ar   10  PHE10      -0.0042
      8  CD2       34.9750   24.8290   46.3900 C.ar   10  PHE10      -0.0042
      9  CE1       33.5450   26.6770   47.6950 C.ar   10  PHE10      -0.0003
     10  CE2       34.9680   26.1060   45.9590 C.ar   10  PHE10      -0.0003
     11  CZ        34.2530   27.0280   46.6220 C.ar   10  PHE10      -0.0000
     12  N         35.2930   24.7330   50.6260 N.am   11  SER11      -0.1938
     13  CA        34.7480   25.5550   51.6510 C.3    11  SER11       0.2055
     14  C         34.9620   27.0400   51.3870 C.2    11  SER11       0.2644
     15  O         35.8500   27.3860   50.7320 O.2    11  SER11      -0.2714
     16  CB        35.3030   25.1600   52.9970 C.3    11  SER11       0.2130
     17  OG        34.4820   25.5140   54.0100 O.3    11  SER11      -0.2179
     18  N         34.1060   27.8720   51.9230 N.am   12  GLY12      -0.1939
     19  CA        34.2090   29.2850   51.7390 C.3    12  GLY12       0.2014
     20  C         34.0400   30.1030   52.9930 C.2    12  GLY12       0.2639
     21  O         33.4200   29.6640   53.8770 O.2    12  GLY12      -0.2714
     22  N         34.6630   31.2690   53.0180 N.am   13  ILE13      -0.1963
     23  CA        34.5230   32.2110   54.0700 C.3    13  ILE13       0.1727
     24  C         34.4180   33.6270   53.5260 C.2    13  ILE13       0.2616
     25  O         35.0790   33.9810   52.6460 O.2    13  ILE13      -0.2715
     26  CB        35.6930   32.1280   55.0720 C.3    13  ILE13       0.0290
     27  CG1       35.4470   33.0150   56.2990 C.3    13  ILE13       0.0022
     28  CG2       36.9930   32.4390   54.3860 C.3    13  ILE13       0.0023
     29  CD1       36.2330   32.6180   57.4970 C.3    13  ILE13       0.0001
     30  N         33.5190   34.3780   54.1050 N.am   14  GLN14      -0.1977
     31  CA        33.3430   35.7680   53.7990 C.3    14  GLN14       0.1601
     32  C         34.4960   36.6100   54.2900 C.2    14  GLN14       0.2287
     33  O         34.9170   36.5280   55.3690 O.2    14  GLN14      -0.2864
     34  CB        32.0410   36.2960   54.3810 C.3    14  GLN14       0.0394
     35  CG        30.7870   35.6030   53.9390 C.3    14  GLN14       0.0908
     36  CD        29.5630   36.3100   54.3930 C.2    14  GLN14       0.2608
     37  OE1       29.1410   37.2460   53.7930 O.2    14  GLN14      -0.2717
     38  NE2       29.0200   35.8670   55.4620 N.am   14  GLN14      -0.0878
     39  N         34.8580   34.2680   49.6270 N.3    46  VAL46      -0.1245
     40  CA        33.5920   34.4510   48.9380 C.3    46  VAL46       0.1561
     41  C         33.0630   35.8860   49.0240 C.2    46  VAL46       0.2260
     42  O         32.1490   36.1420   49.6690 O.2    46  VAL46      -0.2867
     43  CB        32.5420   33.4030   49.3550 C.3    46  VAL46       0.0252
     44  CG1       32.9250   32.0500   48.9060 C.3    46  VAL46       0.0019
     45  CG2       32.3110   33.3710   50.8070 C.3    46  VAL46       0.0019
     46  N         29.3980   36.7040   48.2840 N.3    49  HIS49      -0.1241
     47  CA        28.5770   36.5580   49.4400 C.3    49  HIS49       0.1621
     48  C         28.5850   37.7150   50.3840 C.2    49  HIS49       0.2264
     49  O         27.6190   38.0020   50.9730 O.2    49  HIS49      -0.2867
     50  CB        28.8760   35.3130   50.1940 C.3    49  HIS49       0.0745
     51  CG        28.4410   34.0790   49.5250 C.ar   49  HIS49       0.0817
     52  ND1       27.2750   33.5610   49.7070 N.ar   49  HIS49      -0.2268
     53  CD2       29.0780   33.2770   48.6650 C.ar   49  HIS49       0.1154
     54  CE1       27.1700   32.4840   49.0110 C.ar   49  HIS49       0.1986
     55  NE2       28.2780   32.3060   48.3800 N.ar   49  HIS49      -0.2212
     56  N         25.9800   40.7130   50.0260 N.3    52  THR52      -0.1218
     57  CA        24.6070   40.5220   50.3660 C.3    52  THR52       0.1862
     58  C         24.2380   41.4800   51.4910 C.2    52  THR52       0.2287
     59  O         23.1340   41.6380   51.7890 O.2    52  THR52      -0.2866
     60  CB        24.2200   39.0680   50.7180 C.3    52  THR52       0.1770
     61  OG1       24.8660   38.6250   51.8910 O.3    52  THR52      -0.2211
     62  CG2       24.5290   38.1380   49.6110 C.3    52  THR52       0.0375
     63  N         17.9080   37.0000   59.6120 N.3   117  LYS117     -0.1245
     64  CA        18.3690   38.3030   59.1320 C.3   117  LYS117      0.1561
     65  C         17.2140   39.2470   58.8360 C.2   117  LYS117      0.2260
     66  O         17.3280   40.4180   59.0200 O.2   117  LYS117     -0.2867
     67  CB        19.3200   38.2050   57.9260 C.3   117  LYS117      0.0271
     68  CG        20.3190   37.0570   57.8520 C.3   117  LYS117      0.0035
     69  CD        20.2890   36.1900   56.5130 C.3   117  LYS117      0.0206
     70  CE        21.5550   35.4570   56.2270 C.3   117  LYS117      0.1093
     71  NZ        22.8060   36.1060   56.7110 N.3   117  LYS117     -0.1314
     72  N         20.5200   38.2640   49.2490 N.3   124  LEU124     -0.1245
     73  CA        20.5210   37.5970   50.5200 C.3   124  LEU124      0.1561
     74  C         19.6600   36.3470   50.5010 C.2   124  LEU124      0.2260
     75  O         20.0450   35.3370   50.9330 O.2   124  LEU124     -0.2867
     76  CB        20.0920   38.5140   51.6220 C.3   124  LEU124      0.0270
     77  CG        20.1570   37.9940   53.0510 C.3   124  LEU124      0.0019
     78  CD1       21.5720   37.8350   53.4690 C.3   124  LEU124      0.0001
     79  CD2       19.4480   38.8870   54.0210 C.3   124  LEU124      0.0001
     80  N         21.5470   33.5400   48.4210 N.3   127  TYR127     -0.1241
     81  CA        22.9140   33.1390   48.7010 C.3   127  TYR127      0.1605
     82  C         23.1040   31.6420   48.8210 C.2   127  TYR127      0.2264
     83  O         24.0690   31.1210   48.3950 O.2   127  TYR127     -0.2867
     84  CB        23.4740   33.9290   49.8990 C.3   127  TYR127      0.0534
     85  CG        23.5060   33.3690   51.3050 C.ar  127  TYR127     -0.0201
     86  CD1       24.1960   32.2270   51.6050 C.ar  127  TYR127     -0.0009
     87  CD2       22.9320   34.0470   52.3460 C.ar  127  TYR127     -0.0009
     88  CE1       24.2670   31.7840   52.9000 C.ar  127  TYR127      0.0417
     89  CE2       22.9750   33.5700   53.6140 C.ar  127  TYR127      0.0417
     90  CZ        23.6620   32.4370   53.8800 C.ar  127  TYR127      0.1957
     91  OH        23.7800   31.9190   55.0970 O.3   127  TYR127     -0.2866
     92  N         25.7590   29.3580   47.0310 N.3   131  GLN131     -0.1245
     93  CA        26.5660   28.4570   47.8630 C.3   131  GLN131      0.1566
     94  C         26.6120   27.0680   47.2620 C.2   131  GLN131      0.2260
     95  O         27.6080   26.4780   47.1620 O.2   131  GLN131     -0.2867
     96  CB        25.9870   28.4200   49.2640 C.3   131  GLN131      0.0367
     97  CG        26.7530   27.6830   50.2880 C.3   131  GLN131      0.0905
     98  CD        26.1450   27.7450   51.6650 C.2   131  GLN131      0.2608
     99  OE1       25.0060   28.0120   51.8500 O.2   131  GLN131     -0.2717
    100  NE2       26.9490   27.4390   52.6350 N.am  131  GLN131     -0.0878
    101  N         28.7830   27.2400   44.2510 N.3   134  ASP134     -0.1225
    102  CA        30.1700   27.3400   44.6510 C.3   134  ASP134      0.1805
    103  C         30.7260   25.9290   44.8530 C.2   134  ASP134      0.2597
    104  O         31.7880   25.6470   44.4350 O.2   134  ASP134     -0.2718
    105  CB        30.2790   28.0590   46.0100 C.3   134  ASP134      0.1424
    106  CG        29.9290   29.5680   45.9720 C.2   134  ASP134      0.3668
    107  OD1       29.9990   30.1790   44.9220 O.co2 134  ASP134     -0.2456
    108  OD2       29.6280   30.1030   47.0300 O.co2 134  ASP134     -0.2456
    109  N         29.9810   25.1100   45.5560 N.am  135  ILE135     -0.1980
    110  CA        30.3410   23.7430   45.8420 C.3   135  ILE135      0.1595
    111  C         30.2810   22.7910   44.6500 C.2   135  ILE135      0.2287
    112  O         31.1710   22.0840   44.3920 O.2   135  ILE135     -0.2864
    113  CB        29.4490   23.1680   46.9620 C.3   135  ILE135      0.0276
    114  CG1       29.6170   23.9150   48.2630 C.3   135  ILE135      0.0022
    115  CG2       29.6490   21.6950   47.2000 C.3   135  ILE135      0.0022
    116  CD1       28.4870   23.7970   49.2150 C.3   135  ILE135      0.0001
    117  N         32.3840   19.2250   52.3800 N.3   143  VAL143     -0.1245
    118  CA        32.2150   20.6210   52.7130 C.3   143  VAL143      0.1561
    119  C         32.2080   20.9070   54.2220 C.2   143  VAL143      0.2260
    120  O         31.2690   20.7430   54.9150 O.2   143  VAL143     -0.2867
    121  CB        30.9370   21.1930   52.0990 C.3   143  VAL143      0.0252
    122  CG1       30.8500   22.6720   52.2940 C.3   143  VAL143      0.0019
    123  CG2       30.8670   20.8130   50.6590 C.3   143  VAL143      0.0019
    124  N         31.8160   23.1090   57.2220 N.3   145  VAL145     -0.1245
    125  CA        31.0110   24.2110   57.6330 C.3   145  VAL145      0.1561
    126  C         30.6470   24.1150   59.1200 C.2   145  VAL145      0.2260
    127  O         30.6590   23.0990   59.7020 O.2   145  VAL145     -0.2867
    128  CB        29.7020   24.2800   56.8300 C.3   145  VAL145      0.0252
    129  CG1       29.9440   24.5680   55.3950 C.3   145  VAL145      0.0019
    130  CG2       28.9130   23.0370   56.9790 C.3   145  VAL145      0.0019
    131  N         25.3650   26.3580   61.5090 N.3   148  ASP148     -0.1225
    132  CA        24.4460   27.3400   60.9920 C.3   148  ASP148      0.1805
    133  C         24.1860   27.1650   59.4850 C.2   148  ASP148      0.2597
    134  O         23.2410   27.6640   58.9900 O.2   148  ASP148     -0.2718
    135  CB        24.9100   28.7510   61.2890 C.3   148  ASP148      0.1424
    136  CG        26.2400   29.0910   60.6820 C.2   148  ASP148      0.3668
    137  OD1       27.2560   28.6350   61.1350 O.co2 148  ASP148     -0.2456
    138  OD2       26.2340   29.8400   59.7430 O.co2 148  ASP148     -0.2456
    139  N         25.1080   26.4930   58.8230 N.am  149  GLN149     -0.1979
    140  CA        25.0220   26.1920   57.4130 C.3   149  GLN149      0.1601
    141  C         24.5290   24.7960   57.0530 C.2   149  GLN149      0.2287
    142  O         24.4840   24.4580   55.9360 O.2   149  GLN149     -0.2864
    143  CB        26.3370   26.4650   56.7170 C.3   149  GLN149      0.0394
    144  CG        26.7830   27.8880   56.7670 C.3   149  GLN149      0.0908
    145  CD        25.8410   28.8620   56.0950 C.2   149  GLN149      0.2608
    146  OE1       25.6210   28.7920   54.9480 O.2   149  GLN149     -0.2717
    147  NE2       25.3650   29.7680   56.8210 N.am  149  GLN149     -0.0878
@<TRIPOS>BOND
     1   101   102    1
     2   112   111    2
     3   104   103    2
     4   111   110    1
     5   102   103    1
     6   102   105    1
     7   103   109   am
     8   107   106   ar
     9   109   110    1
    10   110   113    1
    11    10     8   ar
    12    10    11   ar
    13   106   105    1
    14   106   108   ar
    15     8     6   ar
    16    11     9   ar
    17   113   115    1
    18   113   114    1
    19    92    93    1
    20    95    94    2
    21    94    93    1
    22     6     5    1
    23     6     7   ar
    24     9     7   ar
    25    93    96    1
    26     5     2    1
    27   114   116    1
    28    46    47    1
    29    55    53   ar
    30    55    54   ar
    31    83    82    2
    32    80    81    1
    33    53    51   ar
    34    81    82    1
    35    81    84    1
    36    44    43    1
    37    40    41    1
    38    40    43    1
    39    40    39    1
    40    54    52   ar
    41    41    42    2
    42     2     1    1
    43     2     3    1
    44    72    73    1
    45    96    97    1
    46    43    45    1
    47    47    50    1
    48    47    48    1
    49    51    52   ar
    50    51    50    1
    51    62    60    1
    52    84    85    1
    53    56    57    1
    54    97    98    1
    55    57    60    1
    56    57    58    1
    57     3    12   am
    58     3     4    2
    59    48    49    2
    60    74    73    1
    61    74    75    2
    62    73    76    1
    63    12    13    1
    64   123   121    1
    65    60    61    1
    66    15    14    2
    67    85    86   ar
    68    85    87   ar
    69    14    13    1
    70    14    18   am
    71    58    59    2
    72    86    88   ar
    73    76    77    1
    74    13    16    1
    75    98    99    2
    76    98   100   am
    77    19    18    1
    78    19    20    1
    79   121   122    1
    80   121   118    1
    81    87    89   ar
    82   117   118    1
    83    25    24    2
    84   118   119    1
    85    88    90   ar
    86    20    22   am
    87    20    21    2
    88    16    17    1
    89    22    23    1
    90    77    78    1
    91    77    79    1
    92    24    23    1
    93    24    30   am
    94    89    90   ar
    95    37    36    2
    96    31    30    1
    97    31    32    1
    98    31    34    1
    99    90    91    1
   100    35    34    1
   101    35    36    1
   102    23    26    1
   103   119   120    2
   104    32    33    2
   105    28    26    1
   106    36    38   am
   107   146   145    2
   108    26    27    1
   109   129   128    1
   110   142   141    2
   111   145   144    1
   112   145   147   am
   113    70    69    1
   114    70    71    1
   115    27    29    1
   116    69    68    1
   117   143   144    1
   118   143   140    1
   119   128   130    1
   120   128   125    1
   121   141   140    1
   122   124   125    1
   123   140   139    1
   124   125   126    1
   125    68    67    1
   126    67    64    1
   127   139   133   am
   128    65    66    2
   129    65    64    1
   130   134   133    2
   131   126   127    2
   132    64    63    1
   133   133   132    1
   134   138   136   ar
   135   136   137   ar
   136   136   135    1
   137   132   135    1
   138   132   131    1
