@<TRIPOS>MOLECULE
tmp/5ekgC00.pdb
 197 187 0 0 0
SMALL
GASTEIGER

@<TRIPOS>ATOM
      1  N         42.7880   63.1230   55.4220 N.3   208  THR208     -0.1203
      2  CA        42.7160   61.8720   54.6580 C.3   208  THR208      0.1994
      3  C         43.0490   62.0720   53.1920 C.2   208  THR208      0.2618
      4  O         43.1450   61.1100   52.4350 O.2   208  THR208     -0.2717
      5  CB        41.3300   61.2160   54.7490 C.3   208  THR208      0.1784
      6  OG1       40.3380   62.0970   54.2010 O.3   208  THR208     -0.2211
      7  CG2       40.9940   60.8700   56.1950 C.3   208  THR208      0.0376
      8  N         43.2110   63.3250   52.7910 N.am  209  ASP209     -0.1959
      9  CA        43.7630   63.6360   51.4790 C.3   209  ASP209      0.1840
     10  C         45.2370   63.1660   51.4640 C.2   209  ASP209      0.2623
     11  O         45.9150   63.2330   52.4870 O.2   209  ASP209     -0.2715
     12  CB        43.6380   65.1440   51.2020 C.3   209  ASP209      0.1450
     13  CG        43.8800   65.5020   49.7430 C.2   209  ASP209      0.3671
     14  OD1       44.5310   64.6980   49.0370 O.co2 209  ASP209     -0.2456
     15  OD2       43.4340   66.5930   49.3050 O.co2 209  ASP209     -0.2456
     16  N         45.7280   62.6700   50.3290 N.am  210  GLY210     -0.1940
     17  CA        47.1110   62.2170   50.2310 C.3   210  GLY210      0.1998
     18  C         47.3800   60.7300   50.4460 C.2   210  GLY210      0.2481
     19  O         46.4720   59.9040   50.3630 O.2   210  GLY210     -0.2729
     20  N         48.6410   60.3840   50.7340 N.am  211  PRO211     -0.2715
     21  CA        49.1870   59.0210   50.8880 C.3   211  PRO211      0.1536
     22  C         48.3800   58.0680   51.7840 C.2   211  PRO211      0.2598
     23  O         47.8380   58.4870   52.8030 O.2   211  PRO211     -0.2715
     24  CB        50.5570   59.2790   51.5130 C.3   211  PRO211      0.0310
     25  CG        50.9460   60.6300   50.9750 C.3   211  PRO211      0.0237
     26  CD        49.6690   61.4170   50.9540 C.3   211  PRO211      0.0939
     27  N         48.3380   56.7870   51.4290 N.am  212  ASN212     -0.1973
     28  CA        47.5120   55.8180   52.1700 C.3   212  ASN212      0.1688
     29  C         47.9560   55.6260   53.6310 C.2   212  ASN212      0.2292
     30  O         47.1670   55.2010   54.4850 O.2   212  ASN212     -0.2864
     31  CB        47.4880   54.4570   51.4370 C.3   212  ASN212      0.1181
     32  CG        46.7750   54.5220   50.0570 C.2   212  ASN212      0.2629
     33  OD1       46.2830   55.5770   49.6240 O.2   212  ASN212     -0.2716
     34  ND2       46.7360   53.3870   49.3650 N.am  212  ASN212     -0.0877
     35  N         45.8170   58.0110   55.4970 N.3   215  ILE215     -0.1245
     36  CA        44.4650   57.4610   55.6120 C.3   215  ILE215      0.1561
     37  C         44.3830   56.4760   56.7680 C.2   215  ILE215      0.2260
     38  O         43.4000   56.4560   57.5270 O.2   215  ILE215     -0.2867
     39  CB        44.0120   56.7300   54.3140 C.3   215  ILE215      0.0252
     40  CG1       44.0880   57.6590   53.1070 C.3   215  ILE215      0.0019
     41  CG2       42.5970   56.1760   54.4590 C.3   215  ILE215      0.0019
     42  CD1       43.5650   57.0500   51.8600 C.3   215  ILE215      0.0001
     43  N         33.4330   64.2670   51.2920 N.3   244  ARG244     -0.1245
     44  CA        34.7950   64.3170   50.7650 C.3   244  ARG244      0.1563
     45  C         35.7620   63.4810   51.6030 C.2   244  ARG244      0.2260
     46  O         36.7870   63.0240   51.0890 O.2   244  ARG244     -0.2867
     47  CB        35.3350   65.7340   50.6660 C.3   244  ARG244      0.0307
     48  CG        36.5970   65.7600   49.7950 C.3   244  ARG244      0.0489
     49  CD        37.2820   67.1010   49.7970 C.3   244  ARG244      0.2205
     50  NE        36.3510   68.1230   49.3460 N.pl3 244  ARG244     -0.0865
     51  CZ        36.3520   68.6380   48.1230 C.cat 244  ARG244      0.5346
     52  NH1       37.2660   68.2250   47.2360 N.pl3 244  ARG244      0.1354
     53  NH2       35.4400   69.5650   47.7970 N.pl3 244  ARG244      0.1354
     54  N         37.8300   60.2700   50.1160 N.3   248  ASN248     -0.1240
     55  CA        39.2940   60.2420   50.2210 C.3   248  ASN248      0.1653
     56  C         39.7660   58.8820   50.6930 C.2   248  ASN248      0.2266
     57  O         40.7580   58.3240   50.1930 O.2   248  ASN248     -0.2867
     58  CB        39.8110   61.3180   51.1890 C.3   248  ASN248      0.1155
     59  CG        39.9500   62.6910   50.5310 C.2   248  ASN248      0.2627
     60  OD1       40.1190   62.8020   49.3100 O.2   248  ASN248     -0.2716
     61  ND2       39.8860   63.7410   51.3440 N.am  248  ASN248     -0.0877
     62  N         38.3570   56.0370   50.2860 N.3   250  VAL250     -0.1231
     63  CA        38.2120   54.9430   49.3320 C.3   250  VAL250      0.1692
     64  C         39.1290   55.1410   48.1280 C.2   250  VAL250      0.2593
     65  O         38.9680   54.4710   47.1130 O.2   250  VAL250     -0.2718
     66  CB        36.7420   54.7680   48.8470 C.3   250  VAL250      0.0266
     67  CG1       35.7830   54.6250   50.0330 C.3   250  VAL250      0.0020
     68  CG2       36.3190   55.9120   47.9360 C.3   250  VAL250      0.0020
     69  N         40.0970   56.0430   48.2140 N.am  251  THR251     -0.1939
     70  CA        41.1320   56.0080   47.1890 C.3   251  THR251      0.2028
     71  C         42.2770   55.1520   47.6890 C.2   251  THR251      0.2642
     72  O         43.1600   54.7920   46.9190 O.2   251  THR251     -0.2714
     73  CB        41.6730   57.3910   46.7910 C.3   251  THR251      0.1808
     74  OG1       42.4970   57.9180   47.8370 O.3   251  THR251     -0.2208
     75  CG2       40.5300   58.3260   46.4940 C.3   251  THR251      0.0379
     76  N         42.2500   54.8010   48.9690 N.am  252  GLY252     -0.1954
     77  CA        43.2910   53.9540   49.5360 C.3   252  GLY252      0.1869
     78  C         43.2170   52.4570   49.2340 C.2   252  GLY252      0.2309
     79  O         42.6600   52.0140   48.2220 O.2   252  GLY252     -0.2863
     80  N         42.3630   48.3840   49.4070 N.3   254  ASP254     -0.1239
     81  CA        41.1210   47.6310   49.4140 C.3   254  ASP254      0.1674
     82  C         40.6030   47.4270   50.8300 C.2   254  ASP254      0.2266
     83  O         39.3940   47.4140   51.0610 O.2   254  ASP254     -0.2867
     84  CB        41.3040   46.2650   48.7350 C.3   254  ASP254      0.1410
     85  CG        41.5620   46.3750   47.2270 C.2   254  ASP254      0.3668
     86  OD1       41.4490   47.5030   46.6660 O.co2 254  ASP254     -0.2456
     87  OD2       41.8600   45.3170   46.6050 O.co2 254  ASP254     -0.2456
     88  N         39.0450   50.7530   51.8600 N.3   257  THR257     -0.1218
     89  CA        37.7600   50.8160   51.1530 C.3   257  THR257      0.1862
     90  C         36.6710   49.9720   51.8180 C.2   257  THR257      0.2287
     91  O         35.5380   50.4330   52.0010 O.2   257  THR257     -0.2866
     92  CB        37.9030   50.3460   49.7020 C.3   257  THR257      0.1770
     93  OG1       38.8430   51.1800   49.0260 O.3   257  THR257     -0.2211
     94  CG2       36.5650   50.4000   48.9610 C.3   257  THR257      0.0375
     95  N         32.4390   60.4350   41.8020 N.3   286  TRP286     -0.1241
     96  CA        33.8700   60.2230   41.9580 C.3   286  TRP286      0.1605
     97  C         34.1290   59.1250   42.9850 C.2   286  TRP286      0.2264
     98  O         34.9480   58.2150   42.7420 O.2   286  TRP286     -0.2867
     99  CB        34.5620   61.5190   42.3740 C.3   286  TRP286      0.0550
    100  CG        35.9960   61.3560   42.8200 C.ar  286  TRP286      0.0003
    101  CD1       37.0650   60.9880   42.0520 C.ar  286  TRP286      0.0946
    102  CD2       36.5110   61.5800   44.1410 C.ar  286  TRP286      0.0152
    103  NE1       38.2080   60.9490   42.8190 N.ar  286  TRP286     -0.2442
    104  CE2       37.8940   61.3190   44.1020 C.ar  286  TRP286      0.0810
    105  CE3       35.9300   61.9820   45.3560 C.ar  286  TRP286      0.0012
    106  CZ2       38.7070   61.4420   45.2260 C.ar  286  TRP286      0.0191
    107  CZ3       36.7300   62.1010   46.4690 C.ar  286  TRP286      0.0001
    108  CH2       38.1050   61.8260   46.4000 C.ar  286  TRP286      0.0015
    109  N         33.3970   55.7630   41.4670 N.3   289  SER289     -0.1202
    110  CA        34.4370   55.3170   40.5540 C.3   289  SER289      0.2020
    111  C         35.6200   54.7020   41.3000 C.2   289  SER289      0.2618
    112  O         36.2660   53.8020   40.7910 O.2   289  SER289     -0.2717
    113  CB        34.9180   56.4630   39.6680 C.3   289  SER289      0.2103
    114  OG        35.9620   57.1910   40.2930 O.3   289  SER289     -0.2182
    115  N         35.9030   55.1520   42.5130 N.am  290  ASN290     -0.1974
    116  CA        37.0040   54.5350   43.2340 C.3   290  ASN290      0.1688
    117  C         36.5430   53.3490   44.0470 C.2   290  ASN290      0.2292
    118  O         37.3520   52.6890   44.6870 O.2   290  ASN290     -0.2864
    119  CB        37.7080   55.5430   44.1360 C.3   290  ASN290      0.1181
    120  CG        38.4540   56.5820   43.3480 C.2   290  ASN290      0.2629
    121  OD1       39.0150   56.2860   42.2870 O.2   290  ASN290     -0.2716
    122  ND2       38.4150   57.8240   43.8190 N.am  290  ASN290     -0.0877
    123  N         34.2760   51.1500   42.3270 N.3   292  THR292     -0.1203
    124  CA        34.1820   50.2210   41.2070 C.3   292  THR292      0.1994
    125  C         35.5780   49.9440   40.6770 C.2   292  THR292      0.2618
    126  O         35.7940   49.0310   39.8680 O.2   292  THR292     -0.2717
    127  CB        33.2750   50.7450   40.0660 C.3   292  THR292      0.1784
    128  OG1       33.7690   51.9980   39.5790 O.3   292  THR292     -0.2211
    129  CG2       31.8300   50.8960   40.5480 C.3   292  THR292      0.0376
    130  N         36.5370   50.7220   41.1530 N.am  293  ALA293     -0.1965
    131  CA        37.9230   50.4030   40.8820 C.3   293  ALA293      0.1728
    132  C         38.4880   49.5000   41.9760 C.2   293  ALA293      0.2616
    133  O         39.6730   49.5640   42.2880 O.2   293  ALA293     -0.2715
    134  CB        38.7330   51.6540   40.7620 C.3   293  ALA293      0.0334
    135  N         37.6470   48.6530   42.5560 N.am  294  GLY294     -0.1955
    136  CA        38.1100   47.7460   43.5910 C.3   294  GLY294      0.1869
    137  C         37.9570   46.2600   43.2820 C.2   294  GLY294      0.2309
    138  O         37.8420   45.8370   42.1210 O.2   294  GLY294     -0.2863
    139  N         33.7890   43.7060   46.0180 N.3   298  GLN298     -0.1245
    140  CA        33.3760   45.0610   46.3700 C.3   298  GLN298      0.1566
    141  C         32.5050   45.6780   45.2840 C.2   298  GLN298      0.2260
    142  O         31.5450   46.3980   45.5770 O.2   298  GLN298     -0.2867
    143  CB        34.6130   45.9240   46.6460 C.3   298  GLN298      0.0367
    144  CG        35.4590   45.3750   47.8030 C.3   298  GLN298      0.0905
    145  CD        36.6770   46.2410   48.1450 C.2   298  GLN298      0.2608
    146  OE1       37.2180   46.9590   47.2930 O.2   298  GLN298     -0.2717
    147  NE2       37.1160   46.1650   49.4020 N.am  298  GLN298     -0.0878
    148  N         31.7680   63.0150   33.5000 N.3   324  LYS324     -0.1231
    149  CA        33.1750   62.6280   33.3440 C.3   324  LYS324      0.1693
    150  C         33.5760   61.6140   34.4360 C.2   324  LYS324      0.2591
    151  O         34.3190   60.6480   34.1880 O.2   324  LYS324     -0.2718
    152  CB        34.0930   63.8650   33.3720 C.3   324  LYS324      0.0285
    153  CG        35.4880   63.5600   32.8610 C.3   324  LYS324      0.0035
    154  CD        36.3040   64.8390   32.7560 C.3   324  LYS324      0.0206
    155  CE        37.6820   64.5170   32.2030 C.3   324  LYS324      0.1093
    156  NZ        38.3860   63.6110   33.0870 N.3   324  LYS324     -0.1314
    157  N         33.0550   61.8170   35.6410 N.am  325  GLU325     -0.1979
    158  CA        33.3540   60.9090   36.7390 C.3   325  GLU325      0.1602
    159  C         32.5980   59.6050   36.5750 C.2   325  GLU325      0.2287
    160  O         33.0380   58.5660   37.0440 O.2   325  GLU325     -0.2864
    161  CB        33.0190   61.5540   38.0850 C.3   325  GLU325      0.0415
    162  CG        33.7250   62.8980   38.3120 C.3   325  GLU325      0.1163
    163  CD        35.2510   62.7790   38.3420 C.2   325  GLU325      0.3649
    164  OE1       35.7620   61.6520   38.5890 O.co2 325  GLU325     -0.2457
    165  OE2       35.9350   63.8160   38.1190 O.co2 325  GLU325     -0.2457
    166  N         34.4660   57.1340   34.2980 N.3   328  TRP328     -0.1241
    167  CA        35.4900   56.4260   35.0670 C.3   328  TRP328      0.1605
    168  C         34.8960   55.3100   35.9030 C.2   328  TRP328      0.2264
    169  O         35.4550   54.2110   35.9640 O.2   328  TRP328     -0.2867
    170  CB        36.2450   57.3870   35.9740 C.3   328  TRP328      0.0550
    171  CG        37.2900   58.1840   35.2730 C.ar  328  TRP328      0.0003
    172  CD1       37.2180   59.5020   34.8920 C.ar  328  TRP328      0.0946
    173  CD2       38.5780   57.7170   34.8680 C.ar  328  TRP328      0.0152
    174  NE1       38.3920   59.8790   34.2770 N.ar  328  TRP328     -0.2442
    175  CE2       39.2420   58.8050   34.2510 C.ar  328  TRP328      0.0810
    176  CE3       39.2400   56.4890   34.9770 C.ar  328  TRP328      0.0012
    177  CZ2       40.5340   58.6950   33.7400 C.ar  328  TRP328      0.0191
    178  CZ3       40.5260   56.3830   34.4690 C.ar  328  TRP328      0.0001
    179  CH2       41.1590   57.4790   33.8590 C.ar  328  TRP328      0.0015
    180  N         36.2440   51.6970   35.1600 N.3   332  ASN332     -0.1240
    181  CA        36.8190   50.9280   36.2720 C.3   332  ASN332      0.1653
    182  C         36.0490   49.6360   36.5470 C.2   332  ASN332      0.2266
    183  O         36.6460   48.6070   36.8470 O.2   332  ASN332     -0.2867
    184  CB        36.8910   51.7750   37.5520 C.3   332  ASN332      0.1155
    185  CG        38.0270   52.7840   37.5170 C.2   332  ASN332      0.2627
    186  OD1       39.0250   52.6040   36.8050 O.2   332  ASN332     -0.2716
    187  ND2       37.8890   53.8480   38.2940 N.am  332  ASN332     -0.0877
    188  N         36.7420   47.0210   34.0470 N.3   335  SER335     -0.1202
    189  CA        38.1330   46.5870   34.1480 C.3   335  SER335      0.2020
    190  C         38.2790   45.4350   35.1370 C.2   335  SER335      0.2619
    191  O         39.0020   44.4750   34.8900 O.2   335  SER335     -0.2717
    192  CB        39.0310   47.7430   34.5720 C.3   335  SER335      0.2103
    193  OG        38.9260   48.8180   33.6650 O.3   335  SER335     -0.2182
    194  N         37.5840   45.5300   36.2580 N.am  336  GLY336     -0.1956
    195  CA        37.7130   44.5350   37.3000 C.3   336  GLY336      0.1869
    196  C         36.5860   43.5260   37.4510 C.2   336  GLY336      0.2309
    197  O         36.7110   42.6320   38.2750 O.2   336  GLY336     -0.2863
@<TRIPOS>BOND
     1   155   154    1
     2   155   156    1
     3   154   153    1
     4   153   152    1
     5   149   152    1
     6   149   148    1
     7   149   150    1
     8   193   192    1
     9   177   179   ar
    10   177   175   ar
    11   179   178   ar
    12   188   189    1
    13   189   192    1
    14   189   190    1
    15   151   150    2
    16   175   174   ar
    17   175   173   ar
    18   174   172   ar
    19   166   167    1
    20   150   157   am
    21   178   176   ar
    22   173   176   ar
    23   173   171   ar
    24   191   190    2
    25   172   171   ar
    26   167   168    1
    27   167   170    1
    28   190   194   am
    29   180   181    1
    30   171   170    1
    31   157   158    1
    32   168   169    2
    33   194   195    1
    34   181   182    1
    35   181   184    1
    36   182   183    2
    37   159   158    1
    38   159   160    2
    39   158   161    1
    40   186   185    2
    41   195   196    1
    42   196   197    2
    43   185   184    1
    44   185   187   am
    45   161   162    1
    46   165   163   ar
    47   162   163    1
    48   163   164   ar
    49   128   127    1
    50   113   114    1
    51   113   110    1
    52   126   125    2
    53   127   129    1
    54   127   124    1
    55   110   111    1
    56   110   109    1
    57   125   130   am
    58   125   124    1
    59   134   131    1
    60   112   111    2
    61   131   130    1
    62   131   132    1
    63   124   123    1
    64   111   115   am
    65    95    96    1
    66    96    99    1
    67    96    97    1
    68   132   133    2
    69   132   135   am
    70   101   103   ar
    71   101   100   ar
    72   138   137    2
    73   121   120    2
    74    99   100    1
    75   115   116    1
    76   135   136    1
    77    98    97    2
    78   103   104   ar
    79   100   102   ar
    80   116   117    1
    81   116   119    1
    82   137   136    1
    83   120   122   am
    84   120   119    1
    85   117   118    2
    86   104   102   ar
    87   104   106   ar
    88   102   105   ar
    89   106   108   ar
    90   141   142    2
    91   141   140    1
    92   105   107   ar
    93   139   140    1
    94   140   143    1
    95   108   107   ar
    96    75    73    1
    97    87    85   ar
    98   143   144    1
    99    86    85   ar
   100    73    70    1
   101    73    74    1
   102    72    71    2
   103    65    64    2
   104    70    71    1
   105    70    69    1
   106    85    84    1
   107    52    51    1
   108   146   145    2
   109    71    76   am
   110    53    51    1
   111   144   145    1
   112    68    66    1
   113    51    50    2
   114    64    69   am
   115    64    63    1
   116   145   147   am
   117    79    78    2
   118    84    81    1
   119    66    63    1
   120    66    67    1
   121    94    92    1
   122    76    77    1
   123    93    92    1
   124    14    13   ar
   125    78    77    1
   126    15    13   ar
   127    60    59    2
   128    63    62    1
   129    50    49    1
   130    34    32   am
   131    80    81    1
   132    81    82    1
   133    33    32    2
   134    92    89    1
   135    13    12    1
   136    48    49    1
   137    48    47    1
   138    32    31    1
   139    54    55    1
   140    57    56    2
   141    55    56    1
   142    55    58    1
   143    17    16    1
   144    17    18    1
   145    16    10   am
   146    19    18    2
   147    18    20   am
   148    59    58    1
   149    59    61   am
   150    47    44    1
   151    20    21    1
   152    20    26    1
   153    44    43    1
   154    44    45    1
   155    82    83    2
   156    21    24    1
   157    21    22    1
   158    26    25    1
   159    25    24    1
   160    46    45    2
   161    89    90    1
   162    89    88    1
   163    12     9    1
   164    27    22   am
   165    27    28    1
   166    31    28    1
   167    10     9    1
   168    10    11    2
   169     9     8    1
   170    22    23    2
   171    90    91    2
   172    42    40    1
   173    28    29    1
   174     4     3    2
   175     8     3   am
   176    40    39    1
   177     3     2    1
   178    29    30    2
   179     6     5    1
   180    39    41    1
   181    39    36    1
   182     2     5    1
   183     2     1    1
   184     5     7    1
   185    35    36    1
   186    36    37    1
   187    37    38    2
