@<TRIPOS>MOLECULE
tmp/5ekhA00.pdb
 141 137 0 0 0
SMALL
GASTEIGER

@<TRIPOS>ATOM
      1  N         -8.9360    6.1260   81.2920 N.3    89  GLN89      -0.1245
      2  CA        -8.6840    4.9680   80.4350 C.3    89  GLN89       0.1566
      3  C         -8.9330    3.6860   81.1960 C.2    89  GLN89       0.2260
      4  O         -8.9530    3.6940   82.4300 O.2    89  GLN89      -0.2867
      5  CB        -7.2430    4.9770   79.9000 C.3    89  GLN89       0.0367
      6  CG        -6.1760    5.1190   80.9970 C.3    89  GLN89       0.0905
      7  CD        -5.3970    3.8450   81.2530 C.2    89  GLN89       0.2608
      8  OE1       -5.9350    2.7370   81.1820 O.2    89  GLN89      -0.2717
      9  NE2       -4.1210    4.0000   81.5680 N.am   89  GLN89      -0.0878
     10  N         -7.5330   -0.6130   80.9130 N.3    91  HIS91      -0.1241
     11  CA        -6.6280   -1.5660   80.2950 C.3    91  HIS91       0.1621
     12  C         -6.6790   -2.8420   81.1090 C.2    91  HIS91       0.2264
     13  O         -7.3230   -2.8940   82.1640 O.2    91  HIS91      -0.2867
     14  CB        -5.2070   -1.0190   80.2560 C.3    91  HIS91       0.0745
     15  CG        -4.6510   -0.7610   81.6170 C.ar   91  HIS91       0.0817
     16  ND1       -4.8290    0.4340   82.2830 N.ar   91  HIS91      -0.2268
     17  CD2       -3.9810   -1.5730   82.4680 C.ar   91  HIS91       0.1154
     18  CE1       -4.2680    0.3530   83.4790 C.ar   91  HIS91       0.1986
     19  NE2       -3.7500   -0.8580   83.6190 N.ar   91  HIS91      -0.2212
     20  N         -4.3230   -6.5300   82.4280 N.3    93  HIS93      -0.1241
     21  CA        -3.1100   -7.3320   82.5540 C.3    93  HIS93       0.1621
     22  C         -3.5440   -8.7780   82.4280 C.2    93  HIS93       0.2264
     23  O         -4.5940   -9.1500   82.9440 O.2    93  HIS93      -0.2867
     24  CB        -2.4040   -7.0900   83.8910 C.3    93  HIS93       0.0745
     25  CG        -2.1340   -5.6460   84.1660 C.ar   93  HIS93       0.0817
     26  ND1       -0.9000   -5.0640   83.9610 N.ar   93  HIS93      -0.2268
     27  CD2       -2.9560   -4.6500   84.5820 C.ar   93  HIS93       0.1154
     28  CE1       -0.9690   -3.7770   84.2670 C.ar   93  HIS93       0.1986
     29  NE2       -2.2050   -3.4980   84.6450 N.ar   93  HIS93      -0.2212
     30  N         -8.2690   -2.8200   84.8280 N.3   116  HIS116     -0.1241
     31  CA        -8.0380   -1.5910   85.5750 C.3   116  HIS116      0.1621
     32  C         -8.7280   -0.4160   84.9170 C.2   116  HIS116      0.2264
     33  O         -8.3490   -0.0220   83.8130 O.2   116  HIS116     -0.2867
     34  CB        -6.5400   -1.3110   85.6820 C.3   116  HIS116      0.0745
     35  CG        -5.8270   -2.2800   86.5630 C.ar  116  HIS116      0.0817
     36  ND1       -4.4630   -2.4730   86.5170 N.ar  116  HIS116     -0.2268
     37  CD2       -6.3010   -3.1200   87.5160 C.ar  116  HIS116      0.1154
     38  CE1       -4.1270   -3.3850   87.4150 C.ar  116  HIS116      0.1986
     39  NE2       -5.2240   -3.8000   88.0250 N.ar  116  HIS116     -0.2212
     40  N         -9.0470    3.3550   85.2460 N.3   118  VAL118     -0.1245
     41  CA        -8.1920    4.3710   85.8570 C.3   118  VAL118      0.1561
     42  C         -8.9010    5.7170   85.9060 C.2   118  VAL118      0.2260
     43  O         -9.3780    6.2100   84.8750 O.2   118  VAL118     -0.2867
     44  CB        -6.8640    4.5180   85.0760 C.3   118  VAL118      0.0252
     45  CG1       -5.9530    5.5370   85.7510 C.3   118  VAL118      0.0019
     46  CG2       -6.1630    3.1550   84.9260 C.3   118  VAL118      0.0019
     47  N         -4.3830   14.8380   84.7650 N.3   127  PHE127     -0.1227
     48  CA        -3.8520   13.5430   85.1520 C.3   127  PHE127      0.1736
     49  C         -2.3930   13.6300   85.5830 C.2   127  PHE127      0.2596
     50  O         -1.9960   12.9920   86.5570 O.2   127  PHE127     -0.2718
     51  CB        -4.0100   12.5610   83.9930 C.3   127  PHE127      0.0547
     52  CG        -3.4960   11.1820   84.2890 C.ar  127  PHE127     -0.0202
     53  CD1       -4.2560   10.2810   85.0270 C.ar  127  PHE127     -0.0042
     54  CD2       -2.2510   10.7800   83.8340 C.ar  127  PHE127     -0.0042
     55  CE1       -3.7840    9.0060   85.2960 C.ar  127  PHE127     -0.0003
     56  CE2       -1.7780    9.5070   84.1040 C.ar  127  PHE127     -0.0003
     57  CZ        -2.5470    8.6200   84.8350 C.ar  127  PHE127     -0.0000
     58  N         -1.5970   14.4150   84.8570 N.am  128  GLY128     -0.1957
     59  CA        -0.1910   14.5650   85.1790 C.3   128  GLY128      0.1869
     60  C          0.0590   15.1650   86.5540 C.2   128  GLY128      0.2309
     61  O          1.0270   14.8130   87.2230 O.2   128  GLY128     -0.2863
     62  N         -1.0740   12.3280   89.3950 N.3   131  VAL131     -0.1245
     63  CA        -0.1980   11.2100   89.7360 C.3   131  VAL131      0.1561
     64  C          0.9050   11.6200   90.7120 C.2   131  VAL131      0.2260
     65  O          1.6090   10.7570   91.2290 O.2   131  VAL131     -0.2867
     66  CB         0.4600   10.5520   88.4900 C.3   131  VAL131      0.0252
     67  CG1       -0.6000    9.9360   87.5880 C.3   131  VAL131      0.0019
     68  CG2        1.3350   11.5290   87.7330 C.3   131  VAL131      0.0019
     69  N         -5.2090    9.3060   92.2260 N.3   137  LEU137     -0.1245
     70  CA        -5.8740    8.3450   91.3610 C.3   137  LEU137      0.1561
     71  C         -6.7650    7.4110   92.1570 C.2   137  LEU137      0.2260
     72  O         -6.5000    7.1170   93.3240 O.2   137  LEU137     -0.2867
     73  CB        -4.8470    7.5160   90.5820 C.3   137  LEU137      0.0270
     74  CG        -4.4190    7.9890   89.1890 C.3   137  LEU137      0.0019
     75  CD1       -3.9660    9.4290   89.1530 C.3   137  LEU137      0.0001
     76  CD2       -3.3490    7.0630   88.6190 C.3   137  LEU137      0.0001
     77  N         -8.1280    3.5570   91.1230 N.3   139  VAL139     -0.1245
     78  CA        -8.2150    2.5310   90.0990 C.3   139  VAL139      0.1561
     79  C         -9.1640    1.4520   90.5820 C.2   139  VAL139      0.2260
     80  O         -9.0170    0.9140   91.6870 O.2   139  VAL139     -0.2867
     81  CB        -6.8460    1.9110   89.7260 C.3   139  VAL139      0.0252
     82  CG1       -7.0280    0.9080   88.5830 C.3   139  VAL139      0.0019
     83  CG2       -5.8540    2.9940   89.3140 C.3   139  VAL139      0.0019
     84  N          0.7620    2.9380   91.2210 N.3   194  LEU194     -0.1231
     85  CA         0.7730    2.3840   89.8690 C.3   194  LEU194      0.1693
     86  C          1.4990    1.0460   89.8940 C.2   194  LEU194      0.2593
     87  O          2.4870    0.8900   90.6130 O.2   194  LEU194     -0.2718
     88  CB         1.4770    3.3240   88.8980 C.3   194  LEU194      0.0284
     89  CG         0.9660    4.7590   88.8380 C.3   194  LEU194      0.0019
     90  CD1        1.8530    5.5440   87.8830 C.3   194  LEU194      0.0001
     91  CD2       -0.4840    4.8010   88.3960 C.3   194  LEU194      0.0001
     92  N          1.0470    0.0890   89.0930 N.am  195  THR195     -0.1939
     93  CA         1.7090   -1.2170   89.0680 C.3   195  THR195      0.2028
     94  C          2.7380   -1.3310   87.9480 C.2   195  THR195      0.2643
     95  O          3.3360   -2.3900   87.7640 O.2   195  THR195     -0.2714
     96  CB         0.7120   -2.3600   88.9140 C.3   195  THR195      0.1808
     97  OG1        0.0980   -2.2670   87.6230 O.3   195  THR195     -0.2208
     98  CG2       -0.3400   -2.3220   90.0310 C.3   195  THR195      0.0379
     99  N          2.9320   -0.2530   87.1910 N.am  196  THR196     -0.1937
    100  CA         4.0030   -0.1810   86.2030 C.3   196  THR196      0.2013
    101  C          4.8500    1.0350   86.5270 C.2   196  THR196      0.2484
    102  O          4.3630    1.9720   87.1700 O.2   196  THR196     -0.2729
    103  CB         3.4830   -0.0340   84.7620 C.3   196  THR196      0.1807
    104  OG1        2.9320    1.2770   84.5840 O.3   196  THR196     -0.2208
    105  CG2        2.4300   -1.0730   84.4400 C.3   196  THR196      0.0379
    106  N          6.1120    1.0460   86.0730 N.am  197  PRO197     -0.2715
    107  CA         6.8610    2.3010   86.1280 C.3   197  PRO197      0.1521
    108  C          6.0040    3.4470   85.5870 C.2   197  PRO197      0.2440
    109  O          5.2810    3.2520   84.5990 O.2   197  PRO197     -0.2731
    110  CB         8.0730    2.0110   85.2440 C.3   197  PRO197      0.0310
    111  CG         8.3090    0.5350   85.4660 C.3   197  PRO197      0.0237
    112  CD         6.9150   -0.0510   85.4950 C.3   197  PRO197      0.0939
    113  N          6.0610    4.6230   86.2260 N.am  198  PRO198     -0.2727
    114  CA         6.9920    5.0200   87.2930 C.3   198  PRO198      0.1402
    115  C          6.6080    4.6000   88.7280 C.2   198  PRO198      0.2269
    116  O          7.2590    5.0580   89.6660 O.2   198  PRO198     -0.2865
    117  CB         7.0080    6.5490   87.1690 C.3   198  PRO198      0.0296
    118  CG         5.6620    6.8860   86.6450 C.3   198  PRO198      0.0237
    119  CD         5.2620    5.7610   85.7320 C.3   198  PRO198      0.0939
    120  N          4.3970    5.2980   90.8460 N.3   200  LEU200     -0.1245
    121  CA         4.0540    6.3900   91.7570 C.3   200  LEU200      0.1561
    122  C          2.9970    5.9830   92.7770 C.2   200  LEU200      0.2260
    123  O          2.0320    5.2830   92.4560 O.2   200  LEU200     -0.2867
    124  CB         3.5720    7.6080   90.9630 C.3   200  LEU200      0.0270
    125  CG         4.6470    8.2070   90.0510 C.3   200  LEU200      0.0019
    126  CD1        4.0590    9.2700   89.1440 C.3   200  LEU200      0.0001
    127  CD2        5.7930    8.7890   90.8740 C.3   200  LEU200      0.0001
    128  N         -6.6750    2.0480   95.6580 N.3   205  TRP205     -0.1241
    129  CA        -7.1310    0.8440   94.9730 C.3   205  TRP205      0.1605
    130  C         -8.4930    0.4210   95.4740 C.2   205  TRP205      0.2264
    131  O         -8.7270    0.3780   96.6780 O.2   205  TRP205     -0.2867
    132  CB        -6.1170   -0.3040   95.1480 C.3   205  TRP205      0.0550
    133  CG        -5.0310   -0.1750   94.1430 C.ar  205  TRP205      0.0003
    134  CD1       -3.8130    0.4230   94.3150 C.ar  205  TRP205      0.0946
    135  CD2       -5.0960   -0.5730   92.7720 C.ar  205  TRP205      0.0152
    136  NE1       -3.1100    0.4060   93.1330 N.ar  205  TRP205     -0.2442
    137  CE2       -3.8740   -0.2040   92.1710 C.ar  205  TRP205      0.0810
    138  CE3       -6.0680   -1.2100   91.9960 C.ar  205  TRP205      0.0012
    139  CZ2       -3.5990   -0.4520   90.8280 C.ar  205  TRP205      0.0191
    140  CZ3       -5.7910   -1.4750   90.6640 C.ar  205  TRP205      0.0001
    141  CH2       -4.5640   -1.0940   90.0910 C.ar  205  TRP205      0.0015
@<TRIPOS>BOND
     1     5     2    1
     2     5     6    1
     3    14    11    1
     4    14    15    1
     5    11    10    1
     6    11    12    1
     7     2     3    1
     8     2     1    1
     9     6     7    1
    10    12    13    2
    11     8     7    2
    12     3     4    2
    13     7     9   am
    14    15    16   ar
    15    15    17   ar
    16    16    18   ar
    17    20    21    1
    18    22    21    1
    19    22    23    2
    20    17    19   ar
    21    21    24    1
    22    18    19   ar
    23    33    32    2
    24    54    56   ar
    25    54    52   ar
    26    24    25    1
    27    26    25   ar
    28    26    28   ar
    29    51    52    1
    30    51    48    1
    31    56    57   ar
    32    25    27   ar
    33    28    29   ar
    34    52    53   ar
    35   105   103    1
    36    27    29   ar
    37   104   103    1
    38   109   108    2
    39   103   100    1
    40    47    48    1
    41    30    31    1
    42    57    55   ar
    43    58    59    1
    44    58    49   am
    45    43    42    2
    46    32    31    1
    47    46    44    1
    48    53    55   ar
    49    44    45    1
    50    44    41    1
    51    48    49    1
    52    59    60    1
    53   110   111    1
    54   110   107    1
    55    40    41    1
    56   111   112    1
    57   112   106    1
    58    31    34    1
    59    49    50    2
    60   108   107    1
    61   108   113   am
    62    34    35    1
    63   119   113    1
    64   119   118    1
    65    41    42    1
    66   106   107    1
    67   106   101   am
    68   100   101    1
    69   100    99    1
    70   113   114    1
    71    36    35   ar
    72    36    38   ar
    73   101   102    2
    74    60    61    2
    75    35    37   ar
    76   118   117    1
    77   117   114    1
    78    99    94   am
    79   114   115    1
    80    38    39   ar
    81    37    39   ar
    82    67    66    1
    83    97    96    1
    84    68    66    1
    85    95    94    2
    86    90    89    1
    87    94    93    1
    88    91    89    1
    89    66    63    1
    90    82    81    1
    91    76    74    1
    92   115   116    2
    93    89    88    1
    94    88    85    1
    95    96    93    1
    96    96    98    1
    97    93    92    1
    98    92    86   am
    99   126   125    1
   100    75    74    1
   101    74    73    1
   102    83    81    1
   103    62    63    1
   104    81    78    1
   105    63    64    1
   106    85    86    1
   107    85    84    1
   108    86    87    2
   109   125   127    1
   110   125   124    1
   111   141   140   ar
   112   141   139   ar
   113    78    79    1
   114    78    77    1
   115    79    80    2
   116    73    70    1
   117   140   138   ar
   118    64    65    2
   119   139   137   ar
   120   120   121    1
   121   124   121    1
   122    70    71    1
   123    70    69    1
   124   121   122    1
   125   138   135   ar
   126    71    72    2
   127   137   135   ar
   128   137   136   ar
   129   123   122    2
   130   135   133   ar
   131   136   134   ar
   132   133   134   ar
   133   133   132    1
   134   129   132    1
   135   129   130    1
   136   129   128    1
   137   130   131    2
