@<TRIPOS>MOLECULE
tmp/5ekjA00.pdb
 157 152 0 0 0
SMALL
GASTEIGER

@<TRIPOS>ATOM
      1  N         -9.1450    6.0800   81.2180 N.3    90  GLN90      -0.1245
      2  CA        -8.8780    4.9190   80.3670 C.3    90  GLN90       0.1566
      3  C         -9.1340    3.6460   81.1410 C.2    90  GLN90       0.2260
      4  O         -9.1420    3.6630   82.3770 O.2    90  GLN90      -0.2867
      5  CB        -7.4350    4.9220   79.8510 C.3    90  GLN90       0.0367
      6  CG        -6.3910    5.0900   80.9530 C.3    90  GLN90       0.0905
      7  CD        -5.5810    3.8400   81.2150 C.2    90  GLN90       0.2608
      8  OE1       -6.0870    2.7150   81.1480 O.2    90  GLN90      -0.2717
      9  NE2       -4.3170    4.0350   81.5480 N.am   90  GLN90      -0.0878
     10  N         -7.7000   -0.6290   80.8920 N.3    92  HIS92      -0.1241
     11  CA        -6.8040   -1.5890   80.2760 C.3    92  HIS92       0.1621
     12  C         -6.8670   -2.8620   81.1090 C.2    92  HIS92       0.2264
     13  O         -7.5100   -2.9020   82.1610 O.2    92  HIS92      -0.2867
     14  CB        -5.3790   -1.0560   80.2230 C.3    92  HIS92       0.0745
     15  CG        -4.8210   -0.7930   81.5810 C.ar   92  HIS92       0.0817
     16  ND1       -4.9810    0.4110   82.2310 N.ar   92  HIS92      -0.2268
     17  CD2       -4.1820   -1.6120   82.4510 C.ar   92  HIS92       0.1154
     18  CE1       -4.4390    0.3280   83.4350 C.ar   92  HIS92       0.1986
     19  NE2       -3.9450   -0.8910   83.5930 N.ar   92  HIS92      -0.2212
     20  N         -4.4930   -6.5570   82.4170 N.3    94  HIS94      -0.1241
     21  CA        -3.2830   -7.3610   82.5480 C.3    94  HIS94       0.1621
     22  C         -3.7200   -8.8150   82.4420 C.2    94  HIS94       0.2264
     23  O         -4.7820   -9.1680   82.9570 O.2    94  HIS94      -0.2867
     24  CB        -2.5800   -7.1080   83.8860 C.3    94  HIS94       0.0745
     25  CG        -2.3160   -5.6600   84.1500 C.ar   94  HIS94       0.0817
     26  ND1       -1.0910   -5.0730   83.9220 N.ar   94  HIS94      -0.2268
     27  CD2       -3.1340   -4.6660   84.5820 C.ar   94  HIS94       0.1154
     28  CE1       -1.1640   -3.7830   84.2170 C.ar   94  HIS94       0.1986
     29  NE2       -2.3930   -3.5080   84.6170 N.ar   94  HIS94      -0.2212
     30  N         -8.4740   -2.8160   84.8190 N.3   117  HIS117     -0.1241
     31  CA        -8.2200   -1.5830   85.5590 C.3   117  HIS117      0.1621
     32  C         -8.9210   -0.4190   84.8910 C.2   117  HIS117      0.2264
     33  O         -8.5560   -0.0440   83.7740 O.2   117  HIS117     -0.2867
     34  CB        -6.7180   -1.3030   85.6470 C.3   117  HIS117      0.0745
     35  CG        -6.0100   -2.2650   86.5340 C.ar  117  HIS117      0.0817
     36  ND1       -4.6450   -2.4660   86.5030 N.ar  117  HIS117     -0.2268
     37  CD2       -6.5030   -3.1000   87.4770 C.ar  117  HIS117      0.1154
     38  CE1       -4.3330   -3.3820   87.4030 C.ar  117  HIS117      0.1986
     39  NE2       -5.4400   -3.7790   88.0100 N.ar  117  HIS117     -0.2212
     40  N         -9.2350    3.3510   85.2140 N.3   119  VAL119     -0.1245
     41  CA        -8.3740    4.3650   85.8110 C.3   119  VAL119      0.1561
     42  C         -9.0770    5.7130   85.8550 C.2   119  VAL119      0.2260
     43  O         -9.5500    6.1960   84.8270 O.2   119  VAL119     -0.2867
     44  CB        -7.0570    4.4880   85.0180 C.3   119  VAL119      0.0252
     45  CG1       -6.1350    5.5120   85.6590 C.3   119  VAL119      0.0019
     46  CG2       -6.3650    3.1260   84.8950 C.3   119  VAL119      0.0019
     47  N         -4.5250   14.7490   84.6850 N.3   128  PHE128     -0.1227
     48  CA        -3.9950   13.4580   85.0930 C.3   128  PHE128      0.1736
     49  C         -2.5370   13.5530   85.5320 C.2   128  PHE128      0.2596
     50  O         -2.1370   12.9250   86.5100 O.2   128  PHE128     -0.2718
     51  CB        -4.1410   12.4640   83.9430 C.3   128  PHE128      0.0547
     52  CG        -3.6190   11.0930   84.2550 C.ar  128  PHE128     -0.0202
     53  CD1       -4.3990   10.1810   84.9400 C.ar  128  PHE128     -0.0042
     54  CD2       -2.3400   10.7150   83.8750 C.ar  128  PHE128     -0.0042
     55  CE1       -3.9220    8.9180   85.2280 C.ar  128  PHE128     -0.0003
     56  CE2       -1.8570    9.4520   84.1690 C.ar  128  PHE128     -0.0003
     57  CZ        -2.6530    8.5500   84.8410 C.ar  128  PHE128     -0.0000
     58  N         -1.7420   14.3280   84.7970 N.am  129  GLY129     -0.1957
     59  CA        -0.3320   14.4660   85.1140 C.3   129  GLY129      0.1869
     60  C         -0.0840   15.0790   86.4830 C.2   129  GLY129      0.2309
     61  O          0.8700   14.7220   87.1790 O.2   129  GLY129     -0.2863
     62  N         -1.2260   12.2950   89.3400 N.3   132  VAL132     -0.1231
     63  CA        -0.3570   11.1750   89.7070 C.3   132  VAL132      0.1692
     64  C          0.7480   11.5930   90.6790 C.2   132  VAL132      0.2591
     65  O          1.4410   10.7390   91.2310 O.2   132  VAL132     -0.2718
     66  CB         0.3000   10.4800   88.4850 C.3   132  VAL132      0.0266
     67  CG1       -0.7500    9.8590   87.5880 C.3   132  VAL132      0.0020
     68  CG2        1.1980   11.4230   87.7140 C.3   132  VAL132      0.0020
     69  N          0.9100   12.8960   90.8950 N.am  133  GLN133     -0.1979
     70  CA         1.8740   13.3990   91.8700 C.3   133  GLN133      0.1601
     71  C          1.2780   13.5800   93.2690 C.2   133  GLN133      0.2287
     72  O          1.9410   14.1160   94.1570 O.2   133  GLN133     -0.2864
     73  CB         2.4590   14.7210   91.3740 C.3   133  GLN133      0.0394
     74  CG         3.1120   14.6050   90.0090 C.3   133  GLN133      0.0908
     75  CD         3.5950   15.9350   89.4880 C.2   133  GLN133      0.2608
     76  OE1        4.3750   16.6250   90.1440 O.2   133  GLN133     -0.2717
     77  NE2        3.1220   16.3140   88.3080 N.am  133  GLN133     -0.0878
     78  N         -5.4220    9.3140   92.1740 N.3   138  LEU138     -0.1245
     79  CA        -6.0770    8.3450   91.3030 C.3   138  LEU138      0.1561
     80  C         -6.9610    7.4120   92.1020 C.2   138  LEU138      0.2260
     81  O         -6.6900    7.1290   93.2720 O.2   138  LEU138     -0.2867
     82  CB        -5.0510    7.5060   90.5380 C.3   138  LEU138      0.0270
     83  CG        -4.5980    7.9780   89.1650 C.3   138  LEU138      0.0019
     84  CD1       -4.1120    9.4070   89.1520 C.3   138  LEU138      0.0001
     85  CD2       -3.5440    7.0410   88.6170 C.3   138  LEU138      0.0001
     86  N         -8.3350    3.5590   91.0740 N.3   140  VAL140     -0.1245
     87  CA        -8.4060    2.5210   90.0600 C.3   140  VAL140      0.1561
     88  C         -9.3560    1.4480   90.5530 C.2   140  VAL140      0.2260
     89  O         -9.2160    0.9200   91.6620 O.2   140  VAL140     -0.2867
     90  CB        -7.0270    1.9310   89.6960 C.3   140  VAL140      0.0252
     91  CG1       -7.1960    0.9110   88.5750 C.3   140  VAL140      0.0019
     92  CG2       -6.0870    3.0350   89.2420 C.3   140  VAL140      0.0019
     93  N          0.5710    2.9450   91.2240 N.3   195  LEU195     -0.1231
     94  CA         0.5800    2.3970   89.8740 C.3   195  LEU195      0.1693
     95  C          1.3030    1.0570   89.8970 C.2   195  LEU195      0.2593
     96  O          2.3030    0.8990   90.6100 O.2   195  LEU195     -0.2718
     97  CB         1.2860    3.3290   88.9000 C.3   195  LEU195      0.0284
     98  CG         0.7830    4.7650   88.8100 C.3   195  LEU195      0.0019
     99  CD1        1.6710    5.5540   87.8680 C.3   195  LEU195      0.0001
    100  CD2       -0.6570    4.8060   88.3580 C.3   195  LEU195      0.0001
    101  N          0.8370    0.0980   89.1000 N.am  196  THR196     -0.1939
    102  CA         1.4960   -1.2050   89.0640 C.3   196  THR196      0.2028
    103  C          2.5330   -1.3300   87.9460 C.2   196  THR196      0.2643
    104  O          3.1200   -2.3960   87.7640 O.2   196  THR196     -0.2714
    105  CB         0.4990   -2.3500   88.9040 C.3   196  THR196      0.1808
    106  OG1       -0.0930   -2.2630   87.6050 O.3   196  THR196     -0.2208
    107  CG2       -0.5710   -2.3230   90.0010 C.3   196  THR196      0.0379
    108  N          2.7410   -0.2530   87.1940 N.am  197  THR197     -0.1937
    109  CA         3.8210   -0.1730   86.2220 C.3   197  THR197      0.2013
    110  C          4.6420    1.0570   86.5370 C.2   197  THR197      0.2484
    111  O          4.1420    1.9900   87.1630 O.2   197  THR197     -0.2729
    112  CB         3.3350   -0.0500   84.7580 C.3   197  THR197      0.1807
    113  OG1        2.8580    1.2790   84.5110 O.3   197  THR197     -0.2208
    114  CG2        2.2580   -1.0530   84.4370 C.3   197  THR197      0.0379
    115  N          5.8990    1.0920   86.0690 N.am  198  PRO198     -0.2715
    116  CA         6.6300    2.3600   86.0960 C.3   198  PRO198      0.1521
    117  C          5.7410    3.4730   85.5490 C.2   198  PRO198      0.2440
    118  O          5.0070    3.2560   84.5800 O.2   198  PRO198     -0.2731
    119  CB         7.8460    2.0750   85.2110 C.3   198  PRO198      0.0310
    120  CG         8.1030    0.6160   85.4720 C.3   198  PRO198      0.0237
    121  CD         6.7170    0.0100   85.4900 C.3   198  PRO198      0.0939
    122  N          5.7700    4.6510   86.1820 N.am  199  PRO199     -0.2727
    123  CA         6.6920    5.0820   87.2410 C.3   199  PRO199      0.1402
    124  C          6.3570    4.6520   88.6840 C.2   199  PRO199      0.2269
    125  O          7.0310    5.1270   89.5950 O.2   199  PRO199     -0.2865
    126  CB         6.6380    6.6080   87.1180 C.3   199  PRO199      0.0296
    127  CG         5.2710    6.8900   86.6260 C.3   199  PRO199      0.0237
    128  CD         4.9390    5.7660   85.6910 C.3   199  PRO199      0.0939
    129  N          4.1820    5.3080   90.8440 N.3   201  LEU201     -0.1245
    130  CA         3.8700    6.3990   91.7560 C.3   201  LEU201      0.1561
    131  C          2.7980    6.0010   92.7650 C.2   201  LEU201      0.2260
    132  O          1.8360    5.3040   92.4350 O.2   201  LEU201     -0.2867
    133  CB         3.4290    7.6320   90.9670 C.3   201  LEU201      0.0270
    134  CG         4.5160    8.2400   90.0800 C.3   201  LEU201      0.0019
    135  CD1        3.9330    9.2900   89.1540 C.3   201  LEU201      0.0001
    136  CD2        5.6300    8.8420   90.9350 C.3   201  LEU201      0.0001
    137  N         -2.5050    6.0170   94.1980 N.3   204  VAL204     -0.1245
    138  CA        -3.7420    5.3090   93.8800 C.3   204  VAL204      0.1561
    139  C         -4.5110    4.8440   95.1090 C.2   204  VAL204      0.2260
    140  O         -3.9500    4.1810   95.9820 O.2   204  VAL204     -0.2867
    141  CB        -3.4760    4.0570   93.0020 C.3   204  VAL204      0.0252
    142  CG1       -4.7840    3.3560   92.6680 C.3   204  VAL204      0.0019
    143  CG2       -2.7110    4.4180   91.7300 C.3   204  VAL204      0.0019
    144  N         -6.9020    2.0620   95.6060 N.3   206  TRP206     -0.1241
    145  CA        -7.3560    0.8580   94.9250 C.3   206  TRP206      0.1605
    146  C         -8.7170    0.4430   95.4430 C.2   206  TRP206      0.2264
    147  O         -8.9390    0.4010   96.6500 O.2   206  TRP206     -0.2867
    148  CB        -6.3420   -0.2860   95.1120 C.3   206  TRP206      0.0550
    149  CG        -5.2450   -0.1640   94.1280 C.ar  206  TRP206      0.0003
    150  CD1       -4.0300    0.4300   94.3070 C.ar  206  TRP206      0.0946
    151  CD2       -5.3030   -0.5610   92.7600 C.ar  206  TRP206      0.0152
    152  NE1       -3.3180    0.4130   93.1320 N.ar  206  TRP206     -0.2442
    153  CE2       -4.0830   -0.1880   92.1650 C.ar  206  TRP206      0.0810
    154  CE3       -6.2730   -1.1980   91.9770 C.ar  206  TRP206      0.0012
    155  CZ2       -3.8040   -0.4350   90.8250 C.ar  206  TRP206      0.0191
    156  CZ3       -5.9940   -1.4540   90.6540 C.ar  206  TRP206      0.0001
    157  CH2       -4.7670   -1.0730   90.0900 C.ar  206  TRP206      0.0015
@<TRIPOS>BOND
     1     5     2    1
     2     5     6    1
     3    14    11    1
     4    14    15    1
     5    11    10    1
     6    11    12    1
     7     2     3    1
     8     2     1    1
     9     6     7    1
    10    12    13    2
    11     3     4    2
    12     8     7    2
    13     7     9   am
    14    15    16   ar
    15    15    17   ar
    16    16    18   ar
    17    20    21    1
    18    22    21    1
    19    22    23    2
    20    17    19   ar
    21    21    24    1
    22    18    19   ar
    23    33    32    2
    24    54    56   ar
    25    54    52   ar
    26    24    25    1
    27    26    25   ar
    28    26    28   ar
    29    51    52    1
    30    51    48    1
    31    25    27   ar
    32    56    57   ar
    33    28    29   ar
    34    52    53   ar
    35   114   112    1
    36   113   112    1
    37   118   117    2
    38    27    29   ar
    39    47    48    1
    40   112   109    1
    41    58    59    1
    42    58    49   am
    43    30    31    1
    44    43    42    2
    45    57    55   ar
    46    32    31    1
    47    46    44    1
    48    53    55   ar
    49    44    45    1
    50    44    41    1
    51    48    49    1
    52    59    60    1
    53   119   120    1
    54   119   116    1
    55    40    41    1
    56   120   121    1
    57   121   115    1
    58    49    50    2
    59   117   116    1
    60   117   122   am
    61    31    34    1
    62    34    35    1
    63   128   122    1
    64   128   127    1
    65    41    42    1
    66   115   116    1
    67   115   110   am
    68   122   123    1
    69   109   110    1
    70   109   108    1
    71    60    61    2
    72    36    35   ar
    73    36    38   ar
    74    35    37   ar
    75   110   111    2
    76   127   126    1
    77   126   123    1
    78   108   103   am
    79   123   124    1
    80    38    39   ar
    81    37    39   ar
    82    67    66    1
    83   106   105    1
    84    68    66    1
    85   104   103    2
    86    99    98    1
    87   103   102    1
    88    77    75   am
    89   100    98    1
    90    66    63    1
    91    91    90    1
    92    85    83    1
    93   124   125    2
    94    98    97    1
    95    97    94    1
    96   105   102    1
    97   105   107    1
    98   102   101    1
    99   101    95   am
   100    84    83    1
   101   135   134    1
   102    83    82    1
   103    92    90    1
   104    62    63    1
   105    75    74    1
   106    75    76    2
   107    90    87    1
   108    63    64    1
   109    94    95    1
   110    94    93    1
   111    95    96    2
   112    74    73    1
   113    87    88    1
   114    87    86    1
   115   134   136    1
   116   134   133    1
   117   157   156   ar
   118   157   155   ar
   119    82    79    1
   120    88    89    2
   121   156   154   ar
   122    64    69   am
   123    64    65    2
   124   155   153   ar
   125   129   130    1
   126    69    70    1
   127   133   130    1
   128    79    80    1
   129    79    78    1
   130    73    70    1
   131   143   141    1
   132   130   131    1
   133    70    71    1
   134   154   151   ar
   135    80    81    2
   136   153   151   ar
   137   153   152   ar
   138   132   131    2
   139   142   141    1
   140   151   149   ar
   141   141   138    1
   142   152   150   ar
   143    71    72    2
   144   138   137    1
   145   138   139    1
   146   149   150   ar
   147   149   148    1
   148   145   148    1
   149   145   146    1
   150   145   144    1
   151   139   140    2
   152   146   147    2
