@<TRIPOS>MOLECULE
tmp/5ekmA00.pdb
 150 148 0 0 0
SMALL
GASTEIGER

@<TRIPOS>ATOM
      1  N         -4.8090    0.3550   75.8140 N.3    64  ASN64      -0.1240
      2  CA        -5.6570    1.2740   76.5620 C.3    64  ASN64       0.1653
      3  C         -6.8460    1.7040   75.7320 C.2    64  ASN64       0.2266
      4  O         -6.6820    2.1450   74.5900 O.2    64  ASN64      -0.2867
      5  CB        -4.8980    2.5330   76.9810 C.3    64  ASN64       0.1155
      6  CG        -3.8500    2.2620   78.0230 C.2    64  ASN64       0.2627
      7  OD1       -3.7060    1.1420   78.5040 O.2    64  ASN64      -0.2716
      8  ND2       -3.0890    3.2880   78.3670 N.am   64  ASN64      -0.0877
      9  N         -9.1960    4.6960   75.6640 N.3    66  GLU66      -0.1231
     10  CA        -9.1010    6.0500   76.1900 C.3    66  GLU66       0.1699
     11  C        -10.4440    6.7590   76.1160 C.2    66  GLU66       0.2592
     12  O        -11.2160    6.5370   75.1800 O.2    66  GLU66      -0.2718
     13  CB        -8.0570    6.8410   75.4070 C.3    66  GLU66       0.0402
     14  CG        -6.6820    6.2090   75.4150 C.3    66  GLU66       0.1161
     15  CD        -5.7620    6.8000   74.3620 C.2    66  GLU66       0.3649
     16  OE1       -6.2420    7.5220   73.4580 O.co2  66  GLU66      -0.2457
     17  OE2       -4.5480    6.5290   74.4370 O.co2  66  GLU66      -0.2457
     18  N        -10.6910    7.6350   77.0880 N.am   67  PHE67      -0.1976
     19  CA       -11.9390    8.3750   77.1850 C.3    67  PHE67       0.1639
     20  C        -11.7280    9.8800   77.1720 C.2    67  PHE67       0.2290
     21  O        -10.6540   10.3720   77.5130 O.2    67  PHE67      -0.2864
     22  CB       -12.6810    7.9750   78.4650 C.3    67  PHE67       0.0560
     23  CG       -13.2280    6.5880   78.4140 C.ar   67  PHE67      -0.0200
     24  CD1      -12.4000    5.4900   78.6200 C.ar   67  PHE67      -0.0042
     25  CD2      -14.5620    6.3690   78.1010 C.ar   67  PHE67      -0.0042
     26  CE1      -12.9000    4.2000   78.5240 C.ar   67  PHE67      -0.0003
     27  CE2      -15.0690    5.0820   78.0040 C.ar   67  PHE67      -0.0003
     28  CZ       -14.2340    3.9940   78.2220 C.ar   67  PHE67      -0.0000
     29  N        -10.2530    8.0660   82.7180 N.3    88  ILE88      -0.1231
     30  CA        -9.3880    8.4690   81.6130 C.3    88  ILE88       0.1692
     31  C         -9.0970    7.3040   80.6580 C.2    88  ILE88       0.2591
     32  O         -9.0440    7.4960   79.4480 O.2    88  ILE88      -0.2718
     33  CB        -8.0580    9.1030   82.1350 C.3    88  ILE88       0.0266
     34  CG1       -7.1320    9.4900   80.9760 C.3    88  ILE88       0.0019
     35  CG2       -7.3460    8.1950   83.1470 C.3    88  ILE88       0.0020
     36  CD1       -5.9800   10.3650   81.4110 C.3    88  ILE88       0.0001
     37  N         -8.9390    6.0950   81.1880 N.am   89  GLN89      -0.1979
     38  CA        -8.6640    4.9400   80.3360 C.3    89  GLN89       0.1601
     39  C         -8.9290    3.6590   81.0980 C.2    89  GLN89       0.2287
     40  O         -8.9560    3.6660   82.3370 O.2    89  GLN89      -0.2864
     41  CB        -7.2130    4.9540   79.8250 C.3    89  GLN89       0.0394
     42  CG        -6.1520    5.0740   80.9240 C.3    89  GLN89       0.0908
     43  CD        -5.4140    3.7750   81.2020 C.2    89  GLN89       0.2608
     44  OE1       -5.9630    2.6830   81.0450 O.2    89  GLN89      -0.2717
     45  NE2       -4.1680    3.8930   81.6410 N.am   89  GLN89      -0.0878
     46  N         -7.5860   -0.6500   80.8290 N.3    91  HIS91      -0.1241
     47  CA        -6.6890   -1.6070   80.2070 C.3    91  HIS91       0.1621
     48  C         -6.7470   -2.8850   81.0250 C.2    91  HIS91       0.2264
     49  O         -7.3950   -2.9310   82.0750 O.2    91  HIS91      -0.2867
     50  CB        -5.2610   -1.0690   80.1630 C.3    91  HIS91       0.0745
     51  CG        -4.7010   -0.8140   81.5230 C.ar   91  HIS91       0.0817
     52  ND1       -4.8590    0.3890   82.1810 N.ar   91  HIS91      -0.2268
     53  CD2       -4.0560   -1.6360   82.3840 C.ar   91  HIS91       0.1154
     54  CE1       -4.3050    0.3040   83.3810 C.ar   91  HIS91       0.1986
     55  NE2       -3.8150   -0.9170   83.5320 N.ar   91  HIS91      -0.2212
     56  N         -4.3650   -6.5720   82.3460 N.3    93  HIS93      -0.1241
     57  CA        -3.1530   -7.3770   82.4730 C.3    93  HIS93       0.1621
     58  C         -3.5900   -8.8270   82.3500 C.2    93  HIS93       0.2264
     59  O         -4.6570   -9.1910   82.8570 O.2    93  HIS93      -0.2867
     60  CB        -2.4430   -7.1320   83.8070 C.3    93  HIS93       0.0745
     61  CG        -2.1790   -5.6860   84.0800 C.ar   93  HIS93       0.0817
     62  ND1       -0.9540   -5.0930   83.8590 N.ar   93  HIS93      -0.2268
     63  CD2       -3.0020   -4.6990   84.5120 C.ar   93  HIS93       0.1154
     64  CE1       -1.0310   -3.8060   84.1620 C.ar   93  HIS93       0.1986
     65  NE2       -2.2630   -3.5390   84.5610 N.ar   93  HIS93      -0.2212
     66  N         -8.3260   -2.8390   84.7330 N.3   116  HIS116     -0.1241
     67  CA        -8.0730   -1.6130   85.4880 C.3   116  HIS116      0.1621
     68  C         -8.7670   -0.4370   84.8270 C.2   116  HIS116      0.2264
     69  O         -8.3990   -0.0540   83.7160 O.2   116  HIS116     -0.2867
     70  CB        -6.5730   -1.3420   85.5840 C.3   116  HIS116      0.0745
     71  CG        -5.8690   -2.3110   86.4680 C.ar  116  HIS116      0.0817
     72  ND1       -4.5060   -2.5140   86.4170 N.ar  116  HIS116     -0.2268
     73  CD2       -6.3460   -3.1480   87.4220 C.ar  116  HIS116      0.1154
     74  CE1       -4.1740   -3.4270   87.3140 C.ar  116  HIS116      0.1986
     75  NE2       -5.2720   -3.8300   87.9340 N.ar  116  HIS116     -0.2212
     76  N         -9.0730    3.3260   85.1580 N.3   118  VAL118     -0.1245
     77  CA        -8.2250    4.3410   85.7730 C.3   118  VAL118      0.1561
     78  C         -8.9190    5.6950   85.8190 C.2   118  VAL118      0.2260
     79  O         -9.3630    6.1950   84.7820 O.2   118  VAL118     -0.2867
     80  CB        -6.9040    4.4830   84.9930 C.3   118  VAL118      0.0252
     81  CG1       -5.9940    5.5090   85.6640 C.3   118  VAL118      0.0019
     82  CG2       -6.2140    3.1200   84.8330 C.3   118  VAL118      0.0019
     83  N         -4.4150   14.7530   84.6840 N.3   127  PHE127     -0.1241
     84  CA        -3.8700   13.4690   85.0780 C.3   127  PHE127      0.1605
     85  C         -2.4160   13.5810   85.5100 C.2   127  PHE127      0.2264
     86  O         -2.0120   12.9630   86.4940 O.2   127  PHE127     -0.2867
     87  CB        -4.0090   12.4800   83.9230 C.3   127  PHE127      0.0534
     88  CG        -3.4880   11.1110   84.2370 C.ar  127  PHE127     -0.0203
     89  CD1       -4.2700   10.1950   84.9290 C.ar  127  PHE127     -0.0042
     90  CD2       -2.2110   10.7380   83.8560 C.ar  127  PHE127     -0.0042
     91  CE1       -3.7940    8.9310   85.2190 C.ar  127  PHE127     -0.0003
     92  CE2       -1.7320    9.4740   84.1520 C.ar  127  PHE127     -0.0003
     93  CZ        -2.5300    8.5710   84.8360 C.ar  127  PHE127     -0.0000
     94  N         -8.1830    3.5500   91.0230 N.3   139  VAL139     -0.1245
     95  CA        -8.2600    2.5180   89.9970 C.3   139  VAL139      0.1561
     96  C         -9.2050    1.4350   90.4870 C.2   139  VAL139      0.2260
     97  O         -9.0530    0.9010   91.5900 O.2   139  VAL139     -0.2867
     98  CB        -6.8790    1.9100   89.6190 C.3   139  VAL139      0.0252
     99  CG1       -7.0550    0.8950   88.4910 C.3   139  VAL139      0.0019
    100  CG2       -5.9120    3.0010   89.1750 C.3   139  VAL139      0.0019
    101  N          0.7000    2.9300   91.0980 N.3   194  LEU194     -0.1231
    102  CA         0.7270    2.3780   89.7480 C.3   194  LEU194      0.1693
    103  C          1.4560    1.0410   89.7750 C.2   194  LEU194      0.2593
    104  O          2.4570    0.8940   90.4850 O.2   194  LEU194     -0.2718
    105  CB         1.4400    3.3220   88.7860 C.3   194  LEU194      0.0284
    106  CG         0.9260    4.7550   88.7030 C.3   194  LEU194      0.0019
    107  CD1        1.7940    5.5400   87.7350 C.3   194  LEU194      0.0001
    108  CD2       -0.5270    4.7780   88.2610 C.3   194  LEU194      0.0001
    109  N          0.9950    0.0760   88.9880 N.am  195  THR195     -0.1939
    110  CA         1.6520   -1.2320   88.9720 C.3   195  THR195      0.2028
    111  C          2.6960   -1.3590   87.8540 C.2   195  THR195      0.2643
    112  O          3.3020   -2.4220   87.6870 O.2   195  THR195     -0.2714
    113  CB         0.6470   -2.3700   88.8140 C.3   195  THR195      0.1808
    114  OG1        0.0590   -2.2830   87.5130 O.3   195  THR195     -0.2208
    115  CG2       -0.4320   -2.3150   89.9110 C.3   195  THR195      0.0379
    116  N          2.8990   -0.2890   87.0870 N.am  196  THR196     -0.1937
    117  CA         3.9870   -0.2330   86.1140 C.3   196  THR196      0.2013
    118  C          4.8110    0.9980   86.4250 C.2   196  THR196      0.2484
    119  O          4.3100    1.9370   87.0510 O.2   196  THR196     -0.2729
    120  CB         3.5030   -0.1300   84.6540 C.3   196  THR196      0.1807
    121  OG1        3.0470    1.2020   84.3940 O.3   196  THR196     -0.2208
    122  CG2        2.4010   -1.1210   84.3590 C.3   196  THR196      0.0379
    123  N          6.0730    1.0230   85.9780 N.am  197  PRO197     -0.2715
    124  CA         6.8090    2.2880   86.0350 C.3   197  PRO197      0.1521
    125  C          5.9540    3.4240   85.4770 C.2   197  PRO197      0.2440
    126  O          5.2290    3.2060   84.4990 O.2   197  PRO197     -0.2731
    127  CB         8.0350    2.0070   85.1690 C.3   197  PRO197      0.0310
    128  CG         8.2850    0.5340   85.3910 C.3   197  PRO197      0.0237
    129  CD         6.8900   -0.0610   85.3980 C.3   197  PRO197      0.0939
    130  N          6.0030    4.6080   86.1010 N.am  198  PRO198     -0.2727
    131  CA         6.9100    5.0210   87.1860 C.3   198  PRO198      0.1402
    132  C          6.5180    4.5930   88.6170 C.2   198  PRO198      0.2269
    133  O          7.1710    5.0540   89.5520 O.2   198  PRO198     -0.2865
    134  CB         6.9010    6.5490   87.0690 C.3   198  PRO198      0.0296
    135  CG         5.5610    6.8690   86.5170 C.3   198  PRO198      0.0237
    136  CD         5.1860    5.7340   85.6020 C.3   198  PRO198      0.0939
    137  N         -6.7220    2.0340   95.5510 N.3   205  TRP205     -0.1241
    138  CA        -7.1720    0.8300   94.8600 C.3   205  TRP205      0.1605
    139  C         -8.5360    0.4070   95.3640 C.2   205  TRP205      0.2264
    140  O         -8.7680    0.3610   96.5710 O.2   205  TRP205     -0.2867
    141  CB        -6.1610   -0.3220   95.0320 C.3   205  TRP205      0.0550
    142  CG        -5.0780   -0.1920   94.0290 C.ar  205  TRP205      0.0003
    143  CD1       -3.8680    0.4110   94.1980 C.ar  205  TRP205      0.0946
    144  CD2       -5.1450   -0.5920   92.6600 C.ar  205  TRP205      0.0152
    145  NE1       -3.1640    0.3920   93.0190 N.ar  205  TRP205     -0.2442
    146  CE2       -3.9290   -0.2190   92.0580 C.ar  205  TRP205      0.0810
    147  CE3       -6.1190   -1.2370   91.8870 C.ar  205  TRP205      0.0012
    148  CZ2       -3.6560   -0.4680   90.7170 C.ar  205  TRP205      0.0191
    149  CZ3       -5.8460   -1.5010   90.5570 C.ar  205  TRP205      0.0001
    150  CH2       -4.6230   -1.1120   89.9800 C.ar  205  TRP205      0.0015
@<TRIPOS>BOND
     1    16    15   ar
     2    15    17   ar
     3    15    14    1
     4     4     3    2
     5    12    11    2
     6    13    14    1
     7    13    10    1
     8     9    10    1
     9     3     2    1
    10     1     2    1
    11    11    10    1
    12    11    18   am
    13     2     5    1
    14     5     6    1
    15    18    19    1
    16    20    19    1
    17    20    21    2
    18    19    22    1
    19    27    25   ar
    20    27    28   ar
    21     6     8   am
    22     6     7    2
    23    25    23   ar
    24    28    26   ar
    25    23    22    1
    26    23    24   ar
    27    26    24   ar
    28    32    31    2
    29    41    38    1
    30    41    42    1
    31    50    47    1
    32    50    51    1
    33    47    46    1
    34    47    48    1
    35    38    39    1
    36    38    37    1
    37    31    37   am
    38    31    30    1
    39    42    43    1
    40    34    36    1
    41    34    33    1
    42    48    49    2
    43    44    43    2
    44    39    40    2
    45    43    45   am
    46    51    52   ar
    47    51    53   ar
    48    30    33    1
    49    30    29    1
    50    33    35    1
    51    52    54   ar
    52    56    57    1
    53    58    57    1
    54    58    59    2
    55    53    55   ar
    56    57    60    1
    57    54    55   ar
    58    69    68    2
    59    60    61    1
    60    90    92   ar
    61    90    88   ar
    62    62    61   ar
    63    62    64   ar
    64    87    88    1
    65    87    84    1
    66    61    63   ar
    67    92    93   ar
    68    64    65   ar
    69    88    89   ar
    70   122   120    1
    71   121   120    1
    72   126   125    2
    73    63    65   ar
    74   120   117    1
    75    83    84    1
    76    66    67    1
    77    79    78    2
    78    68    67    1
    79    82    80    1
    80    93    91   ar
    81    89    91   ar
    82    80    81    1
    83    80    77    1
    84    84    85    1
    85    76    77    1
    86   127   128    1
    87   127   124    1
    88   128   129    1
    89   129   123    1
    90   125   124    1
    91   125   130   am
    92    67    70    1
    93    85    86    2
    94    70    71    1
    95   136   130    1
    96   136   135    1
    97    77    78    1
    98   123   124    1
    99   123   118   am
   100   130   131    1
   101   117   118    1
   102   117   116    1
   103    72    71   ar
   104    72    74   ar
   105   118   119    2
   106    71    73   ar
   107   135   134    1
   108   134   131    1
   109   116   111   am
   110   131   132    1
   111    74    75   ar
   112    73    75   ar
   113   114   113    1
   114   112   111    2
   115   107   106    1
   116   111   110    1
   117   108   106    1
   118    99    98    1
   119   132   133    2
   120   106   105    1
   121   105   102    1
   122   113   110    1
   123   113   115    1
   124   110   109    1
   125   109   103   am
   126   100    98    1
   127    98    95    1
   128   102   103    1
   129   102   101    1
   130   103   104    2
   131   150   149   ar
   132   150   148   ar
   133    95    96    1
   134    95    94    1
   135    96    97    2
   136   149   147   ar
   137   148   146   ar
   138   147   144   ar
   139   146   144   ar
   140   146   145   ar
   141   144   142   ar
   142   145   143   ar
   143   142   143   ar
   144   142   141    1
   145   138   141    1
   146   138   139    1
   147   138   137    1
   148   139   140    2
