@<TRIPOS>MOLECULE
tmp/5eknA00.pdb
 189 179 0 0 0
SMALL
GASTEIGER

@<TRIPOS>ATOM
      1  N         -9.2670    4.5580  -39.0550 N.3    30  VAL30      -0.1245
      2  CA        -8.3250    5.3600  -38.2860 C.3    30  VAL30       0.1561
      3  C         -7.8030    4.5940  -37.0760 C.2    30  VAL30       0.2260
      4  O         -6.5990    4.5830  -36.8090 O.2    30  VAL30      -0.2867
      5  CB        -8.9490    6.7050  -37.8570 C.3    30  VAL30       0.0252
      6  CG1       -7.9610    7.4940  -37.0080 C.3    30  VAL30       0.0019
      7  CG2       -9.3630    7.4980  -39.0780 C.3    30  VAL30       0.0019
      8  N        -13.0540    3.9280  -34.9230 N.3    38  VAL38      -0.1245
      9  CA       -13.0530    5.2820  -35.4670 C.3    38  VAL38       0.1561
     10  C        -12.5230    5.2550  -36.8930 C.2    38  VAL38       0.2260
     11  O        -11.4620    4.6730  -37.1610 O.2    38  VAL38      -0.2867
     12  CB       -12.2160    6.2490  -34.6060 C.3    38  VAL38       0.0252
     13  CG1      -12.1780    7.6250  -35.2510 C.3    38  VAL38       0.0019
     14  CG2      -12.7750    6.3360  -33.1870 C.3    38  VAL38       0.0019
     15  N        -14.3900   12.9200  -38.3440 N.3    51  ALA51      -0.1245
     16  CA       -14.0670   11.6430  -37.7270 C.3    51  ALA51       0.1562
     17  C        -15.3500   11.0430  -37.1760 C.2    51  ALA51       0.2260
     18  O        -16.1100   11.7300  -36.4840 O.2    51  ALA51      -0.2867
     19  CB       -13.0290   11.8170  -36.6160 C.3    51  ALA51       0.0290
     20  N        -17.0650    7.8080  -35.0120 N.3    53  LYS53      -0.1245
     21  CA       -16.8550    6.7150  -34.0730 C.3    53  LYS53       0.1561
     22  C        -18.1130    5.8600  -34.0200 C.2    53  LYS53       0.2260
     23  O        -19.1850    6.3480  -33.6400 O.2    53  LYS53      -0.2867
     24  CB       -16.5060    7.2400  -32.6790 C.3    53  LYS53       0.0271
     25  CG       -16.3410    6.1360  -31.6330 C.3    53  LYS53       0.0035
     26  CD       -15.9970    6.6950  -30.2620 C.3    53  LYS53       0.0206
     27  CE       -15.9690    5.5980  -29.2050 C.3    53  LYS53       0.1093
     28  NZ       -15.6860    6.1410  -27.8430 N.3    53  LYS53      -0.1314
     29  N        -23.2540    8.7320  -21.3530 N.3    70  ARG70      -0.1231
     30  CA       -22.5030    9.8270  -20.7550 C.3    70  ARG70       0.1694
     31  C        -21.5910   10.4990  -21.7760 C.2    70  ARG70       0.2591
     32  O        -21.4720   11.7300  -21.7900 O.2    70  ARG70      -0.2718
     33  CB       -21.6900    9.3300  -19.5620 C.3    70  ARG70       0.0321
     34  CG       -20.9210   10.4420  -18.8730 C.3    70  ARG70       0.0489
     35  CD       -19.9760    9.9280  -17.8050 C.3    70  ARG70       0.2205
     36  NE       -19.0930   10.9980  -17.3550 N.pl3  70  ARG70      -0.0865
     37  CZ       -19.4440   11.9280  -16.4730 C.cat  70  ARG70       0.5346
     38  NH1      -20.6600   11.9140  -15.9420 N.pl3  70  ARG70       0.1354
     39  NH2      -18.5820   12.8730  -16.1210 N.pl3  70  ARG70       0.1354
     40  N        -20.9390    9.7140  -22.6410 N.am   71  GLU71      -0.1979
     41  CA       -20.0540   10.3150  -23.6350 C.3    71  GLU71       0.1602
     42  C        -20.8330   11.1900  -24.6070 C.2    71  GLU71       0.2287
     43  O        -20.3860   12.2880  -24.9620 O.2    71  GLU71      -0.2864
     44  CB       -19.2780    9.2400  -24.3940 C.3    71  GLU71       0.0415
     45  CG       -18.3670    9.7970  -25.4870 C.3    71  GLU71       0.1163
     46  CD       -17.5300    8.7250  -26.1510 C.2    71  GLU71       0.3649
     47  OE1      -16.2880    8.7350  -25.9900 O.co2  71  GLU71      -0.2457
     48  OE2      -18.1190    7.8600  -26.8260 O.co2  71  GLU71      -0.2457
     49  N        -21.6870   14.4460  -22.6950 N.3    74  LEU74      -0.1231
     50  CA       -20.5160   15.3060  -22.5570 C.3    74  LEU74       0.1693
     51  C        -20.1780   15.9820  -23.8750 C.2    74  LEU74       0.2591
     52  O        -20.0270   17.2090  -23.9380 O.2    74  LEU74      -0.2718
     53  CB       -19.3190   14.4940  -22.0590 C.3    74  LEU74       0.0284
     54  CG       -19.2610   14.1380  -20.5770 C.3    74  LEU74       0.0019
     55  CD1      -18.3240   12.9630  -20.3410 C.3    74  LEU74       0.0001
     56  CD2      -18.8030   15.3490  -19.7910 C.3    74  LEU74       0.0001
     57  N        -20.0550   15.1920  -24.9460 N.am   75  LEU75      -0.1980
     58  CA       -19.7430   15.7720  -26.2480 C.3    75  LEU75       0.1596
     59  C        -20.8040   16.7720  -26.6780 C.2    75  LEU75       0.2287
     60  O        -20.5000   17.7240  -27.4050 O.2    75  LEU75      -0.2864
     61  CB       -19.5890   14.6700  -27.2930 C.3    75  LEU75       0.0297
     62  CG       -18.3940   13.7330  -27.0910 C.3    75  LEU75       0.0022
     63  CD1      -18.4770   12.5420  -28.0230 C.3    75  LEU75       0.0001
     64  CD2      -17.0870   14.4730  -27.3010 C.3    75  LEU75       0.0001
     65  N        -20.1980   20.3330  -24.2860 N.3    78  MET78      -0.1245
     66  CA       -18.9890   21.1470  -24.3670 C.3    78  MET78       0.1570
     67  C        -18.9650   21.9280  -25.6750 C.2    78  MET78       0.2261
     68  O        -19.0420   21.3370  -26.7560 O.2    78  MET78      -0.2867
     69  CB       -17.7460   20.2690  -24.2470 C.3    78  MET78       0.0387
     70  CG       -17.6450   19.5270  -22.9350 C.3    78  MET78       0.0595
     71  SD       -17.8200   20.6410  -21.5280 S.3    78  MET78      -0.1393
     72  CE       -17.6210   19.4970  -20.1650 C.3    78  MET78       0.0692
     73  N        -11.8370   21.8990  -26.7720 N.3    83  VAL83      -0.1231
     74  CA       -12.4600   20.6730  -26.2850 C.3    83  VAL83       0.1692
     75  C        -13.1860   20.0260  -27.4540 C.2    83  VAL83       0.2591
     76  O        -13.9510   20.6970  -28.1560 O.2    83  VAL83      -0.2718
     77  CB       -13.4370   20.9460  -25.1230 C.3    83  VAL83       0.0266
     78  CG1      -14.1490   19.6690  -24.6990 C.3    83  VAL83       0.0020
     79  CG2      -12.7010   21.5550  -23.9510 C.3    83  VAL83       0.0020
     80  N        -12.9390   18.7320  -27.6740 N.am   84  ILE84      -0.1980
     81  CA       -13.5890   18.0380  -28.7800 C.3    84  ILE84       0.1595
     82  C        -15.1000   18.1350  -28.6090 C.2    84  ILE84       0.2287
     83  O        -15.6310   18.0030  -27.4980 O.2    84  ILE84      -0.2864
     84  CB       -13.1110   16.5760  -28.8650 C.3    84  ILE84       0.0276
     85  CG1      -13.7050   15.8740  -30.0870 C.3    84  ILE84       0.0022
     86  CG2      -13.4700   15.7910  -27.6100 C.3    84  ILE84       0.0022
     87  CD1      -13.1300   16.3290  -31.3960 C.3    84  ILE84       0.0001
     88  N        -20.8800    8.7370  -33.6630 N.3   104  LEU104     -0.1245
     89  CA       -20.5730   10.1020  -33.2550 C.3   104  LEU104      0.1561
     90  C        -19.7000   10.7680  -34.3100 C.2   104  LEU104      0.2260
     91  O        -18.7290   10.1700  -34.7860 O.2   104  LEU104     -0.2867
     92  CB       -19.8800   10.1210  -31.8910 C.3   104  LEU104      0.0270
     93  CG       -20.8070    9.7460  -30.7350 C.3   104  LEU104      0.0019
     94  CD1      -20.0380    9.6230  -29.4350 C.3   104  LEU104      0.0001
     95  CD2      -21.9230   10.7700  -30.6050 C.3   104  LEU104      0.0001
     96  N        -17.3190   14.0700  -35.2520 N.3   106  MET106     -0.1231
     97  CA       -16.4560   15.0220  -34.5740 C.3   106  MET106      0.1687
     98  C        -15.5180   15.6530  -35.5880 C.2   106  MET106      0.2434
     99  O        -15.3050   15.1020  -36.6730 O.2   106  MET106     -0.2733
    100  CB       -15.6420   14.3390  -33.4650 C.3   106  MET106      0.0400
    101  CG       -16.4640   13.8580  -32.2820 C.3   106  MET106      0.0596
    102  SD       -15.6830   12.4660  -31.4480 S.3   106  MET106     -0.1393
    103  CE       -15.7800   11.2160  -32.7280 C.3   106  MET106      0.0692
    104  N        -14.9500   16.8150  -35.2700 N.am  107  PRO107     -0.2718
    105  CA       -13.8830   17.3620  -36.1160 C.3   107  PRO107      0.1535
    106  C        -12.6800   16.4280  -36.1390 C.2   107  PRO107      0.2599
    107  O        -12.2720   15.8850  -35.1100 O.2   107  PRO107     -0.2715
    108  CB       -13.5470   18.6990  -35.4460 C.3   107  PRO107      0.0310
    109  CG       -14.7690   19.0450  -34.6490 C.3   107  PRO107      0.0237
    110  CD       -15.3330   17.7420  -34.1890 C.3   107  PRO107      0.0939
    111  N        -12.1110   16.2400  -37.3240 N.am  108  PHE108     -0.1960
    112  CA       -10.9800   15.3370  -37.4630 C.3   108  PHE108      0.1771
    113  C         -9.6890   16.0010  -36.9990 C.2   108  PHE108      0.2619
    114  O         -9.4040   17.1540  -37.3390 O.2   108  PHE108     -0.2715
    115  CB       -10.8320   14.8720  -38.9100 C.3   108  PHE108      0.0574
    116  CG        -9.7080   13.9050  -39.1140 C.ar  108  PHE108     -0.0200
    117  CD1       -9.8950   12.5500  -38.8900 C.ar  108  PHE108     -0.0042
    118  CD2       -8.4610   14.3490  -39.5130 C.ar  108  PHE108     -0.0042
    119  CE1       -8.8580   11.6560  -39.0700 C.ar  108  PHE108     -0.0003
    120  CE2       -7.4220   13.4620  -39.6920 C.ar  108  PHE108     -0.0003
    121  CZ        -7.6200   12.1130  -39.4720 C.ar  108  PHE108     -0.0000
    122  N         -8.9020   15.2580  -36.2230 N.am  109  MET109     -0.1977
    123  CA        -7.6090   15.7080  -35.7290 C.3   109  MET109      0.1605
    124  C         -6.5290   14.7870  -36.2760 C.2   109  MET109      0.2287
    125  O         -6.6350   13.5630  -36.1510 O.2   109  MET109     -0.2864
    126  CB        -7.5740   15.7230  -34.1970 C.3   109  MET109      0.0413
    127  CG        -8.6900   16.5310  -33.5400 C.3   109  MET109      0.0598
    128  SD        -8.6910   18.2730  -34.0070 S.3   109  MET109     -0.1393
    129  CE        -7.0310   18.7560  -33.5360 C.3   109  MET109      0.0692
    130  N        -13.8880   23.0240  -19.1340 N.3   140  ILE140     -0.1245
    131  CA       -14.5620   21.8270  -18.6320 C.3   140  ILE140      0.1561
    132  C        -14.7000   21.8780  -17.1120 C.2   140  ILE140      0.2260
    133  O        -15.7090   21.4210  -16.5560 O.2   140  ILE140     -0.2867
    134  CB       -13.8480   20.5390  -19.0930 C.3   140  ILE140      0.0252
    135  CG1      -12.4050   20.4930  -18.6010 C.3   140  ILE140      0.0019
    136  CG2      -13.9110   20.3840  -20.6130 C.3   140  ILE140      0.0019
    137  CD1      -11.7890   19.1150  -18.7290 C.3   140  ILE140      0.0001
    138  N        -16.9320   19.4990  -14.7660 N.3   145  VAL145     -0.1245
    139  CA       -16.4310   18.2180  -15.2510 C.3   145  VAL145      0.1561
    140  C        -14.9210   18.2000  -15.0790 C.2   145  VAL145      0.2260
    141  O        -14.2310   19.1420  -15.4850 O.2   145  VAL145     -0.2867
    142  CB       -16.8180   17.9780  -16.7200 C.3   145  VAL145      0.0252
    143  CG1      -16.1650   16.7110  -17.2370 C.3   145  VAL145      0.0019
    144  CG2      -18.3330   17.9030  -16.8700 C.3   145  VAL145      0.0019
    145  N        -11.3960   15.8730  -15.7450 N.3   147  HIS147     -0.1241
    146  CA       -10.9430   14.8490  -16.6790 C.3   147  HIS147      0.1621
    147  C        -10.4450   13.5960  -15.9600 C.2   147  HIS147      0.2264
    148  O        -10.8120   12.4770  -16.3360 O.2   147  HIS147     -0.2867
    149  CB        -9.8500   15.4250  -17.5840 C.3   147  HIS147      0.0745
    150  CG        -9.6110   14.6220  -18.8220 C.ar  147  HIS147      0.0817
    151  ND1       -9.0070   13.3840  -18.7990 N.ar  147  HIS147     -0.2268
    152  CD2       -9.9000   14.8760  -20.1200 C.ar  147  HIS147      0.1154
    153  CE1       -8.9320   12.9110  -20.0300 C.ar  147  HIS147      0.1986
    154  NE2       -9.4660   13.7970  -20.8510 N.ar  147  HIS147     -0.2212
    155  N         -8.9600   18.6230  -26.2620 N.3   165  ILE165     -0.1231
    156  CA        -8.8860   17.6360  -25.1850 C.3   165  ILE165      0.1692
    157  C         -9.8710   16.5090  -25.4650 C.2   165  ILE165      0.2592
    158  O        -11.0220   16.7610  -25.8360 O.2   165  ILE165     -0.2718
    159  CB        -9.1670   18.2980  -23.8220 C.3   165  ILE165      0.0266
    160  CG1       -8.1940   19.4570  -23.5900 C.3   165  ILE165      0.0019
    161  CG2       -9.0830   17.2800  -22.6910 C.3   165  ILE165      0.0020
    162  CD1       -8.3880   20.1690  -22.2770 C.3   165  ILE165      0.0001
    163  N         -9.4230   15.2620  -25.2800 N.am  166  LEU166     -0.1966
    164  CA       -10.2000   14.0580  -25.5760 C.3   166  LEU166      0.1728
    165  C        -10.2490   13.1520  -24.3520 C.2   166  LEU166      0.2616
    166  O         -9.6220   13.4260  -23.3250 O.2   166  LEU166     -0.2715
    167  CB        -9.6000   13.2660  -26.7420 C.3   166  LEU166      0.0311
    168  CG        -9.1300   13.9810  -27.9980 C.3   166  LEU166      0.0022
    169  CD1       -8.1620   13.0810  -28.7400 C.3   166  LEU166      0.0001
    170  CD2      -10.3050   14.3220  -28.8810 C.3   166  LEU166      0.0001
    171  N        -10.9690   12.0360  -24.4900 N.am  167  ASP167     -0.1957
    172  CA       -11.0630   11.0300  -23.4400 C.3   167  ASP167      0.1840
    173  C        -11.6050    9.7250  -24.0140 C.2   167  ASP167      0.2622
    174  O        -12.4080    9.7290  -24.9490 O.2   167  ASP167     -0.2715
    175  CB       -11.9590   11.5070  -22.2890 C.3   167  ASP167      0.1450
    176  CG       -11.9160   10.5750  -21.0890 C.2   167  ASP167      0.3671
    177  OD1      -11.2530    9.5190  -21.1720 O.co2 167  ASP167     -0.2456
    178  OD2      -12.5520   10.8960  -20.0640 O.co2 167  ASP167     -0.2456
    179  N        -11.1510    8.6100  -23.4300 N.am  168  PHE168     -0.1974
    180  CA       -11.6960    7.2580  -23.6680 C.3   168  PHE168      0.1639
    181  C        -11.1510    6.2550  -22.6380 C.2   168  PHE168      0.2290
    182  O        -11.8840    5.7270  -21.7920 O.2   168  PHE168     -0.2864
    183  CB       -11.3880    6.7530  -25.0900 C.3   168  PHE168      0.0560
    184  CG       -10.2050    7.4220  -25.7410 C.ar  168  PHE168     -0.0200
    185  CD1       -8.9400    7.3400  -25.1800 C.ar  168  PHE168     -0.0042
    186  CD2      -10.3590    8.1220  -26.9290 C.ar  168  PHE168     -0.0042
    187  CE1       -7.8550    7.9600  -25.7820 C.ar  168  PHE168     -0.0003
    188  CE2       -9.2770    8.7400  -27.5380 C.ar  168  PHE168     -0.0003
    189  CZ        -8.0250    8.6590  -26.9640 C.ar  168  PHE168     -0.0000
@<TRIPOS>BOND
     1   120   118   ar
     2   120   121   ar
     3   118   116   ar
     4   121   119   ar
     5   116   115    1
     6   116   117   ar
     7     7     5    1
     8   119   117   ar
     9     1     2    1
    10   115   112    1
    11    15    16    1
    12     2     5    1
    13     2     3    1
    14     5     6    1
    15    16    17    1
    16    16    19    1
    17   112   111    1
    18   112   113    1
    19   114   113    2
    20   111   106   am
    21    17    18    2
    22    11    10    2
    23     3     4    2
    24   113   122   am
    25    10     9    1
    26    99    98    2
    27   124   125    2
    28   124   123    1
    29   122   123    1
    30   106   105    1
    31   106   107    2
    32   105   108    1
    33   105   104    1
    34   123   126    1
    35    98   104   am
    36    98    97    1
    37     9     8    1
    38     9    12    1
    39   108   109    1
    40   104   110    1
    41    96    97    1
    42    13    12    1
    43    20    21    1
    44    91    90    2
    45   109   110    1
    46    12    14    1
    47    97   100    1
    48    90    89    1
    49   126   127    1
    50    21    22    1
    51    21    24    1
    52    22    23    2
    53   128   127    1
    54   128   129    1
    55    88    89    1
    56   100   101    1
    57    89    92    1
    58   103   102    1
    59    24    25    1
    60   101   102    1
    61    92    93    1
    62    25    26    1
    63    87    85    1
    64    93    95    1
    65    93    94    1
    66    26    27    1
    67    85    84    1
    68    27    28    1
    69   170   168    1
    70    84    81    1
    71    84    86    1
    72    81    82    1
    73    81    80    1
    74   169   168    1
    75    82    83    2
    76    76    75    2
    77    63    62    1
    78   168   167    1
    79    80    75   am
    80   188   189   ar
    81   188   186   ar
    82    75    74    1
    83    60    59    2
    84    64    62    1
    85    61    62    1
    86    61    58    1
    87   189   187   ar
    88   186   184   ar
    89    48    46   ar
    90    73    74    1
    91    68    67    2
    92   167   164    1
    93    59    58    1
    94    74    77    1
    95   155   156    1
    96    58    57    1
    97    46    47   ar
    98    46    45    1
    99   158   157    2
   100   187   185   ar
   101   184   185   ar
   102   184   183    1
   103    67    66    1
   104   164   163    1
   105   164   165    1
   106    45    44    1
   107   157   163   am
   108   157   156    1
   109   156   159    1
   110    77    78    1
   111    77    79    1
   112   183   180    1
   113    43    42    2
   114   174   173    2
   115    57    51   am
   116    42    41    1
   117   171   165   am
   118   171   172    1
   119    44    41    1
   120    66    65    1
   121    66    69    1
   122   165   166    2
   123    69    70    1
   124   173   172    1
   125   173   179   am
   126    52    51    2
   127    51    50    1
   128   159   160    1
   129   159   161    1
   130   180   179    1
   131   180   181    1
   132    41    40    1
   133   160   162    1
   134   172   175    1
   135    70    71    1
   136    49    50    1
   137    40    31   am
   138   181   182    2
   139    50    53    1
   140   175   176    1
   141    53    54    1
   142    32    31    2
   143    31    30    1
   144    71    72    1
   145    29    30    1
   146   177   176   ar
   147   176   178   ar
   148   154   152   ar
   149   154   153   ar
   150    30    33    1
   151   136   134    1
   152    54    55    1
   153    54    56    1
   154   152   150   ar
   155   153   151   ar
   156    33    34    1
   157   130   131    1
   158   134   131    1
   159   134   135    1
   160    34    35    1
   161   150   151   ar
   162   150   149    1
   163   137   135    1
   164   131   132    1
   165    35    36    1
   166   149   146    1
   167    36    37    2
   168   143   142    1
   169   132   133    2
   170   144   142    1
   171   142   139    1
   172   146   147    1
   173   146   145    1
   174    37    39    1
   175    37    38    1
   176   148   147    2
   177   141   140    2
   178   139   140    1
   179   139   138    1
