@<TRIPOS>MOLECULE
tmp/5ekoA00.pdb
 164 156 0 0 0
SMALL
GASTEIGER

@<TRIPOS>ATOM
      1  N         -9.3910    4.5310  -38.7480 N.3    30  VAL30      -0.1245
      2  CA        -8.4900    5.3270  -37.9260 C.3    30  VAL30       0.1561
      3  C         -8.0190    4.5460  -36.7060 C.2    30  VAL30       0.2260
      4  O         -6.8160    4.4520  -36.4430 O.2    30  VAL30      -0.2867
      5  CB        -9.1400    6.6630  -37.5030 C.3    30  VAL30       0.0252
      6  CG1       -8.3580    7.2890  -36.3560 C.3    30  VAL30       0.0019
      7  CG2       -9.1930    7.6120  -38.6900 C.3    30  VAL30       0.0019
      8  N        -14.3950    0.3080  -26.5230 N.3    35  TYR35      -0.1241
      9  CA       -15.8480    0.2760  -26.6000 C.3    35  TYR35       0.1605
     10  C        -16.3890    0.7090  -27.9550 C.2    35  TYR35       0.2264
     11  O        -17.6100    0.8020  -28.1140 O.2    35  TYR35      -0.2867
     12  CB       -16.4590    1.1550  -25.4970 C.3    35  TYR35       0.0534
     13  CG       -15.8830    0.8550  -24.1340 C.ar   35  TYR35      -0.0201
     14  CD1      -16.0590   -0.3940  -23.5480 C.ar   35  TYR35      -0.0009
     15  CD2      -15.1470    1.8090  -23.4420 C.ar   35  TYR35      -0.0009
     16  CE1      -15.5250   -0.6840  -22.3080 C.ar   35  TYR35       0.0417
     17  CE2      -14.6070    1.5290  -22.2000 C.ar   35  TYR35       0.0417
     18  CZ       -14.8000    0.2810  -21.6380 C.ar   35  TYR35       0.1957
     19  OH       -14.2710   -0.0070  -20.3990 O.3    35  TYR35      -0.2866
     20  N        -13.1850    3.9980  -34.7190 N.3    38  VAL38      -0.1245
     21  CA       -13.2140    5.3170  -35.3380 C.3    38  VAL38       0.1561
     22  C        -12.7220    5.2110  -36.7720 C.2    38  VAL38       0.2260
     23  O        -11.7230    4.5310  -37.0550 O.2    38  VAL38      -0.2867
     24  CB       -12.3540    6.3380  -34.5610 C.3    38  VAL38       0.0252
     25  CG1      -12.4640    7.7250  -35.2060 C.3    38  VAL38       0.0019
     26  CG2      -12.7650    6.3780  -33.1020 C.3    38  VAL38       0.0019
     27  N        -14.3170   12.8860  -37.9440 N.3    51  ALA51      -0.1245
     28  CA       -14.1490   11.5800  -37.3310 C.3    51  ALA51       0.1562
     29  C        -15.5110   11.0400  -36.9270 C.2    51  ALA51       0.2260
     30  O        -16.3640   11.7820  -36.4330 O.2    51  ALA51      -0.2867
     31  CB       -13.2260   11.6540  -36.1160 C.3    51  ALA51       0.0290
     32  N        -17.1330    7.8590  -34.7190 N.3    53  LYS53      -0.1245
     33  CA       -16.9470    6.7620  -33.7840 C.3    53  LYS53       0.1561
     34  C        -18.2070    5.9080  -33.7670 C.2    53  LYS53       0.2260
     35  O        -19.2900    6.3950  -33.4230 O.2    53  LYS53      -0.2867
     36  CB       -16.6350    7.2760  -32.3810 C.3    53  LYS53       0.0271
     37  CG       -16.5750    6.1700  -31.3300 C.3    53  LYS53       0.0035
     38  CD       -16.1980    6.7330  -29.9770 C.3    53  LYS53       0.0206
     39  CE       -16.0390    5.6430  -28.9420 C.3    53  LYS53       0.1093
     40  NZ       -15.5050    6.1970  -27.6660 N.3    53  LYS53      -0.1314
     41  N        -22.3070    4.0530  -19.9700 N.3    67  ARG67      -0.1245
     42  CA       -21.0660    4.6170  -20.4910 C.3    67  ARG67       0.1563
     43  C        -21.3080    5.3570  -21.8060 C.2    67  ARG67       0.2260
     44  O        -20.9190    6.5260  -21.9590 O.2    67  ARG67      -0.2867
     45  CB       -20.0420    3.4980  -20.6770 C.3    67  ARG67       0.0307
     46  CG       -18.6040    3.9220  -20.5050 C.3    67  ARG67       0.0489
     47  CD       -17.6630    2.8990  -21.1330 C.3    67  ARG67       0.2205
     48  NE       -17.8500    1.5590  -20.5910 N.pl3  67  ARG67      -0.0865
     49  CZ       -17.1430    1.0540  -19.5820 C.cat  67  ARG67       0.5346
     50  NH1      -17.3850   -0.1800  -19.1550 N.pl3  67  ARG67       0.1354
     51  NH2      -16.1920    1.7790  -19.0110 N.pl3  67  ARG67       0.1354
     52  N        -23.1890    8.5410  -21.3080 N.3    70  ARG70      -0.1231
     53  CA       -22.3790    9.5710  -20.6700 C.3    70  ARG70       0.1694
     54  C        -21.4490   10.2400  -21.6750 C.2    70  ARG70       0.2591
     55  O        -21.3440   11.4710  -21.7090 O.2    70  ARG70      -0.2718
     56  CB       -21.5830    8.9750  -19.5080 C.3    70  ARG70       0.0321
     57  CG       -20.8480   10.0260  -18.6990 C.3    70  ARG70       0.0489
     58  CD       -20.3000    9.4750  -17.3950 C.3    70  ARG70       0.2205
     59  NE       -19.4600   10.4650  -16.7300 N.pl3  70  ARG70      -0.0865
     60  CZ       -19.9240   11.4490  -15.9640 C.cat  70  ARG70       0.5346
     61  NH1      -21.2280   11.5760  -15.7570 N.pl3  70  ARG70       0.1354
     62  NH2      -19.0810   12.3080  -15.4060 N.pl3  70  ARG70       0.1354
     63  N        -20.7650    9.4460  -22.5070 N.am   71  GLU71      -0.1979
     64  CA       -19.9250   10.0380  -23.5470 C.3    71  GLU71       0.1602
     65  C        -20.7360   10.9670  -24.4440 C.2    71  GLU71       0.2287
     66  O        -20.3100   12.0910  -24.7510 O.2    71  GLU71      -0.2864
     67  CB       -19.2570    8.9350  -24.3740 C.3    71  GLU71       0.0415
     68  CG       -18.5440    9.4470  -25.6180 C.3    71  GLU71       0.1163
     69  CD       -17.6690    8.3930  -26.2790 C.2    71  GLU71       0.3649
     70  OE1      -16.5830    8.7520  -26.7900 O.co2  71  GLU71      -0.2457
     71  OE2      -18.0650    7.2060  -26.2880 O.co2  71  GLU71      -0.2457
     72  N        -21.6150   14.2550  -22.4190 N.3    74  LEU74      -0.1231
     73  CA       -20.4560   15.1030  -22.1640 C.3    74  LEU74       0.1693
     74  C        -19.9770   15.7790  -23.4420 C.2    74  LEU74       0.2591
     75  O        -19.6610   16.9780  -23.4360 O.2    74  LEU74      -0.2718
     76  CB       -19.3360   14.2800  -21.5320 C.3    74  LEU74       0.0284
     77  CG       -19.5270   13.9490  -20.0550 C.3    74  LEU74       0.0019
     78  CD1      -18.5960   12.8200  -19.6200 C.3    74  LEU74       0.0001
     79  CD2      -19.3040   15.2000  -19.2100 C.3    74  LEU74       0.0001
     80  N        -19.9180   15.0300  -24.5490 N.am   75  LEU75      -0.1980
     81  CA       -19.5530   15.6410  -25.8240 C.3    75  LEU75       0.1596
     82  C        -20.5650   16.7030  -26.2340 C.2    75  LEU75       0.2287
     83  O        -20.1910   17.7590  -26.7600 O.2    75  LEU75      -0.2864
     84  CB       -19.4330   14.5700  -26.9070 C.3    75  LEU75       0.0297
     85  CG       -18.1890   13.6910  -26.8010 C.3    75  LEU75       0.0022
     86  CD1      -18.3000   12.4960  -27.7310 C.3    75  LEU75       0.0001
     87  CD2      -16.9510   14.5100  -27.1210 C.3    75  LEU75       0.0001
     88  N        -12.9210   18.5760  -27.2710 N.3    84  ILE84      -0.1245
     89  CA       -13.5680   17.8950  -28.3860 C.3    84  ILE84       0.1561
     90  C        -15.0700   17.8460  -28.1460 C.2    84  ILE84       0.2260
     91  O        -15.5410   17.6300  -27.0190 O.2    84  ILE84      -0.2867
     92  CB       -12.9820   16.4900  -28.6100 C.3    84  ILE84       0.0252
     93  CG1      -13.4440   15.9370  -29.9640 C.3    84  ILE84       0.0019
     94  CG2      -13.3960   15.5250  -27.5040 C.3    84  ILE84       0.0019
     95  CD1      -12.7950   16.5730  -31.1490 C.3    84  ILE84       0.0001
     96  N        -17.5090   13.9870  -34.9360 N.3   106  MET106     -0.1231
     97  CA       -16.6510   14.9400  -34.2500 C.3   106  MET106      0.1687
     98  C        -15.6860   15.5320  -35.2640 C.2   106  MET106      0.2434
     99  O        -15.5050   14.9700  -36.3500 O.2   106  MET106     -0.2733
    100  CB       -15.8620   14.2450  -33.1290 C.3   106  MET106      0.0400
    101  CG       -16.7200   13.6000  -32.0610 C.3   106  MET106      0.0596
    102  SD       -15.8570   12.2360  -31.2680 S.3   106  MET106     -0.1393
    103  CE       -16.0420   10.9680  -32.5180 C.3   106  MET106      0.0692
    104  N        -15.0430   16.6580  -34.9420 N.am  107  PRO107     -0.2718
    105  CA       -14.0050   17.1780  -35.8390 C.3   107  PRO107      0.1535
    106  C        -12.8100   16.2400  -35.8720 C.2   107  PRO107      0.2599
    107  O        -12.4220   15.6670  -34.8530 O.2   107  PRO107     -0.2715
    108  CB       -13.6310   18.5350  -35.2210 C.3   107  PRO107      0.0310
    109  CG       -14.7140   18.8380  -34.2350 C.3   107  PRO107      0.0237
    110  CD       -15.2270   17.5220  -33.7630 C.3   107  PRO107      0.0939
    111  N        -12.2260   16.0820  -37.0540 N.am  108  PHE108     -0.1960
    112  CA       -11.1100   15.1630  -37.2100 C.3   108  PHE108      0.1771
    113  C         -9.8300   15.7770  -36.6600 C.2   108  PHE108      0.2619
    114  O         -9.4870   16.9170  -36.9830 O.2   108  PHE108     -0.2715
    115  CB       -10.9180   14.7870  -38.6810 C.3   108  PHE108      0.0574
    116  CG        -9.7820   13.8400  -38.9080 C.ar  108  PHE108     -0.0200
    117  CD1       -9.9190   12.4910  -38.6120 C.ar  108  PHE108     -0.0042
    118  CD2       -8.5700   14.2970  -39.3980 C.ar  108  PHE108     -0.0042
    119  CE1       -8.8690   11.6070  -38.8110 C.ar  108  PHE108     -0.0003
    120  CE2       -7.5130   13.4210  -39.5970 C.ar  108  PHE108     -0.0003
    121  CZ        -7.6640   12.0740  -39.3030 C.ar  108  PHE108     -0.0000
    122  N         -9.1230   15.0180  -35.8270 N.am  109  MET109     -0.1977
    123  CA        -7.8290   15.4290  -35.2980 C.3   109  MET109      0.1605
    124  C         -6.7680   14.4770  -35.8310 C.2   109  MET109      0.2287
    125  O         -6.8800   13.2570  -35.6600 O.2   109  MET109     -0.2864
    126  CB        -7.8330   15.4510  -33.7690 C.3   109  MET109      0.0413
    127  CG        -8.8790   16.3910  -33.1650 C.3   109  MET109      0.0598
    128  SD        -8.7250   18.1120  -33.6910 S.3   109  MET109     -0.1393
    129  CE        -7.2410   18.6160  -32.8200 C.3   109  MET109      0.0692
    130  N         -9.3430   15.2530  -25.1400 N.3   166  LEU166     -0.1231
    131  CA       -10.1710   14.0750  -25.3510 C.3   166  LEU166      0.1693
    132  C        -10.4720   13.3870  -24.0250 C.2   166  LEU166      0.2592
    133  O         -9.7140   13.5060  -23.0570 O.2   166  LEU166     -0.2718
    134  CB        -9.4830   13.0640  -26.2750 C.3   166  LEU166      0.0284
    135  CG        -9.0060   13.4850  -27.6560 C.3   166  LEU166      0.0019
    136  CD1       -8.4370   12.2740  -28.3900 C.3   166  LEU166      0.0001
    137  CD2      -10.1380   14.1220  -28.4400 C.3   166  LEU166      0.0001
    138  N        -11.5850   12.6490  -23.9980 N.am  167  ASP167     -0.1960
    139  CA       -11.8350   11.6430  -22.9610 C.3   167  ASP167      0.1840
    140  C        -11.9630   12.2640  -21.5710 C.2   167  ASP167      0.2622
    141  O        -11.5140   11.6900  -20.5800 O.2   167  ASP167     -0.2715
    142  CB       -10.7410   10.5740  -22.9600 C.3   167  ASP167      0.1450
    143  CG       -10.8720    9.6020  -24.1140 C.2   167  ASP167      0.3671
    144  OD1      -11.8240    9.7430  -24.9050 O.co2 167  ASP167     -0.2456
    145  OD2      -10.0280    8.6900  -24.2180 O.co2 167  ASP167     -0.2456
    146  N        -12.5710   13.4400  -21.4950 N.am  168  PHE168     -0.1974
    147  CA       -12.7780   14.1040  -20.2200 C.3   168  PHE168      0.1639
    148  C        -14.0230   13.5670  -19.5230 C.2   168  PHE168      0.2290
    149  O        -15.0030   13.1810  -20.1640 O.2   168  PHE168     -0.2864
    150  CB       -12.9200   15.6120  -20.4300 C.3   168  PHE168      0.0560
    151  CG       -13.9610   15.9730  -21.4440 C.ar  168  PHE168     -0.0200
    152  CD1      -15.2680   16.2160  -21.0560 C.ar  168  PHE168     -0.0042
    153  CD2      -13.6410   16.0400  -22.7910 C.ar  168  PHE168     -0.0042
    154  CE1      -16.2340   16.5300  -21.9930 C.ar  168  PHE168     -0.0003
    155  CE2      -14.6000   16.3580  -23.7310 C.ar  168  PHE168     -0.0003
    156  CZ       -15.8970   16.6080  -23.3350 C.ar  168  PHE168     -0.0000
    157  N        -14.7460   10.8690  -17.5110 N.3   170  LEU170     -0.1245
    158  CA       -15.1460    9.4620  -17.4120 C.3   170  LEU170      0.1561
    159  C        -15.7410    9.1590  -16.0380 C.2   170  LEU170      0.2260
    160  O        -15.2110    9.5930  -15.0130 O.2   170  LEU170     -0.2867
    161  CB       -13.9650    8.5180  -17.6670 C.3   170  LEU170      0.0270
    162  CG       -13.1920    8.5370  -18.9910 C.3   170  LEU170      0.0019
    163  CD1      -12.6530    7.1500  -19.3100 C.3   170  LEU170      0.0001
    164  CD2      -14.0230    9.0560  -20.1380 C.3   170  LEU170      0.0001
@<TRIPOS>BOND
     1   120   118   ar
     2   120   121   ar
     3   118   116   ar
     4   121   119   ar
     5   116   115    1
     6   116   117   ar
     7   119   117   ar
     8     1     2    1
     9     7     5    1
    10   115   112    1
    11    27    28    1
    12     2     5    1
    13     2     3    1
    14     5     6    1
    15    28    29    1
    16    28    31    1
    17   112   111    1
    18   112   113    1
    19    23    22    2
    20   111   106   am
    21   114   113    2
    22    29    30    2
    23    22    21    1
    24     3     4    2
    25   113   122   am
    26    99    98    2
    27   106   105    1
    28   106   107    2
    29   105   108    1
    30   105   104    1
    31   124   125    2
    32   124   123    1
    33   122   123    1
    34    21    20    1
    35    21    24    1
    36   123   126    1
    37    98   104   am
    38    98    97    1
    39   108   109    1
    40    25    24    1
    41   104   110    1
    42    96    97    1
    43    32    33    1
    44    24    26    1
    45    97   100    1
    46   109   110    1
    47    33    34    1
    48    33    36    1
    49   126   127    1
    50    34    35    2
    51   128   127    1
    52   128   129    1
    53   100   101    1
    54   103   102    1
    55    36    37    1
    56   101   102    1
    57    37    38    1
    58    95    93    1
    59    38    39    1
    60    93    92    1
    61    39    40    1
    62    92    89    1
    63    92    94    1
    64   137   135    1
    65   136   135    1
    66    89    90    1
    67    89    88    1
    68    90    91    2
    69    11    10    2
    70    10     9    1
    71    86    85    1
    72   135   134    1
    73    87    85    1
    74    84    85    1
    75    84    81    1
    76    70    69   ar
    77    83    82    2
    78     9     8    1
    79     9    12    1
    80    71    69   ar
    81    69    68    1
    82   134   131    1
    83    82    81    1
    84    81    80    1
    85    68    67    1
    86    12    13    1
    87   131   130    1
    88   131   132    1
    89   144   143   ar
    90    66    65    2
    91    80    74   am
    92    65    64    1
    93    67    64    1
    94   145   143   ar
    95    13    14   ar
    96    13    15   ar
    97   143   142    1
    98   132   138   am
    99   132   133    2
   100   138   139    1
   101   155   156   ar
   102   155   153   ar
   103    14    16   ar
   104    64    63    1
   105    15    17   ar
   106    74    75    2
   107    74    73    1
   108   156   154   ar
   109   139   142    1
   110   139   140    1
   111   153   151   ar
   112    63    54   am
   113    72    73    1
   114    16    18   ar
   115    17    18   ar
   116    73    76    1
   117   154   152   ar
   118    44    43    2
   119    43    42    1
   120    55    54    2
   121    54    53    1
   122    18    19    1
   123   140   146   am
   124   140   141    2
   125    76    77    1
   126   146   147    1
   127   151   152   ar
   128   151   150    1
   129    52    53    1
   130    47    48    1
   131    47    46    1
   132    45    46    1
   133    45    42    1
   134    53    56    1
   135    48    49    2
   136    42    41    1
   137   150   147    1
   138   147   148    1
   139   149   148    2
   140   164   162    1
   141    77    78    1
   142    77    79    1
   143    49    50    1
   144    49    51    1
   145    56    57    1
   146   163   162    1
   147   162   161    1
   148    57    58    1
   149   161   158    1
   150   157   158    1
   151   158   159    1
   152    58    59    1
   153    59    60    2
   154   159   160    2
   155    60    61    1
   156    60    62    1
