@<TRIPOS>MOLECULE
tmp/5ekpA00.pdb
 106 103 0 0 0
SMALL
GASTEIGER

@<TRIPOS>ATOM
      1  N        -48.7630   42.5510   -8.1470 N.3    14  PRO14      -0.2102
      2  CA       -48.7890   43.4220   -6.9680 C.3    14  PRO14       0.1504
      3  C        -48.1820   44.7750   -7.2970 C.2    14  PRO14       0.2576
      4  O        -47.1850   44.8690   -8.0180 O.2    14  PRO14      -0.2718
      5  CB       -47.9450   42.6560   -5.9450 C.3    14  PRO14       0.0282
      6  CG       -47.0150   41.8350   -6.7760 C.3    14  PRO14       0.0208
      7  CD       -47.7870   41.4570   -8.0130 C.3    14  PRO14       0.0893
      8  N        -48.7980   45.8320   -6.7700 N.am   15  MET15      -0.1966
      9  CA       -48.4150   47.1960   -7.1120 C.3    15  MET15       0.1736
     10  C        -48.2370   48.0180   -5.8450 C.2    15  MET15       0.2616
     11  O        -49.1630   48.1230   -5.0340 O.2    15  MET15      -0.2715
     12  CB       -49.4520   47.8430   -8.0330 C.3    15  MET15       0.0427
     13  CG       -49.5340   47.1870   -9.3980 C.3    15  MET15       0.0599
     14  SD       -50.7390   47.9560  -10.4880 S.3    15  MET15      -0.1393
     15  CE       -50.5470   46.9440  -11.9540 C.3    15  MET15       0.0692
     16  N        -47.0460   48.5940   -5.6790 N.am   16  TYR16      -0.1974
     17  CA       -46.7680   49.5500   -4.6110 C.3    16  TYR16       0.1639
     18  C        -45.9570   50.6890   -5.2120 C.2    16  TYR16       0.2290
     19  O        -44.7810   50.5050   -5.5450 O.2    16  TYR16      -0.2864
     20  CB       -46.0220   48.9000   -3.4470 C.3    16  TYR16       0.0560
     21  CG       -45.6390   49.8730   -2.3550 C.ar   16  TYR16      -0.0198
     22  CD1      -46.6090   50.5850   -1.6620 C.ar   16  TYR16      -0.0009
     23  CD2      -44.3080   50.0770   -2.0120 C.ar   16  TYR16      -0.0009
     24  CE1      -46.2670   51.4770   -0.6640 C.ar   16  TYR16       0.0417
     25  CE2      -43.9560   50.9680   -1.0120 C.ar   16  TYR16       0.0417
     26  CZ       -44.9380   51.6630   -0.3410 C.ar   16  TYR16       0.1957
     27  OH       -44.5950   52.5510    0.6530 O.3    16  TYR16      -0.2866
     28  N        -46.3530   52.4300   -8.1980 N.3    18  GLU18      -0.1245
     29  CA       -46.0670   52.1830   -9.6060 C.3    18  GLU18       0.1567
     30  C        -46.8620   53.1390  -10.4880 C.2    18  GLU18       0.2260
     31  O        -47.4530   52.7430  -11.4950 O.2    18  GLU18      -0.2867
     32  CB       -46.3670   50.7330   -9.9750 C.3    18  GLU18       0.0388
     33  CG       -45.6290   49.7110   -9.1220 C.3    18  GLU18       0.1160
     34  CD       -44.1310   49.7220   -9.3610 C.2    18  GLU18       0.3649
     35  OE1      -43.7040   50.1170  -10.4640 O.co2  18  GLU18      -0.2457
     36  OE2      -43.3830   49.3350   -8.4400 O.co2  18  GLU18      -0.2457
     37  N        -51.2370   47.4460   -3.1010 N.3    47  ASP47      -0.1239
     38  CA       -50.6680   47.0980   -1.8000 C.3    47  ASP47       0.1674
     39  C        -50.4050   48.3580   -0.9720 C.2    47  ASP47       0.2266
     40  O        -49.2890   48.6410   -0.5390 O.2    47  ASP47      -0.2867
     41  CB       -49.4000   46.2750   -1.9880 C.3    47  ASP47       0.1410
     42  CG       -48.8980   45.6690   -0.6910 C.2    47  ASP47       0.3668
     43  OD1      -49.6920   45.5720    0.2680 O.co2  47  ASP47      -0.2456
     44  OD2      -47.7090   45.2890   -0.6330 O.co2  47  ASP47      -0.2456
     45  N        -50.4710   48.4810    3.5400 N.3    75  ASN75      -0.1225
     46  CA       -49.3210   47.9030    2.8610 C.3    75  ASN75       0.1785
     47  C        -48.8710   46.6420    3.5880 C.2    75  ASN75       0.2597
     48  O        -48.5140   46.6930    4.7690 O.2    75  ASN75      -0.2718
     49  CB       -48.1720   48.9070    2.7790 C.3    75  ASN75       0.1169
     50  CG       -46.9150   48.3030    2.1840 C.2    75  ASN75       0.2627
     51  OD1      -46.0510   47.8040    2.9050 O.2    75  ASN75      -0.2716
     52  ND2      -46.8100   48.3380    0.8600 N.am   75  ASN75      -0.0877
     53  N        -48.8880   45.5190    2.8810 N.am   76  PHE76      -0.1962
     54  CA       -48.3330   44.2640    3.3540 C.3    76  PHE76       0.1771
     55  C        -47.0450   43.9760    2.5900 C.2    76  PHE76       0.2620
     56  O        -46.5200   44.8310    1.8690 O.2    76  PHE76      -0.2715
     57  CB       -49.3550   43.1350    3.1920 C.3    76  PHE76       0.0574
     58  CG       -50.5790   43.2930    4.0510 C.ar   76  PHE76      -0.0200
     59  CD1      -50.6770   42.6350    5.2660 C.ar   76  PHE76      -0.0042
     60  CD2      -51.6320   44.0930    3.6430 C.ar   76  PHE76      -0.0042
     61  CE1      -51.8040   42.7730    6.0570 C.ar   76  PHE76      -0.0003
     62  CE2      -52.7600   44.2390    4.4320 C.ar   76  PHE76      -0.0003
     63  CZ       -52.8440   43.5770    5.6400 C.ar   76  PHE76      -0.0000
     64  N        -46.5290   42.7640    2.7460 N.am   77  GLY77      -0.1940
     65  CA       -45.3790   42.3520    1.9730 C.3    77  GLY77       0.2014
     66  C        -45.7470   42.0640    0.5310 C.2    77  GLY77       0.2638
     67  O        -46.9160   41.9600    0.1580 O.2    77  GLY77      -0.2714
     68  N        -44.7130   41.9420   -0.3070 N.am   78  LYS78      -0.1977
     69  CA       -44.9440   41.5400   -1.6900 C.3    78  LYS78       0.1596
     70  C        -45.5150   40.1300   -1.7550 C.2    78  LYS78       0.2287
     71  O        -46.3610   39.8310   -2.6060 O.2    78  LYS78      -0.2864
     72  CB       -43.6500   41.6290   -2.4970 C.3    78  LYS78       0.0298
     73  CG       -43.7980   41.1290   -3.9250 C.3    78  LYS78       0.0038
     74  CD       -42.4540   40.8200   -4.5610 C.3    78  LYS78       0.0206
     75  CE       -42.6410   40.1610   -5.9190 C.3    78  LYS78       0.1093
     76  NZ       -41.3470   39.7540   -6.5290 N.3    78  LYS78      -0.1314
     77  N        -44.0420   41.1090  -11.9970 N.3    98  ASP98      -0.1225
     78  CA       -43.7650   42.3630  -11.3120 C.3    98  ASP98       0.1805
     79  C        -44.1430   43.5510  -12.1920 C.2    98  ASP98       0.2598
     80  O        -44.1620   43.4610  -13.4230 O.2    98  ASP98      -0.2718
     81  CB       -42.2900   42.4600  -10.9230 C.3    98  ASP98       0.1424
     82  CG       -41.9210   41.5170   -9.7970 C.2    98  ASP98       0.3668
     83  OD1      -42.8340   41.0850   -9.0620 O.co2  98  ASP98      -0.2456
     84  OD2      -40.7200   41.2130   -9.6440 O.co2  98  ASP98      -0.2456
     85  N        -44.4410   44.6750  -11.5410 N.am   99  ALA99      -0.1966
     86  CA       -44.8600   45.8670  -12.2690 C.3    99  ALA99       0.1728
     87  C        -43.6850   46.6020  -12.9000 C.2    99  ALA99       0.2616
     88  O        -43.8320   47.1800  -13.9830 O.2    99  ALA99      -0.2715
     89  CB       -45.6310   46.8090  -11.3420 C.3    99  ALA99       0.0334
     90  N        -42.5180   46.5930  -12.2530 N.am  100  ASP100     -0.1971
     91  CA       -41.3600   47.2960  -12.7910 C.3   100  ASP100      0.1709
     92  C        -40.7150   46.5650  -13.9620 C.2   100  ASP100      0.2293
     93  O        -39.7190   47.0570  -14.5030 O.2   100  ASP100     -0.2864
     94  CB       -40.3270   47.5500  -11.6860 C.3   100  ASP100      0.1436
     95  CG       -39.6410   46.2840  -11.2040 C.2   100  ASP100      0.3671
     96  OD1      -40.2510   45.1950  -11.2550 O.co2 100  ASP100     -0.2456
     97  OD2      -38.4810   46.3860  -10.7540 O.co2 100  ASP100     -0.2456
     98  N        -39.0080   43.5310  -14.5900 N.3   102  GLN102     -0.1245
     99  CA       -37.6290   43.0730  -14.4780 C.3   102  GLN102      0.1566
    100  C        -37.3260   41.8900  -15.3880 C.2   102  GLN102      0.2260
    101  O        -36.1580   41.6670  -15.7210 O.2   102  GLN102     -0.2867
    102  CB       -37.3150   42.7130  -13.0240 C.3   102  GLN102      0.0367
    103  CG       -37.0810   43.9260  -12.1370 C.3   102  GLN102      0.0905
    104  CD       -37.3070   43.6390  -10.6650 C.2   102  GLN102      0.2608
    105  OE1      -37.9150   42.6330  -10.3030 O.2   102  GLN102     -0.2717
    106  NE2      -36.8230   44.5300   -9.8080 N.am  102  GLN102     -0.0878
@<TRIPOS>BOND
     1   101   100    2
     2   100    99    1
     3    98    99    1
     4    93    92    2
     5    99   102    1
     6    88    87    2
     7    92    91    1
     8    80    79    2
     9   102   103    1
    10    87    86    1
    11    87    90   am
    12    91    90    1
    13    91    94    1
    14    86    85    1
    15    86    89    1
    16    79    85   am
    17    79    78    1
    18   103   104    1
    19    77    78    1
    20    15    14    1
    21    94    95    1
    22    31    30    2
    23    78    81    1
    24    96    95   ar
    25    95    97   ar
    26    81    82    1
    27   104   105    2
    28   104   106   am
    29    30    29    1
    30    14    13    1
    31    35    34   ar
    32    32    29    1
    33    32    33    1
    34    82    84   ar
    35    82    83   ar
    36    29    28    1
    37    13    12    1
    38    34    33    1
    39    34    36   ar
    40     1     7    1
    41     1     2    1
    42    12     9    1
    43     4     3    2
    44     7     6    1
    45     3     2    1
    46     3     8   am
    47     9     8    1
    48     9    10    1
    49     2     5    1
    50     6     5    1
    51    76    75    1
    52    75    74    1
    53    10    16   am
    54    10    11    2
    55    16    17    1
    56    19    18    2
    57    18    17    1
    58    17    20    1
    59    74    73    1
    60    73    72    1
    61    20    21    1
    62    37    38    1
    63    71    70    2
    64    72    69    1
    65    21    23   ar
    66    21    22   ar
    67    23    25   ar
    68    41    38    1
    69    41    42    1
    70    38    39    1
    71    70    69    1
    72    69    68    1
    73    22    24   ar
    74    25    26   ar
    75    39    40    2
    76    42    44   ar
    77    42    43   ar
    78    24    26   ar
    79    26    27    1
    80    68    66   am
    81    67    66    2
    82    66    65    1
    83    52    50   am
    84    56    55    2
    85    65    64    1
    86    50    49    1
    87    50    51    2
    88    55    64   am
    89    55    54    1
    90    49    46    1
    91    46    45    1
    92    46    47    1
    93    53    54    1
    94    53    47   am
    95    57    54    1
    96    57    58    1
    97    47    48    2
    98    60    58   ar
    99    60    62   ar
   100    58    59   ar
   101    62    63   ar
   102    59    61   ar
   103    63    61   ar
