@<TRIPOS>MOLECULE
tmp/5ekuB00.pdb
 183 174 0 0 0
SMALL
GASTEIGER

@<TRIPOS>ATOM
      1  N         20.4980  105.2900   54.0610 N.3    37  HIS37      -0.1241
      2  CA        20.5730  106.0830   55.2790 C.3    37  HIS37       0.1621
      3  C         21.9910  106.2180   55.8270 C.2    37  HIS37       0.2264
      4  O         22.4030  107.3180   56.1940 O.2    37  HIS37      -0.2867
      5  CB        19.6300  105.5000   56.3340 C.3    37  HIS37       0.0745
      6  CG        18.1830  105.6970   56.0020 C.ar   37  HIS37       0.0817
      7  ND1       17.4590  106.7820   56.4470 N.ar   37  HIS37      -0.2268
      8  CD2       17.3330  104.9620   55.2460 C.ar   37  HIS37       0.1154
      9  CE1       16.2230  106.7020   55.9890 C.ar   37  HIS37       0.1986
     10  NE2       16.1200  105.6060   55.2580 N.ar   37  HIS37      -0.2212
     11  N         23.6460  108.7990   53.9170 N.3    40  MET40      -0.1230
     12  CA        23.0800  110.1160   54.2010 C.3    40  MET40       0.1702
     13  C         23.6970  110.7230   55.4510 C.2    40  MET40       0.2592
     14  O         24.0580  111.8960   55.4700 O.2    40  MET40      -0.2718
     15  CB        21.5600  110.0450   54.3840 C.3    40  MET40       0.0401
     16  CG        20.7650  109.6480   53.1540 C.3    40  MET40       0.0596
     17  SD        18.9870  109.8580   53.4020 S.3    40  MET40      -0.1393
     18  CE        18.8280  109.3900   55.1200 C.3    40  MET40       0.0692
     19  N         23.8070  109.9110   56.4960 N.am   41  MET41      -0.1979
     20  CA        24.2450  110.3920   57.8020 C.3    41  MET41       0.1605
     21  C         25.7240  110.7590   57.8180 C.2    41  MET41       0.2287
     22  O         26.1650  111.5500   58.6540 O.2    41  MET41      -0.2864
     23  CB        23.9510  109.3390   58.8680 C.3    41  MET41       0.0413
     24  CG        22.4980  108.9060   58.9030 C.3    41  MET41       0.0598
     25  SD        22.1680  107.6840   60.1800 S.3    41  MET41      -0.1393
     26  CE        20.8630  108.4980   61.0820 C.3    41  MET41       0.0692
     27  N         25.9340  117.8410   54.3160 N.3    46  ARG46      -0.1245
     28  CA        24.4770  117.8600   54.2590 C.3    46  ARG46       0.1563
     29  C         23.8790  118.1010   55.6400 C.2    46  ARG46       0.2260
     30  O         23.0020  118.9480   55.8090 O.2    46  ARG46      -0.2867
     31  CB        23.9560  116.5450   53.6840 C.3    46  ARG46       0.0307
     32  CG        22.4980  116.2560   53.9570 C.3    46  ARG46       0.0489
     33  CD        22.1660  114.8430   53.5280 C.3    46  ARG46       0.2205
     34  NE        20.9080  114.3820   54.0960 N.pl3  46  ARG46      -0.0865
     35  CZ        20.7850  113.8780   55.3170 C.cat  46  ARG46       0.5346
     36  NH1       21.8460  113.7690   56.1060 N.pl3  46  ARG46       0.1354
     37  NH2       19.6000  113.4840   55.7500 N.pl3  46  ARG46       0.1354
     38  N          8.6790  118.1950   60.0570 N.3    66  GLU66      -0.1231
     39  CA         9.5340  117.5760   59.0510 C.3    66  GLU66       0.1699
     40  C          8.7760  116.5790   58.1780 C.2    66  GLU66       0.2592
     41  O          8.0640  115.7090   58.6810 O.2    66  GLU66      -0.2718
     42  CB        10.7260  116.8700   59.7020 C.3    66  GLU66       0.0402
     43  CG        11.4920  115.9970   58.7220 C.3    66  GLU66       0.1161
     44  CD        12.7810  115.4510   59.2860 C.2    66  GLU66       0.3649
     45  OE1       12.8450  115.1920   60.5020 O.co2  66  GLU66      -0.2457
     46  OE2       13.7370  115.2740   58.5050 O.co2  66  GLU66      -0.2457
     47  N          8.9370  116.7120   56.8650 N.am   67  ILE67      -0.1966
     48  CA         8.4070  115.7290   55.9320 C.3    67  ILE67       0.1727
     49  C          9.4680  114.6780   55.6470 C.2    67  ILE67       0.2617
     50  O         10.5880  115.0060   55.2540 O.2    67  ILE67      -0.2715
     51  CB         7.9550  116.3710   54.6110 C.3    67  ILE67       0.0290
     52  CG1        6.8490  117.3990   54.8680 C.3    67  ILE67       0.0022
     53  CG2        7.4750  115.3030   53.6410 C.3    67  ILE67       0.0023
     54  CD1        6.3270  118.0610   53.6130 C.3    67  ILE67       0.0001
     55  N          9.1180  113.4150   55.8520 N.am   68  GLY68      -0.1940
     56  CA        10.0630  112.3360   55.6580 C.3    68  GLY68       0.2014
     57  C         11.1490  112.3410   56.7120 C.2    68  GLY68       0.2639
     58  O         12.2580  112.8240   56.4800 O.2    68  GLY68      -0.2714
     59  N         10.8220  111.7970   57.8780 N.am   69  ALA69      -0.1963
     60  CA        11.7370  111.7880   59.0110 C.3    69  ALA69       0.1728
     61  C         12.8140  110.7280   58.8660 C.2    69  ALA69       0.2617
     62  O         13.9590  110.9430   59.2560 O.2    69  ALA69      -0.2715
     63  CB        10.9720  111.5650   60.2920 C.3    69  ALA69       0.0334
     64  N         12.4310  109.5780   58.3200 N.am   70  GLY70      -0.1940
     65  CA        13.3270  108.4440   58.2140 C.3    70  GLY70       0.2014
     66  C         13.9230  108.0820   59.5610 C.2    70  GLY70       0.2639
     67  O         13.2350  107.5770   60.4440 O.2    70  GLY70      -0.2714
     68  N         15.2110  108.3620   59.7190 N.am   71  SER71      -0.1949
     69  CA        15.9220  108.0620   60.9530 C.3    71  SER71       0.1924
     70  C         15.6490  109.1070   62.0260 C.2    71  SER71       0.2314
     71  O         15.7820  108.8330   63.2160 O.2    71  SER71      -0.2863
     72  CB        17.4190  107.9770   60.6920 C.3    71  SER71       0.2116
     73  OG        17.9220  109.2450   60.3090 O.3    71  SER71      -0.2180
     74  N         17.1820  112.1770   62.1770 N.3    73  LEU73      -0.1231
     75  CA        18.3560  113.0060   62.4440 C.3    73  LEU73       0.1693
     76  C         18.0630  114.5020   62.3390 C.2    73  LEU73       0.2591
     77  O         18.4770  115.2810   63.2000 O.2    73  LEU73      -0.2718
     78  CB        19.4950  112.6390   61.4930 C.3    73  LEU73       0.0284
     79  CG        20.7000  113.5810   61.5490 C.3    73  LEU73       0.0019
     80  CD1       21.2650  113.6590   62.9660 C.3    73  LEU73       0.0001
     81  CD2       21.7730  113.1440   60.5670 C.3    73  LEU73       0.0001
     82  N         17.3570  114.9050   61.2880 N.am   74  LEU74      -0.1980
     83  CA        17.0300  116.3140   61.1140 C.3    74  LEU74       0.1596
     84  C         16.0830  116.7910   62.2160 C.2    74  LEU74       0.2287
     85  O         16.2470  117.8860   62.7560 O.2    74  LEU74      -0.2864
     86  CB        16.4210  116.5590   59.7340 C.3    74  LEU74       0.0297
     87  CG        17.3640  116.2360   58.5700 C.3    74  LEU74       0.0022
     88  CD1       16.8350  116.7610   57.2330 C.3    74  LEU74       0.0001
     89  CD2       18.7620  116.7730   58.8500 C.3    74  LEU74       0.0001
     90  N          6.9860  113.3270   60.1780 N.3    89  VAL89      -0.1231
     91  CA         6.1570  112.3890   59.4390 C.3    89  VAL89       0.1692
     92  C          7.0240  111.4020   58.6550 C.2    89  VAL89       0.2592
     93  O          8.0630  111.7750   58.1080 O.2    89  VAL89      -0.2718
     94  CB         5.2020  113.1370   58.4970 C.3    89  VAL89       0.0266
     95  CG1        4.3590  112.1680   57.7030 C.3    89  VAL89       0.0020
     96  CG2        4.3150  114.0660   59.3010 C.3    89  VAL89       0.0020
     97  N          6.6060  110.1390   58.6300 N.am   90  GLU90      -0.1966
     98  CA         7.3270  109.0970   57.9120 C.3    90  GLU90       0.1733
     99  C          6.3540  108.0790   57.3260 C.2    90  GLU90       0.2617
    100  O          5.4770  107.5770   58.0270 O.2    90  GLU90      -0.2715
    101  CB         8.3350  108.4040   58.8300 C.3    90  GLU90       0.0429
    102  CG         8.9630  107.1580   58.2220 C.3    90  GLU90       0.1163
    103  CD         9.5890  107.4230   56.8640 C.2    90  GLU90       0.3649
    104  OE1       10.2140  108.4900   56.6950 O.co2  90  GLU90      -0.2457
    105  OE2        9.4540  106.5660   55.9650 O.co2  90  GLU90      -0.2457
    106  N          6.5270  107.7750   56.0410 N.am   91  GLY91      -0.1940
    107  CA         5.5790  106.9640   55.2960 C.3    91  GLY91       0.2014
    108  C          5.5860  105.4780   55.5960 C.2    91  GLY91       0.2639
    109  O          4.5250  104.8620   55.7220 O.2    91  GLY91      -0.2714
    110  N          6.7740  104.8920   55.7020 N.am   92  SER92      -0.1949
    111  CA         6.8780  103.4630   55.9810 C.3    92  SER92       0.1924
    112  C          6.9230  103.1830   57.4840 C.2    92  SER92       0.2314
    113  O          7.4510  103.9780   58.2640 O.2    92  SER92      -0.2863
    114  CB         8.1030  102.8680   55.2830 C.3    92  SER92       0.2116
    115  OG         7.9470  102.9150   53.8710 O.3    92  SER92      -0.2180
    116  N         10.5570  102.4030   59.4040 N.3    95  LEU95      -0.1245
    117  CA        11.3660  103.6070   59.5370 C.3    95  LEU95       0.1561
    118  C         10.8150  104.5070   60.6400 C.2    95  LEU95       0.2260
    119  O         11.5670  105.2300   61.2930 O.2    95  LEU95      -0.2867
    120  CB        11.4290  104.3660   58.2120 C.3    95  LEU95       0.0270
    121  CG        12.5630  103.9440   57.2780 C.3    95  LEU95       0.0019
    122  CD1       12.4570  104.6570   55.9490 C.3    95  LEU95       0.0001
    123  CD2       13.9060  104.2290   57.9280 C.3    95  LEU95       0.0001
    124  N          2.5740  108.0510   58.6860 N.3   117  MET117     -0.1230
    125  CA         1.6840  108.3830   57.5830 C.3   117  MET117      0.1702
    126  C          2.4760  109.0360   56.4680 C.2   117  MET117      0.2592
    127  O          3.6680  109.3060   56.6140 O.2   117  MET117     -0.2718
    128  CB         0.5590  109.3140   58.0420 C.3   117  MET117      0.0401
    129  CG         1.0290  110.6970   58.4570 C.3   117  MET117      0.0596
    130  SD        -0.1580  111.5310   59.5270 S.3   117  MET117     -0.1393
    131  CE        -1.7030  110.9470   58.8390 C.3   117  MET117      0.0692
    132  N          1.8150  109.2770   55.3440 N.am  118  MET118     -0.1965
    133  CA         2.3890  110.1260   54.3210 C.3   118  MET118      0.1736
    134  C          1.9550  111.5540   54.6180 C.2   118  MET118      0.2617
    135  O          0.9080  111.7680   55.2280 O.2   118  MET118     -0.2715
    136  CB         1.9480  109.6830   52.9260 C.3   118  MET118      0.0427
    137  CG         2.6120  108.4010   52.4450 C.3   118  MET118      0.0599
    138  SD         4.2130  108.7350   51.6830 S.3   118  MET118     -0.1393
    139  CE         4.9850  107.1220   51.7590 C.3   118  MET118      0.0692
    140  N          2.7560  112.5280   54.1990 N.am  119  SER119     -0.1950
    141  CA         2.4350  113.9320   54.4430 C.3   119  SER119      0.1924
    142  C          1.1100  114.3190   53.7870 C.2   119  SER119      0.2314
    143  O          0.4950  115.3220   54.1540 O.2   119  SER119     -0.2863
    144  CB         3.5570  114.8410   53.9330 C.3   119  SER119      0.2116
    145  OG         3.5960  114.8630   52.5160 O.3   119  SER119     -0.2180
    146  N         14.0430  116.8420   53.6190 N.3   137  GLU137     -0.1231
    147  CA        15.0090  116.3020   52.6780 C.3   137  GLU137      0.1699
    148  C         14.3320  115.1450   51.9580 C.2   137  GLU137      0.2592
    149  O         14.2590  114.0280   52.4700 O.2   137  GLU137     -0.2718
    150  CB        16.3050  115.8580   53.3630 C.3   137  GLU137      0.0402
    151  CG        17.3920  115.3990   52.3820 C.3   137  GLU137      0.1161
    152  CD        17.2670  113.9380   51.9780 C.2   137  GLU137      0.3649
    153  OE1       16.8010  113.1280   52.8070 O.co2 137  GLU137     -0.2457
    154  OE2       17.6070  113.6000   50.8260 O.co2 137  GLU137     -0.2457
    155  N         13.7910  115.4390   50.7830 N.am  138  ILE138     -0.1980
    156  CA        13.2130  114.4080   49.9380 C.3   138  ILE138      0.1595
    157  C         13.6840  114.6240   48.5040 C.2   138  ILE138      0.2287
    158  O         12.9160  114.4980   47.5530 O.2   138  ILE138     -0.2864
    159  CB        11.6730  114.3880   50.0230 C.3   138  ILE138      0.0276
    160  CG1       11.1090  115.8060   50.0860 C.3   138  ILE138      0.0022
    161  CG2       11.2200  113.6120   51.2500 C.3   138  ILE138      0.0022
    162  CD1        9.6020  115.8440   50.2650 C.3   138  ILE138      0.0001
    163  N         12.0630  112.3710   43.7160 N.3   146  GLU146     -0.1245
    164  CA        11.1130  111.7590   44.6360 C.3   146  GLU146      0.1567
    165  C         10.0090  112.7370   45.0270 C.2   146  GLU146      0.2260
    166  O          9.4720  112.6700   46.1310 O.2   146  GLU146     -0.2867
    167  CB        11.8190  111.2110   45.8810 C.3   146  GLU146      0.0388
    168  CG        13.1890  110.5860   45.6050 C.3   146  GLU146      0.1160
    169  CD        13.9790  110.2860   46.8760 C.2   146  GLU146      0.3649
    170  OE1       13.4890  109.4930   47.7110 O.co2 146  GLU146     -0.2457
    171  OE2       15.0890  110.8360   47.0400 O.co2 146  GLU146     -0.2457
    172  N          5.0540  117.3190   47.3770 N.3   151  TYR151     -0.1241
    173  CA         4.7530  117.0260   48.7770 C.3   151  TYR151      0.1605
    174  C          4.7460  118.2830   49.6420 C.2   151  TYR151      0.2264
    175  O          3.9140  118.4210   50.5390 O.2   151  TYR151     -0.2867
    176  CB         5.7520  116.0120   49.3360 C.3   151  TYR151      0.0534
    177  CG         5.4930  114.6000   48.8720 C.ar  151  TYR151     -0.0201
    178  CD1        4.2210  114.0470   48.9490 C.ar  151  TYR151     -0.0009
    179  CD2        6.5150  113.8240   48.3430 C.ar  151  TYR151     -0.0009
    180  CE1        3.9770  112.7560   48.5210 C.ar  151  TYR151      0.0417
    181  CE2        6.2810  112.5340   47.9100 C.ar  151  TYR151      0.0417
    182  CZ         5.0110  112.0050   48.0020 C.ar  151  TYR151      0.1957
    183  OH         4.7740  110.7190   47.5730 O.3   151  TYR151     -0.2866
@<TRIPOS>BOND
     1   163   164    1
     2   164   165    1
     3   164   167    1
     4   165   166    2
     5   168   167    1
     6   168   169    1
     7   169   171   ar
     8   169   170   ar
     9   172   173    1
    10   158   157    2
    11   183   182    1
    12   181   182   ar
    13   181   179   ar
    14   182   180   ar
    15   179   177   ar
    16   157   156    1
    17   180   178   ar
    18   173   176    1
    19   173   174    1
    20   177   178   ar
    21   177   176    1
    22   174   175    2
    23   156   159    1
    24   156   155    1
    25   159   160    1
    26   159   161    1
    27   160   162    1
    28   155   148   am
    29   154   152   ar
    30   138   139    1
    31   138   137    1
    32   148   149    2
    33   148   147    1
    34   152   151    1
    35   152   153   ar
    36   151   150    1
    37   137   136    1
    38   145   144    1
    39   147   150    1
    40   147   146    1
    41   136   133    1
    42    16    17    1
    43    16    15    1
    44    17    18    1
    45    33    32    1
    46    33    34    1
    47    54    52    1
    48    53    51    1
    49    31    32    1
    50    31    28    1
    51   142   143    2
    52   142   141    1
    53   115   114    1
    54    11    12    1
    55   144   141    1
    56     1     2    1
    57    34    35    2
    58   140   141    1
    59   140   134   am
    60    12    15    1
    61    12    13    1
    62    28    27    1
    63    28    29    1
    64   133   134    1
    65   133   132    1
    66    51    52    1
    67    51    48    1
    68   134   135    2
    69     8    10   ar
    70     8     6   ar
    71    50    49    2
    72    10     9   ar
    73     2     3    1
    74     2     5    1
    75   114   111    1
    76   107   108    1
    77   107   106    1
    78    35    37    1
    79    35    36    1
    80   132   126   am
    81    13    14    2
    82    13    19   am
    83   108   110   am
    84   108   109    2
    85    29    30    2
    86    49    55   am
    87    49    48    1
    88    56    55    1
    89    56    57    1
    90   110   111    1
    91     3     4    2
    92    48    47    1
    93   122   121    1
    94   105   103   ar
    95   111   112    1
    96     9     7   ar
    97     6     5    1
    98     6     7   ar
    99   106    99   am
   100   126   127    2
   101   126   125    1
   102    58    57    2
   103    19    20    1
   104   104   103   ar
   105    57    59   am
   106   103   102    1
   107    47    40   am
   108    88    87    1
   109   121   123    1
   110   121   120    1
   111    99    98    1
   112    99   100    2
   113   112   113    2
   114   125   128    1
   115   125   124    1
   116    95    94    1
   117    20    21    1
   118    20    23    1
   119    21    22    2
   120    59    60    1
   121    98    97    1
   122    98   101    1
   123   128   129    1
   124    93    92    2
   125    40    41    2
   126    40    39    1
   127   120   117    1
   128    65    64    1
   129    65    66    1
   130   102   101    1
   131    64    61   am
   132   129   130    1
   133    94    96    1
   134    94    91    1
   135    46    44   ar
   136    87    89    1
   137    87    86    1
   138    97    92   am
   139    92    91    1
   140    43    44    1
   141    43    42    1
   142   131   130    1
   143    61    60    1
   144    61    62    2
   145    23    24    1
   146    24    25    1
   147    60    63    1
   148    39    42    1
   149    39    38    1
   150    44    45   ar
   151   116   117    1
   152    91    90    1
   153   117   118    1
   154    66    68   am
   155    66    67    2
   156    68    69    1
   157    86    83    1
   158    25    26    1
   159    73    72    1
   160    81    79    1
   161   118   119    2
   162    72    69    1
   163    69    70    1
   164    83    82    1
   165    83    84    1
   166    82    76   am
   167    78    79    1
   168    78    75    1
   169    79    80    1
   170    70    71    2
   171    74    75    1
   172    84    85    2
   173    76    75    1
   174    76    77    2
