@<TRIPOS>MOLECULE
tmp/5el0A00.pdb
 169 164 0 0 0
SMALL
GASTEIGER

@<TRIPOS>ATOM
      1  N         13.8090  214.0560  214.1220 N.3     9  GLY9       -0.1210
      2  CA        12.8700  213.2490  214.8850 C.3     9  GLY9        0.1956
      3  C         11.8670  214.0880  215.6510 C.2     9  GLY9        0.2612
      4  O         11.6260  213.8690  216.8450 O.2     9  GLY9       -0.2717
      5  N         11.2660  215.0580  214.9650 N.am   10  ALA10      -0.1965
      6  CA        10.2420  215.9120  215.5680 C.3    10  ALA10       0.1728
      7  C          8.8670  215.2350  215.4930 C.2    10  ALA10       0.2617
      8  O          7.9050  215.7590  214.9310 O.2    10  ALA10      -0.2715
      9  CB        10.2320  217.2710  214.8830 C.3    10  ALA10       0.0334
     10  N          8.7920  214.0400  216.0810 N.am   11  SER11      -0.1936
     11  CA         7.6060  213.1930  216.0750 C.3    11  SER11       0.2055
     12  C          6.7820  213.4130  217.3360 C.2    11  SER11       0.2642
     13  O          7.2430  214.0130  218.3110 O.2    11  SER11      -0.2714
     14  CB         8.0160  211.7250  215.9710 C.3    11  SER11       0.2130
     15  OG         9.1550  211.4820  216.7950 O.3    11  SER11      -0.2179
     16  N          5.5520  212.8890  217.3210 N.am   12  ARG12      -0.1977
     17  CA         4.6740  213.0360  218.4790 C.3    12  ARG12       0.1597
     18  C          5.3610  212.4770  219.7180 C.2    12  ARG12       0.2287
     19  O          6.1160  211.5040  219.6510 O.2    12  ARG12      -0.2864
     20  CB         3.3270  212.3260  218.2450 C.3    12  ARG12       0.0334
     21  CG         3.3860  210.8190  218.1430 C.3    12  ARG12       0.0492
     22  CD         2.0100  210.2650  217.8080 C.3    12  ARG12       0.2205
     23  NE         1.9400  208.8310  217.6980 N.pl3  12  ARG12      -0.0865
     24  CZ         1.8350  207.9520  218.6710 C.cat  12  ARG12       0.5346
     25  NH1        1.7380  208.4000  219.9050 N.pl3  12  ARG12       0.1354
     26  NH2        1.7550  206.6750  218.3780 N.pl3  12  ARG12       0.1354
     27  N         13.9260  218.7550  210.8410 N.3    32  CYS32      -0.1221
     28  CA        14.2560  217.9190  209.6960 C.3    32  CYS32       0.1808
     29  C         13.2470  216.7840  209.6130 C.2    32  CYS32       0.2602
     30  O         12.9390  216.1500  210.6250 O.2    32  CYS32      -0.2717
     31  CB        15.6720  217.3590  209.8260 C.3    32  CYS32       0.0970
     32  SG        16.9320  218.6270  210.0370 S.3    32  CYS32      -0.0800
     33  N         12.7350  216.5340  208.4140 N.am   33  SER33      -0.1938
     34  CA        11.7080  215.5210  208.2400 C.3    33  SER33       0.2055
     35  C         11.7680  215.0310  206.8010 C.2    33  SER33       0.2643
     36  O         12.2340  215.7490  205.9150 O.2    33  SER33      -0.2714
     37  CB        10.3230  216.0930  208.5800 C.3    33  SER33       0.2130
     38  OG         9.3060  215.4800  207.8230 O.3    33  SER33      -0.2179
     39  N         11.2940  213.8040  206.5740 N.am   34  ARG34      -0.1963
     40  CA        11.1950  213.3190  205.2020 C.3    34  ARG34       0.1729
     41  C         10.0730  213.9900  204.4270 C.2    34  ARG34       0.2616
     42  O         10.0620  213.9200  203.1910 O.2    34  ARG34      -0.2715
     43  CB        10.9740  211.8080  205.1830 C.3    34  ARG34       0.0348
     44  CG        12.2090  211.0200  205.5340 C.3    34  ARG34       0.0492
     45  CD        11.8380  209.5900  205.9060 C.3    34  ARG34       0.2205
     46  NE        10.8800  209.5450  207.0110 N.pl3  34  ARG34      -0.0865
     47  CZ        10.5070  208.4270  207.6250 C.cat  34  ARG34       0.5346
     48  NH1       11.0230  207.2640  207.2420 N.pl3  34  ARG34       0.1354
     49  NH2        9.6270  208.4690  208.6200 N.pl3  34  ARG34       0.1354
     50  N          9.1490  214.6430  205.1180 N.am   35  GLN35      -0.1977
     51  CA         7.9310  215.1500  204.5050 C.3    35  GLN35       0.1601
     52  C          8.1400  216.5650  203.9840 C.2    35  GLN35       0.2287
     53  O          9.0100  217.3040  204.4550 O.2    35  GLN35      -0.2864
     54  CB         6.7770  215.1260  205.5100 C.3    35  GLN35       0.0394
     55  CG         6.5710  213.7250  206.1040 C.3    35  GLN35       0.0908
     56  CD         6.0600  212.7170  205.0800 C.2    35  GLN35       0.2608
     57  OE1        5.0800  212.9510  204.3790 O.2    35  GLN35      -0.2717
     58  NE2        6.7920  211.6250  204.9360 N.am   35  GLN35      -0.0878
     59  N         14.5860  216.0920  204.4390 N.3    53  VAL53      -0.1231
     60  CA        15.7900  215.2800  204.3000 C.3    53  VAL53       0.1692
     61  C         15.4530  213.8530  204.6980 C.2    53  VAL53       0.2592
     62  O         14.7130  213.6130  205.6590 O.2    53  VAL53      -0.2718
     63  CB        16.9560  215.8420  205.1390 C.3    53  VAL53       0.0266
     64  CG1       16.5570  215.9620  206.5980 C.3    53  VAL53       0.0020
     65  CG2       18.2120  214.9430  204.9950 C.3    53  VAL53       0.0020
     66  N         15.9680  212.9070  203.9240 N.am   54  ASP54      -0.1960
     67  CA        15.8930  211.4950  204.2620 C.3    54  ASP54       0.1840
     68  C         17.2250  211.1140  204.9000 C.2    54  ASP54       0.2622
     69  O         18.2420  211.0240  204.2090 O.2    54  ASP54      -0.2715
     70  CB        15.6050  210.6590  203.0160 C.3    54  ASP54       0.1450
     71  CG        15.4250  209.1880  203.3260 C.2    54  ASP54       0.3671
     72  OD1       15.8570  208.7210  204.4030 O.co2  54  ASP54      -0.2456
     73  OD2       14.8470  208.4840  202.4800 O.co2  54  ASP54      -0.2456
     74  N         17.2090  210.8740  206.2160 N.am   55  LEU55      -0.1963
     75  CA        18.4300  210.5830  206.9500 C.3    55  LEU55       0.1728
     76  C         18.9960  209.2020  206.6400 C.2    55  LEU55       0.2616
     77  O         20.0870  208.8790  207.1260 O.2    55  LEU55      -0.2715
     78  CB        18.1850  210.7180  208.4550 C.3    55  LEU55       0.0311
     79  CG        17.7630  212.1200  208.9150 C.3    55  LEU55       0.0022
     80  CD1       17.4370  212.1150  210.4170 C.3    55  LEU55       0.0001
     81  CD2       18.8440  213.1480  208.5780 C.3    55  LEU55       0.0001
     82  N         18.2850  208.3750  205.8720 N.am   56  SER56      -0.1950
     83  CA        18.8930  207.1320  205.4130 C.3    56  SER56       0.1924
     84  C         19.7350  207.3300  204.1570 C.2    56  SER56       0.2314
     85  O         20.2690  206.3490  203.6360 O.2    56  SER56      -0.2863
     86  CB        17.8180  206.0780  205.1310 C.3    56  SER56       0.2116
     87  OG        17.1030  206.4070  203.9560 O.3    56  SER56      -0.2180
     88  N         17.0490  213.1750  217.5250 N.3    85  ASN85      -0.1225
     89  CA        15.9880  212.3320  218.0570 C.3    85  ASN85       0.1785
     90  C         15.3890  211.3880  217.0230 C.2    85  ASN85       0.2597
     91  O         14.5500  210.5570  217.3880 O.2    85  ASN85      -0.2718
     92  CB        14.8630  213.1860  218.6630 C.3    85  ASN85       0.1169
     93  CG        13.8570  212.3490  219.4590 C.2    85  ASN85       0.2627
     94  OD1       14.2390  211.6000  220.3610 O.2    85  ASN85      -0.2716
     95  ND2       12.5750  212.4430  219.0970 N.am   85  ASN85      -0.0877
     96  N         15.7820  211.4850  215.7550 N.am   86  ALA86      -0.1966
     97  CA        15.2350  210.5670  214.7610 C.3    86  ALA86       0.1728
     98  C         15.6400  209.1370  215.1040 C.2    86  ALA86       0.2617
     99  O         16.7630  208.8780  215.5320 O.2    86  ALA86      -0.2715
    100  CB        15.7360  210.9370  213.3570 C.3    86  ALA86       0.0334
    101  N         14.7140  208.2040  214.9350 N.am   87  GLY87      -0.1940
    102  CA        15.0660  206.8200  215.1830 C.3    87  GLY87       0.2014
    103  C         14.0360  205.9270  214.5230 C.2    87  GLY87       0.2639
    104  O         12.8520  206.2690  214.4960 O.2    87  GLY87      -0.2714
    105  N         14.4690  204.7970  213.9650 N.am   88  ILE88      -0.1963
    106  CA        13.5600  203.8580  213.3270 C.3    88  ILE88       0.1727
    107  C         13.7930  202.4690  213.8990 C.2    88  ILE88       0.2617
    108  O         14.9060  202.1200  214.3060 O.2    88  ILE88      -0.2715
    109  CB        13.7160  203.8450  211.7900 C.3    88  ILE88       0.0290
    110  CG1       15.1690  203.6320  211.3680 C.3    88  ILE88       0.0022
    111  CG2       13.1360  205.1230  211.1790 C.3    88  ILE88       0.0023
    112  CD1       15.2700  203.2420  209.9040 C.3    88  ILE88       0.0001
    113  N         12.7290  201.6720  213.9110 N.am   89  SER89      -0.1936
    114  CA        12.7890  200.2600  214.3090 C.3    89  SER89       0.2040
    115  C         11.8270  199.4810  213.4210 C.2    89  SER89       0.2485
    116  O         10.6850  199.1870  213.8100 O.2    89  SER89      -0.2729
    117  CB        12.4410  200.0850  215.7920 C.3    89  SER89       0.2129
    118  OG        12.5020  198.7150  216.1850 O.3    89  SER89      -0.2179
    119  N         12.2600  199.1230  212.2110 N.am   90  PRO90      -0.2715
    120  CA        11.3710  198.4240  211.2700 C.3    90  PRO90       0.1536
    121  C         10.8920  197.0880  211.8210 C.2    90  PRO90       0.2598
    122  O         11.6180  196.3880  212.5290 O.2    90  PRO90      -0.2715
    123  CB        12.2530  198.2410  210.0280 C.3    90  PRO90       0.0310
    124  CG        13.2770  199.3580  210.1370 C.3    90  PRO90       0.0237
    125  CD        13.5640  199.4490  211.6080 C.3    90  PRO90       0.0939
    126  N          9.6470  196.7450  211.4940 N.am   91  LYS91      -0.1978
    127  CA         9.0270  195.5260  211.9940 C.3    91  LYS91       0.1596
    128  C          9.0510  194.4310  210.9350 C.2    91  LYS91       0.2287
    129  O          9.0870  194.7070  209.7350 O.2    91  LYS91      -0.2864
    130  CB         7.5880  195.7990  212.4360 C.3    91  LYS91       0.0298
    131  CG         7.5110  196.9050  213.4910 C.3    91  LYS91       0.0038
    132  CD         6.4170  196.6080  214.5040 C.3    91  LYS91       0.0206
    133  CE         5.6560  197.8650  214.9110 C.3    91  LYS91       0.1093
    134  NZ         4.3920  198.0530  214.1260 N.3    91  LYS91      -0.1314
    135  N         20.2490  205.7960  209.9230 N.3   114  VAL114     -0.1245
    136  CA        19.3900  206.8390  210.4990 C.3   114  VAL114      0.1561
    137  C         19.7420  207.0780  211.9690 C.2   114  VAL114      0.2260
    138  O         19.8660  208.2240  212.4210 O.2   114  VAL114     -0.2867
    139  CB        17.8960  206.4670  210.3340 C.3   114  VAL114      0.0252
    140  CG1       16.9950  207.4400  211.1190 C.3   114  VAL114      0.0019
    141  CG2       17.4970  206.4650  208.8490 C.3   114  VAL114      0.0019
    142  N          7.5120  206.1010  221.9660 N.3   191  THR191     -0.1203
    143  CA         6.3580  205.5560  221.2510 C.3   191  THR191      0.1994
    144  C          6.3860  205.8870  219.7680 C.2   191  THR191      0.2618
    145  O          5.6320  205.2820  218.9930 O.2   191  THR191     -0.2717
    146  CB         5.0530  206.0700  221.8610 C.3   191  THR191      0.1784
    147  OG1        5.0720  207.5040  221.9000 O.3   191  THR191     -0.2211
    148  CG2        4.8800  205.5270  223.2670 C.3   191  THR191      0.0376
    149  N          7.2410  206.8180  219.3550 N.am  192  ALA192     -0.1965
    150  CA         7.3880  207.0890  217.9380 C.3   192  ALA192      0.1728
    151  C          7.7970  205.8480  217.1510 C.2   192  ALA192      0.2616
    152  O          7.4710  205.7610  215.9740 O.2   192  ALA192     -0.2715
    153  CB         8.3890  208.2190  217.7140 C.3   192  ALA192      0.0334
    154  N          8.4830  204.8670  217.7510 N.am  193  ILE193     -0.1963
    155  CA         8.8950  203.7040  216.9570 C.3   193  ILE193      0.1727
    156  C          7.8200  202.6190  216.8990 C.2   193  ILE193      0.2616
    157  O          8.0250  201.5870  216.2440 O.2   193  ILE193     -0.2715
    158  CB        10.2120  203.0650  217.4470 C.3   193  ILE193      0.0290
    159  CG1       10.0280  202.3960  218.8090 C.3   193  ILE193      0.0022
    160  CG2       11.3380  204.0860  217.4670 C.3   193  ILE193      0.0023
    161  CD1       11.2140  201.5360  219.1960 C.3   193  ILE193      0.0001
    162  N          6.6830  202.8200  217.5510 N.am  194  LEU194     -0.1977
    163  CA         5.6280  201.8090  217.5530 C.3   194  LEU194      0.1596
    164  C          4.9650  201.7060  216.1780 C.2   194  LEU194      0.2287
    165  O          4.6480  202.7220  215.5500 O.2   194  LEU194     -0.2864
    166  CB         4.5810  202.1300  218.6230 C.3   194  LEU194      0.0297
    167  CG         5.0170  201.9490  220.0770 C.3   194  LEU194      0.0022
    168  CD1        3.9120  202.4480  220.9780 C.3   194  LEU194      0.0001
    169  CD2        5.3090  200.5070  220.4040 C.3   194  LEU194      0.0001
@<TRIPOS>BOND
     1    73    71   ar
     2    70    71    1
     3    70    67    1
     4    42    41    2
     5    71    72   ar
     6    85    84    2
     7    66    67    1
     8    66    61   am
     9    87    86    1
    10    52    53    2
    11    52    51    1
    12    84    83    1
    13    69    68    2
    14    67    68    1
    15    60    59    1
    16    60    61    1
    17    60    63    1
    18    57    56    2
    19    41    50   am
    20    41    40    1
    21    51    50    1
    22    51    54    1
    23    61    62    2
    24    68    74   am
    25    58    56   am
    26    65    63    1
    27    56    55    1
    28    86    83    1
    29    63    64    1
    30    43    40    1
    31    43    44    1
    32    40    39    1
    33    83    82    1
    34    54    55    1
    35    44    45    1
    36    82    76   am
    37    45    46    1
    38    36    35    2
    39    74    75    1
    40    39    35   am
    41    76    75    1
    42    76    77    2
    43    35    34    1
    44    75    78    1
    45    46    47    2
    46    48    47    1
    47    47    49    1
    48    38    37    1
    49    34    33    1
    50    34    37    1
    51    33    29   am
    52    78    79    1
    53    81    79    1
    54   141   139    1
    55    79    80    1
    56    29    28    1
    57    29    30    2
    58    28    31    1
    59    28    27    1
    60   129   128    2
    61    31    32    1
    62   112   110    1
    63   135   136    1
    64   123   124    1
    65   123   120    1
    66   124   125    1
    67   139   136    1
    68   139   140    1
    69   136   137    1
    70   128   127    1
    71   111   109    1
    72   120   121    1
    73   120   119    1
    74   110   109    1
    75   126   121   am
    76   126   127    1
    77   125   119    1
    78   109   106    1
    79   121   122    2
    80   137   138    2
    81   127   130    1
    82   119   115   am
    83   130   131    1
    84   106   107    1
    85   106   105    1
    86   100    97    1
    87   115   116    2
    88   115   114    1
    89   131   132    1
    90   107   113   am
    91   107   108    2
    92   113   114    1
    93   105   103   am
    94     1     2    1
    95   134   133    1
    96   114   117    1
    97   104   103    2
    98   132   133    1
    99   103   102    1
   100    97    98    1
   101    97    96    1
   102     9     6    1
   103     2     3    1
   104     8     7    2
   105   101    98   am
   106   101   102    1
   107     5     6    1
   108     5     3   am
   109    98    99    2
   110     7     6    1
   111     7    10   am
   112   165   164    2
   113     3     4    2
   114    96    90   am
   115   117   118    1
   116    14    11    1
   117    14    15    1
   118   152   151    2
   119    11    10    1
   120    11    12    1
   121   164   163    1
   122   157   156    2
   123   156   155    1
   124   156   162   am
   125   155   158    1
   126   155   154    1
   127    90    91    2
   128    90    89    1
   129   151   154   am
   130   151   150    1
   131    16    12   am
   132    16    17    1
   133    12    13    2
   134   158   160    1
   135   158   159    1
   136    88    89    1
   137   162   163    1
   138   163   166    1
   139    23    22    1
   140    23    24    2
   141   153   150    1
   142    22    21    1
   143   150   149    1
   144    89    92    1
   145    21    20    1
   146    20    17    1
   147    26    24    1
   148    17    18    1
   149   166   167    1
   150    92    93    1
   151    24    25    1
   152   159   161    1
   153   145   144    2
   154    95    93   am
   155   149   144   am
   156    93    94    2
   157    19    18    2
   158   144   143    1
   159   167   169    1
   160   167   168    1
   161   143   146    1
   162   143   142    1
   163   146   147    1
   164   146   148    1
