@<TRIPOS>MOLECULE
tmp/5el1A00.pdb
 108 108 0 0 0
SMALL
GASTEIGER

@<TRIPOS>ATOM
      1  N          6.3360  -21.0420   -9.4030 N.3    47  TYR47      -0.1228
      2  CA         6.0140  -22.0640  -10.3840 C.3    47  TYR47       0.1721
      3  C          6.6040  -21.7040  -11.7530 C.2    47  TYR47       0.2437
      4  O          6.8410  -20.5240  -12.0490 O.2    47  TYR47      -0.2733
      5  CB         4.4930  -22.2170  -10.4760 C.3    47  TYR47       0.0547
      6  CG         3.9270  -23.1070   -9.4010 C.ar   47  TYR47      -0.0200
      7  CD1        4.2990  -24.4430   -9.3110 C.ar   47  TYR47      -0.0009
      8  CD2        3.0050  -22.6100   -8.4720 C.ar   47  TYR47      -0.0009
      9  CE1        3.7670  -25.2800   -8.3100 C.ar   47  TYR47       0.0417
     10  CE2        2.4580  -23.4300   -7.4980 C.ar   47  TYR47       0.0417
     11  CZ         2.8400  -24.7630   -7.4150 C.ar   47  TYR47       0.1957
     12  OH         2.2630  -25.5820   -6.4590 O.3    47  TYR47      -0.2866
     13  N          6.8450  -22.7150  -12.6100 N.am   48  PRO48      -0.2718
     14  CA         7.6230  -22.4620  -13.8280 C.3    48  PRO48       0.1535
     15  C          7.0280  -21.4000  -14.7280 C.2    48  PRO48       0.2598
     16  O          7.7770  -20.6300  -15.3600 O.2    48  PRO48      -0.2715
     17  CB         7.6890  -23.8450  -14.5050 C.3    48  PRO48       0.0310
     18  CG         7.5970  -24.8330  -13.3750 C.3    48  PRO48       0.0237
     19  CD         6.6620  -24.1590  -12.3660 C.3    48  PRO48       0.0939
     20  N          5.6960  -21.3360  -14.8330 N.am   49  ARG49      -0.1978
     21  CA         5.0910  -20.4040  -15.7800 C.3    49  ARG49       0.1597
     22  C          5.3840  -18.9460  -15.4320 C.2    49  ARG49       0.2287
     23  O          5.1630  -18.0700  -16.2770 O.2    49  ARG49      -0.2864
     24  CB         3.5770  -20.6220  -15.8690 C.3    49  ARG49       0.0334
     25  CG         2.8330  -20.3150  -14.5540 C.3    49  ARG49       0.0492
     26  CD         1.4450  -20.9240  -14.6370 C.3    49  ARG49       0.2205
     27  NE         0.6150  -20.6970  -13.4590 N.pl3  49  ARG49      -0.0865
     28  CZ         0.5770  -21.4950  -12.3890 C.cat  49  ARG49       0.5346
     29  NH1        1.3610  -22.5750  -12.3100 N.pl3  49  ARG49       0.1354
     30  NH2       -0.2530  -21.2160  -11.3930 N.pl3  49  ARG49       0.1354
     31  N          9.8550  -25.7070   -8.8780 N.3    71  VAL71      -0.1231
     32  CA         9.5920  -27.0250   -8.3190 C.3    71  VAL71       0.1692
     33  C          9.0800  -27.9520   -9.4030 C.2    71  VAL71       0.2592
     34  O          8.3350  -27.5370  -10.2990 O.2    71  VAL71      -0.2718
     35  CB         8.5610  -26.9610   -7.1570 C.3    71  VAL71       0.0266
     36  CG1        9.2110  -26.2160   -5.9770 C.3    71  VAL71       0.0020
     37  CG2        7.2380  -26.3140   -7.5910 C.3    71  VAL71       0.0020
     38  N          9.4040  -29.2320   -9.2690 N.am   72  THR72      -0.1953
     39  CA         8.9060  -30.2800  -10.1580 C.3    72  THR72       0.1897
     40  C          8.5920  -31.5480   -9.3720 C.2    72  THR72       0.2313
     41  O          9.0210  -31.7340   -8.2150 O.2    72  THR72      -0.2863
     42  CB         9.8780  -30.5890  -11.3140 C.3    72  THR72       0.1794
     43  OG1       11.0870  -31.1060  -10.7390 O.3    72  THR72      -0.2208
     44  CG2       10.1830  -29.3220  -12.1350 C.3    72  THR72       0.0378
     45  N          5.8150  -32.0630   -8.1100 N.3    74  PHE74      -0.1228
     46  CA         5.4780  -31.3200   -6.8890 C.3    74  PHE74       0.1721
     47  C          3.9680  -31.1420   -6.7380 C.2    74  PHE74       0.2437
     48  O          3.2830  -30.8750   -7.7280 O.2    74  PHE74      -0.2733
     49  CB         6.1460  -29.9320   -6.9860 C.3    74  PHE74       0.0547
     50  CG         5.9350  -29.0280   -5.7660 C.ar   74  PHE74      -0.0202
     51  CD1        4.7840  -28.2260   -5.6700 C.ar   74  PHE74      -0.0042
     52  CD2        6.8990  -28.9470   -4.7670 C.ar   74  PHE74      -0.0042
     53  CE1        4.5890  -27.3730   -4.5840 C.ar   74  PHE74      -0.0003
     54  CE2        6.7300  -28.0960   -3.6860 C.ar   74  PHE74      -0.0003
     55  CZ         5.5610  -27.2970   -3.6030 C.ar   74  PHE74      -0.0000
     56  N          3.4310  -31.2560   -5.5150 N.am   75  PRO75      -0.2718
     57  CA         4.1380  -31.5700   -4.2610 C.3    75  PRO75       0.1535
     58  C          4.1900  -33.0570   -3.9810 C.2    75  PRO75       0.2598
     59  O          4.7830  -33.4450   -2.9880 O.2    75  PRO75      -0.2715
     60  CB         3.2760  -30.8660   -3.2130 C.3    75  PRO75       0.0310
     61  CG         1.8570  -31.0620   -3.7520 C.3    75  PRO75       0.0237
     62  CD         2.0130  -30.8960   -5.2660 C.3    75  PRO75       0.0939
     63  N          3.6050  -33.8700   -4.8630 N.am   76  HIS76      -0.1974
     64  CA         3.2900  -35.2590   -4.5320 C.3    76  HIS76       0.1656
     65  C          4.5160  -36.1620   -4.3560 C.2    76  HIS76       0.2291
     66  O          4.4370  -37.1420   -3.6120 O.2    76  HIS76      -0.2864
     67  CB         2.4060  -35.8730   -5.6230 C.3    76  HIS76       0.0771
     68  CG         2.8110  -35.4750   -6.9950 C.ar   76  HIS76       0.0820
     69  ND1        3.9070  -35.9980   -7.6600 N.ar   76  HIS76      -0.2267
     70  CD2        2.2640  -34.5580   -7.8240 C.ar   76  HIS76       0.1154
     71  CE1        3.9980  -35.4080   -8.8420 C.ar   76  HIS76       0.1986
     72  NE2        3.0090  -34.5360   -8.9650 N.ar   76  HIS76      -0.2212
     73  N          7.1380  -38.5760  -15.8760 N.3    83  ILE83      -0.1245
     74  CA         6.5010  -37.3070  -15.5460 C.3    83  ILE83       0.1561
     75  C          7.4770  -36.3880  -14.8180 C.2    83  ILE83       0.2260
     76  O          7.5680  -35.2030  -15.1270 O.2    83  ILE83      -0.2867
     77  CB         5.1940  -37.5460  -14.7580 C.3    83  ILE83       0.0252
     78  CG1        4.1170  -38.1590  -15.6850 C.3    83  ILE83       0.0019
     79  CG2        4.6960  -36.2560  -14.1120 C.3    83  ILE83       0.0019
     80  CD1        2.8720  -38.6430  -14.9790 C.3    83  ILE83       0.0001
     81  N          8.6220  -32.7940  -16.3540 N.3    87  GLU87      -0.1245
     82  CA         8.4260  -31.5360  -15.6550 C.3    87  GLU87       0.1567
     83  C          9.7450  -30.8210  -15.4440 C.2    87  GLU87       0.2260
     84  O          9.8050  -29.5940  -15.5590 O.2    87  GLU87      -0.2867
     85  CB         7.7470  -31.7950  -14.3140 C.3    87  GLU87       0.0388
     86  CG         6.2710  -32.1950  -14.5090 C.3    87  GLU87       0.1160
     87  CD         5.4890  -32.3380  -13.2250 C.2    87  GLU87       0.3649
     88  OE1        6.0660  -32.1800  -12.1320 O.co2  87  GLU87      -0.2457
     89  OE2        4.2760  -32.6080  -13.3250 O.co2  87  GLU87      -0.2457
     90  N         10.7130  -29.2700  -18.6590 N.3    90  ALA90      -0.1245
     91  CA         9.9120  -28.0800  -18.9350 C.3    90  ALA90       0.1562
     92  C         10.3830  -26.9130  -18.0780 C.2    90  ALA90       0.2260
     93  O         10.4490  -25.7700  -18.5510 O.2    90  ALA90      -0.2867
     94  CB         8.4300  -28.3770  -18.7090 C.3    90  ALA90       0.0290
     95  N         11.4600  -23.2620  -19.3690 N.3    94  TRP94      -0.1241
     96  CA        10.8870  -22.0160  -18.8710 C.3    94  TRP94       0.1605
     97  C         11.9510  -21.0400  -18.4030 C.2    94  TRP94       0.2264
     98  O         11.6720  -19.8460  -18.2940 O.2    94  TRP94      -0.2867
     99  CB         9.9220  -22.2940  -17.7220 C.3    94  TRP94       0.0550
    100  CG         8.5270  -22.6740  -18.1030 C.ar   94  TRP94       0.0003
    101  CD1        7.9640  -23.9050  -17.9610 C.ar   94  TRP94       0.0946
    102  CD2        7.4860  -21.7960  -18.5510 C.ar   94  TRP94       0.0152
    103  NE1        6.6480  -23.8560  -18.3200 N.ar   94  TRP94      -0.2442
    104  CE2        6.3190  -22.5760  -18.6710 C.ar   94  TRP94       0.0810
    105  CE3        7.4320  -20.4380  -18.8610 C.ar   94  TRP94       0.0012
    106  CZ2        5.0850  -22.0420  -19.0780 C.ar   94  TRP94       0.0191
    107  CZ3        6.2130  -19.8920  -19.2710 C.ar   94  TRP94       0.0001
    108  CH2        5.0480  -20.7050  -19.3750 C.ar   94  TRP94       0.0015
@<TRIPOS>BOND
     1   108   107   ar
     2   108   106   ar
     3    95    96    1
     4   107   105   ar
     5   106   104   ar
     6    91    94    1
     7    91    90    1
     8    91    92    1
     9    96    97    1
    10    96    99    1
    11   105   102   ar
    12   104   102   ar
    13   104   103   ar
    14    93    92    2
    15   102   100   ar
    16    97    98    2
    17   103   101   ar
    18   100   101   ar
    19   100    99    1
    20    81    82    1
    21    23    22    2
    22    73    74    1
    23    24    21    1
    24    24    25    1
    25    21    22    1
    26    21    20    1
    27    78    80    1
    28    78    77    1
    29    82    83    1
    30    82    85    1
    31    84    83    2
    32    74    75    1
    33    74    77    1
    34    16    15    2
    35    76    75    2
    36    20    15   am
    37    77    79    1
    38    15    14    1
    39    26    25    1
    40    26    27    1
    41    86    85    1
    42    86    87    1
    43    17    14    1
    44    17    18    1
    45    14    13    1
    46    27    28    2
    47    18    19    1
    48    89    87   ar
    49    87    88   ar
    50    13    19    1
    51    13     3   am
    52    28    29    1
    53    28    30    1
    54    44    42    1
    55     4     3    2
    56     3     2    1
    57    42    43    1
    58    42    39    1
    59     5     2    1
    60     5     6    1
    61     2     1    1
    62    34    33    2
    63    39    40    1
    64    39    38    1
    65    33    38   am
    66    33    32    1
    67     6     7   ar
    68     6     8   ar
    69    40    41    2
    70     7     9   ar
    71    72    71   ar
    72    72    70   ar
    73    31    32    1
    74    71    69   ar
    75     8    10   ar
    76    32    35    1
    77     9    11   ar
    78    45    46    1
    79    70    68   ar
    80    48    47    2
    81    69    68   ar
    82    37    35    1
    83    10    11   ar
    84    11    12    1
    85    35    36    1
    86    68    67    1
    87    49    46    1
    88    49    50    1
    89    46    47    1
    90    47    56   am
    91    50    51   ar
    92    50    52   ar
    93    51    53   ar
    94    67    64    1
    95    56    62    1
    96    56    57    1
    97    62    61    1
    98    63    64    1
    99    63    58   am
   100    52    54   ar
   101    53    55   ar
   102    64    65    1
   103    65    66    2
   104    57    58    1
   105    57    60    1
   106    58    59    2
   107    61    60    1
   108    54    55   ar
