@<TRIPOS>MOLECULE
tmp/5el2B00.pdb
 107 102 0 0 0
SMALL
GASTEIGER

@<TRIPOS>ATOM
      1  N         -5.3420    1.7010  -44.1710 N.3    73  LEU73      -0.1231
      2  CA        -4.9710    0.2790  -44.1280 C.3    73  LEU73       0.1693
      3  C         -5.8390   -0.6090  -43.2100 C.2    73  LEU73       0.2591
      4  O         -5.9800   -1.8090  -43.4670 O.2    73  LEU73      -0.2718
      5  CB        -3.4660    0.1150  -43.8320 C.3    73  LEU73       0.0284
      6  CG        -2.5570    0.6610  -44.9330 C.3    73  LEU73       0.0019
      7  CD1       -1.0820    0.6890  -44.5450 C.3    73  LEU73       0.0001
      8  CD2       -2.7510   -0.1000  -46.2420 C.3    73  LEU73       0.0001
      9  N         -6.4070   -0.0290  -42.1520 N.am   74  GLU74      -0.1979
     10  CA        -7.3270   -0.7690  -41.2750 C.3    74  GLU74       0.1602
     11  C         -8.6500   -1.0720  -41.9810 C.2    74  GLU74       0.2287
     12  O         -9.1290   -2.2020  -41.9370 O.2    74  GLU74      -0.2864
     13  CB        -7.5610   -0.0300  -39.9450 C.3    74  GLU74       0.0415
     14  CG        -6.2730    0.2910  -39.1930 C.3    74  GLU74       0.1163
     15  CD        -6.4610    1.1460  -37.9470 C.2    74  GLU74       0.3649
     16  OE1       -5.6120    1.0280  -37.0400 O.co2  74  GLU74      -0.2457
     17  OE2       -7.4340    1.9470  -37.8660 O.co2  74  GLU74      -0.2457
     18  N         -9.0460   -1.3530  -45.1360 N.3    76  LEU76      -0.1231
     19  CA        -8.7200   -2.3200  -46.1780 C.3    76  LEU76       0.1693
     20  C         -8.6130   -3.7130  -45.6000 C.2    76  LEU76       0.2592
     21  O         -9.2260   -4.6480  -46.0960 O.2    76  LEU76      -0.2718
     22  CB        -7.3710   -1.9690  -46.8380 C.3    76  LEU76       0.0284
     23  CG        -6.8650   -2.8990  -47.9360 C.3    76  LEU76       0.0019
     24  CD1       -7.8880   -3.0820  -49.0330 C.3    76  LEU76       0.0001
     25  CD2       -5.5600   -2.3880  -48.5420 C.3    76  LEU76       0.0001
     26  N         -7.7990   -3.8600  -44.5570 N.am   77  HIS77      -0.1976
     27  CA        -7.6450   -5.1480  -43.8940 C.3    77  HIS77       0.1656
     28  C         -9.0020   -5.6980  -43.4640 C.2    77  HIS77       0.2291
     29  O         -9.2960   -6.8740  -43.6560 O.2    77  HIS77      -0.2864
     30  CB        -6.7640   -4.9890  -42.6600 C.3    77  HIS77       0.0771
     31  CG        -6.6170   -6.2400  -41.8560 C.ar   77  HIS77       0.0820
     32  ND1       -5.5810   -7.1300  -42.0460 N.ar   77  HIS77      -0.2267
     33  CD2       -7.3810   -6.7570  -40.8640 C.ar   77  HIS77       0.1154
     34  CE1       -5.7030   -8.1310  -41.1920 C.ar   77  HIS77       0.1986
     35  NE2       -6.7940   -7.9330  -40.4710 N.ar   77  HIS77      -0.2212
     36  N        -11.2660   -7.4130  -46.0900 N.3    80  LEU80      -0.1245
     37  CA       -10.8480   -8.7190  -46.6000 C.3    80  LEU80       0.1561
     38  C        -11.4890   -9.8710  -45.8450 C.2    80  LEU80       0.2260
     39  O        -11.8410   -9.7310  -44.6750 O.2    80  LEU80      -0.2867
     40  CB        -9.3230   -8.8680  -46.5080 C.3    80  LEU80       0.0270
     41  CG        -8.5190   -7.8040  -47.2250 C.3    80  LEU80       0.0019
     42  CD1       -7.0380   -7.8950  -46.8780 C.3    80  LEU80       0.0001
     43  CD2       -8.7420   -7.9240  -48.7340 C.3    80  LEU80       0.0001
     44  N         -7.8690  -14.5790  -44.9060 N.3    84  MET84      -0.1245
     45  CA        -6.5570  -14.0530  -45.3210 C.3    84  MET84       0.1570
     46  C         -6.0400  -12.9410  -44.3850 C.2    84  MET84       0.2261
     47  O         -5.0730  -12.2500  -44.7000 O.2    84  MET84      -0.2867
     48  CB        -6.5890  -13.6060  -46.7880 C.3    84  MET84       0.0387
     49  CG        -7.4990  -12.4210  -47.0770 C.3    84  MET84       0.0595
     50  SD        -7.5570  -12.0030  -48.8430 S.3    84  MET84      -0.1393
     51  CE        -5.8430  -11.5840  -49.1610 C.3    84  MET84       0.0692
     52  N         -2.4840  -11.1660  -45.0300 N.3    88  ALA88      -0.1231
     53  CA        -2.5670   -9.7330  -45.3250 C.3    88  ALA88       0.1694
     54  C         -1.7060   -8.8880  -44.3800 C.2    88  ALA88       0.2591
     55  O         -1.0160   -7.9710  -44.8160 O.2    88  ALA88      -0.2718
     56  CB        -4.0060   -9.2860  -45.2600 C.3    88  ALA88       0.0304
     57  N         -1.7550   -9.2030  -43.0900 N.am   89  MET89      -0.1979
     58  CA        -1.0040   -8.4670  -42.0850 C.3    89  MET89       0.1605
     59  C          0.4970   -8.4830  -42.3980 C.2    89  MET89       0.2287
     60  O          1.1510   -7.4490  -42.4180 O.2    89  MET89      -0.2864
     61  CB        -1.2400   -9.1180  -40.7310 C.3    89  MET89       0.0413
     62  CG        -1.3640   -8.1630  -39.5840 C.3    89  MET89       0.0598
     63  SD        -1.5360   -9.1660  -38.1100 S.3    89  MET89      -0.1393
     64  CE        -3.1250   -9.9240  -38.3910 C.3    89  MET89       0.0692
     65  N          1.9330   -9.3950  -45.2970 N.3    91  MET91      -0.1230
     66  CA         2.1210   -8.7670  -46.6040 C.3    91  MET91       0.1702
     67  C          2.2770   -7.2460  -46.4970 C.2    91  MET91       0.2593
     68  O          3.0900   -6.6600  -47.2030 O.2    91  MET91      -0.2718
     69  CB         0.9470   -9.1170  -47.5270 C.3    91  MET91       0.0401
     70  CG         1.0850   -8.6040  -48.9510 C.3    91  MET91       0.0596
     71  SD        -0.3890   -8.9670  -49.9250 S.3    91  MET91      -0.1393
     72  CE        -0.3300  -10.7510  -49.9550 C.3    91  MET91       0.0692
     73  N          1.5340   -6.6170  -45.5820 N.am   92  GLY92      -0.1942
     74  CA         1.4920   -5.1620  -45.5020 C.3    92  GLY92       0.2014
     75  C          2.3960   -4.4900  -44.4770 C.2    92  GLY92       0.2638
     76  O          2.5090   -3.2590  -44.4710 O.2    92  GLY92      -0.2714
     77  N          3.0540   -5.2830  -43.6340 N.am   93  LYS93      -0.1977
     78  CA         3.6760   -4.7480  -42.4170 C.3    93  LYS93       0.1596
     79  C          4.8950   -3.8730  -42.6700 C.2    93  LYS93       0.2287
     80  O          5.2730   -3.0970  -41.7970 O.2    93  LYS93      -0.2864
     81  CB         4.0240   -5.8720  -41.4340 C.3    93  LYS93       0.0298
     82  CG         5.1760   -6.7750  -41.8350 C.3    93  LYS93       0.0038
     83  CD         5.3410   -7.9140  -40.8280 C.3    93  LYS93       0.0206
     84  CE         6.3380   -8.9420  -41.3440 C.3    93  LYS93       0.1093
     85  NZ         6.7140   -9.9440  -40.3020 N.3    93  LYS93      -0.1314
     86  N          3.6320    0.4550  -44.7530 N.3    96  LEU96      -0.1245
     87  CA         2.6840    1.3060  -44.0290 C.3    96  LEU96       0.1561
     88  C          2.5290    2.7170  -44.5710 C.2    96  LEU96       0.2260
     89  O          1.4530    3.3210  -44.4290 O.2    96  LEU96      -0.2867
     90  CB         3.0760    1.4470  -42.5490 C.3    96  LEU96       0.0270
     91  CG         3.3070    0.1980  -41.7090 C.3    96  LEU96       0.0019
     92  CD1        3.5140    0.6060  -40.2580 C.3    96  LEU96       0.0001
     93  CD2        2.1640   -0.7810  -41.8230 C.3    96  LEU96       0.0001
     94  N          3.4790   -4.7180  -51.6210 N.3   114  TRP114     -0.1241
     95  CA         2.8380   -5.9830  -51.2630 C.3   114  TRP114      0.1605
     96  C          3.3620   -7.1820  -52.0750 C.2   114  TRP114      0.2264
     97  O          3.6630   -8.2650  -51.5390 O.2   114  TRP114     -0.2867
     98  CB         1.3110   -5.8560  -51.4190 C.3   114  TRP114      0.0550
     99  CG         0.6750   -4.8330  -50.5050 C.ar  114  TRP114      0.0003
    100  CD1        1.1250   -4.4340  -49.2710 C.ar  114  TRP114      0.0946
    101  CD2       -0.5580   -4.1220  -50.7260 C.ar  114  TRP114      0.0152
    102  NE1        0.2730   -3.5070  -48.7330 N.ar  114  TRP114     -0.2442
    103  CE2       -0.7700   -3.2960  -49.5980 C.ar  114  TRP114      0.0810
    104  CE3       -1.4990   -4.0990  -51.7680 C.ar  114  TRP114      0.0012
    105  CZ2       -1.8930   -2.4470  -49.4780 C.ar  114  TRP114      0.0191
    106  CZ3       -2.6230   -3.2550  -51.6450 C.ar  114  TRP114      0.0001
    107  CH2       -2.7940   -2.4340  -50.5120 C.ar  114  TRP114      0.0015
@<TRIPOS>BOND
     1    96    97    2
     2    96    95    1
     3   104   106   ar
     4   104   101   ar
     5   106   107   ar
     6    94    95    1
     7    98    95    1
     8    98    99    1
     9   101    99   ar
    10   101   103   ar
    11   107   105   ar
    12    99   100   ar
    13    72    71    1
    14    71    70    1
    15   103   105   ar
    16   103   102   ar
    17   100   102   ar
    18    51    50    1
    19    24    23    1
    20    70    69    1
    21    50    49    1
    22    43    41    1
    23    25    23    1
    24    23    22    1
    25    69    66    1
    26    41    42    1
    27    41    40    1
    28    68    67    2
    29    49    48    1
    30    22    19    1
    31    48    45    1
    32    66    67    1
    33    66    65    1
    34    37    40    1
    35    37    36    1
    36    37    38    1
    37    67    73   am
    38     8     6    1
    39    19    20    1
    40    19    18    1
    41    21    20    2
    42    38    39    2
    43    20    26   am
    44    73    74    1
    45    74    75    1
    46    53    56    1
    47    53    52    1
    48    53    54    1
    49    45    44    1
    50    45    46    1
    51     6     7    1
    52     6     5    1
    53    55    54    2
    54    86    87    1
    55    47    46    2
    56    88    89    2
    57    88    87    1
    58    26    27    1
    59    75    76    2
    60    75    77   am
    61    54    57   am
    62     1     2    1
    63     2     5    1
    64     2     3    1
    65    87    90    1
    66    27    28    1
    67    27    30    1
    68    29    28    2
    69    77    78    1
    70     4     3    2
    71     3     9   am
    72    57    58    1
    73    79    78    1
    74    79    80    2
    75    30    31    1
    76    90    91    1
    77    60    59    2
    78    78    81    1
    79    59    58    1
    80     9    10    1
    81    58    61    1
    82    32    31   ar
    83    32    34   ar
    84    11    12    2
    85    11    10    1
    86    31    33   ar
    87    82    81    1
    88    82    83    1
    89    93    91    1
    90    91    92    1
    91    84    83    1
    92    84    85    1
    93    10    13    1
    94    34    35   ar
    95    33    35   ar
    96    61    62    1
    97    13    14    1
    98    62    63    1
    99    14    15    1
   100    64    63    1
   101    15    17   ar
   102    15    16   ar
