@<TRIPOS>MOLECULE
tmp/5el2B01.pdb
 147 141 0 0 0
SMALL
GASTEIGER

@<TRIPOS>ATOM
      1  N        -14.2210  -13.0340  -52.5590 N.3    15  LEU15      -0.1245
      2  CA       -13.6370  -11.7070  -52.7170 C.3    15  LEU15       0.1561
      3  C        -13.5420  -11.3940  -54.2060 C.2    15  LEU15       0.2260
      4  O        -13.9190  -10.3100  -54.6460 O.2    15  LEU15      -0.2867
      5  CB       -12.2490  -11.6220  -52.0660 C.3    15  LEU15       0.0270
      6  CG       -11.5040  -10.2910  -52.2100 C.3    15  LEU15       0.0019
      7  CD1      -12.3130   -9.1420  -51.6430 C.3    15  LEU15       0.0001
      8  CD2      -10.1510  -10.3730  -51.5140 C.3    15  LEU15       0.0001
      9  N        -15.1240   -8.1930  -56.3080 N.3    19  LEU19      -0.1245
     10  CA       -14.3030   -7.2110  -57.0100 C.3    19  LEU19       0.1561
     11  C        -14.7080   -7.0210  -58.4800 C.2    19  LEU19       0.2260
     12  O        -14.2980   -6.0520  -59.1000 O.2    19  LEU19      -0.2867
     13  CB       -12.8130   -7.5800  -56.9280 C.3    19  LEU19       0.0270
     14  CG       -12.1500   -7.3400  -55.5570 C.3    19  LEU19       0.0019
     15  CD1      -10.8250   -8.0760  -55.4740 C.3    19  LEU19       0.0001
     16  CD2      -11.9600   -5.8500  -55.2900 C.3    19  LEU19       0.0001
     17  N         -9.5950    1.2950  -57.7630 N.3    58  LEU58      -0.1231
     18  CA       -10.1030    0.1780  -56.9650 C.3    58  LEU58       0.1693
     19  C        -10.2490    0.5470  -55.4920 C.2    58  LEU58       0.2592
     20  O        -11.2690    0.2450  -54.8600 O.2    58  LEU58      -0.2718
     21  CB        -9.2070   -1.0590  -57.0790 C.3    58  LEU58       0.0284
     22  CG        -9.2770   -1.9050  -58.3430 C.3    58  LEU58       0.0019
     23  CD1       -8.4600   -3.1730  -58.1340 C.3    58  LEU58       0.0001
     24  CD2      -10.7150   -2.2730  -58.6990 C.3    58  LEU58       0.0001
     25  N         -9.2360    1.2030  -54.9490 N.am   59  PHE59      -0.1976
     26  CA        -9.2820    1.6000  -53.5440 C.3    59  PHE59       0.1639
     27  C        -10.4780    2.5290  -53.2770 C.2    59  PHE59       0.2290
     28  O        -11.1220    2.4240  -52.2380 O.2    59  PHE59      -0.2864
     29  CB        -7.9900    2.2990  -53.1290 C.3    59  PHE59       0.0560
     30  CG        -6.7890    1.3930  -53.0500 C.ar   59  PHE59      -0.0200
     31  CD1       -6.8610    0.1570  -52.4280 C.ar   59  PHE59      -0.0042
     32  CD2       -5.5600    1.8060  -53.5600 C.ar   59  PHE59      -0.0042
     33  CE1       -5.7470   -0.6640  -52.3400 C.ar   59  PHE59      -0.0003
     34  CE2       -4.4520    0.9950  -53.4800 C.ar   59  PHE59      -0.0003
     35  CZ        -4.5400   -0.2360  -52.8590 C.ar   59  PHE59      -0.0000
     36  N        -13.7830    0.5610  -53.6420 N.3    62  ALA62      -0.1245
     37  CA       -13.9340   -0.3480  -52.5140 C.3    62  ALA62       0.1562
     38  C        -14.2000    0.3600  -51.1800 C.2    62  ALA62       0.2260
     39  O        -14.4180   -0.3170  -50.1740 O.2    62  ALA62      -0.2867
     40  CB       -12.7120   -1.2600  -52.3980 C.3    62  ALA62       0.0290
     41  N        -12.1480    2.1310  -49.1830 N.3    64  VAL64      -0.1245
     42  CA       -11.0960    1.8940  -48.1890 C.3    64  VAL64       0.1561
     43  C        -10.1130    3.0740  -48.1580 C.2    64  VAL64       0.2260
     44  O         -8.9390    2.9070  -47.8390 O.2    64  VAL64      -0.2867
     45  CB       -10.3520    0.5490  -48.4280 C.3    64  VAL64       0.0252
     46  CG1      -11.3080   -0.6240  -48.2640 C.3    64  VAL64       0.0019
     47  CG2       -9.6860    0.5040  -49.8040 C.3    64  VAL64       0.0019
     48  N         -9.0460   -1.3530  -45.1360 N.3    76  LEU76      -0.1245
     49  CA        -8.7200   -2.3200  -46.1780 C.3    76  LEU76       0.1561
     50  C         -8.6130   -3.7130  -45.6000 C.2    76  LEU76       0.2260
     51  O         -9.2260   -4.6480  -46.0960 O.2    76  LEU76      -0.2867
     52  CB        -7.3710   -1.9690  -46.8380 C.3    76  LEU76       0.0270
     53  CG        -6.8650   -2.8990  -47.9360 C.3    76  LEU76       0.0019
     54  CD1       -7.8880   -3.0820  -49.0330 C.3    76  LEU76       0.0001
     55  CD2       -5.5600   -2.3880  -48.5420 C.3    76  LEU76       0.0001
     56  N        -11.8420   -5.1290  -44.7430 N.3    79  SER79      -0.1202
     57  CA       -12.7090   -5.4450  -45.8690 C.3    79  SER79       0.2020
     58  C        -12.4050   -6.8220  -46.4630 C.2    79  SER79       0.2618
     59  O        -13.1910   -7.3230  -47.2600 O.2    79  SER79      -0.2717
     60  CB       -12.5960   -4.3670  -46.9480 C.3    79  SER79       0.2103
     61  OG       -11.3470   -4.4580  -47.6190 O.3    79  SER79      -0.2182
     62  N        -11.2660   -7.4130  -46.0900 N.am   80  LEU80      -0.1979
     63  CA       -10.8480   -8.7190  -46.6000 C.3    80  LEU80       0.1596
     64  C        -11.4890   -9.8710  -45.8450 C.2    80  LEU80       0.2287
     65  O        -11.8410   -9.7310  -44.6750 O.2    80  LEU80      -0.2864
     66  CB        -9.3230   -8.8680  -46.5080 C.3    80  LEU80       0.0297
     67  CG        -8.5190   -7.8040  -47.2250 C.3    80  LEU80       0.0022
     68  CD1       -7.0380   -7.8950  -46.8780 C.3    80  LEU80       0.0001
     69  CD2       -8.7420   -7.9240  -48.7340 C.3    80  LEU80       0.0001
     70  N         -7.8690  -14.5790  -44.9060 N.3    84  MET84      -0.1245
     71  CA        -6.5570  -14.0530  -45.3210 C.3    84  MET84       0.1570
     72  C         -6.0400  -12.9410  -44.3850 C.2    84  MET84       0.2261
     73  O         -5.0730  -12.2500  -44.7000 O.2    84  MET84      -0.2867
     74  CB        -6.5890  -13.6060  -46.7880 C.3    84  MET84       0.0387
     75  CG        -7.4990  -12.4210  -47.0770 C.3    84  MET84       0.0595
     76  SD        -7.5570  -12.0030  -48.8430 S.3    84  MET84      -0.1393
     77  CE        -5.8430  -11.5840  -49.1610 C.3    84  MET84       0.0692
     78  N          1.9330   -9.3950  -45.2970 N.3    91  MET91      -0.1245
     79  CA         2.1210   -8.7670  -46.6040 C.3    91  MET91       0.1570
     80  C          2.2770   -7.2460  -46.4970 C.2    91  MET91       0.2261
     81  O          3.0900   -6.6600  -47.2030 O.2    91  MET91      -0.2867
     82  CB         0.9470   -9.1170  -47.5270 C.3    91  MET91       0.0387
     83  CG         1.0850   -8.6040  -48.9510 C.3    91  MET91       0.0595
     84  SD        -0.3890   -8.9670  -49.9250 S.3    91  MET91      -0.1393
     85  CE        -0.3300  -10.7510  -49.9550 C.3    91  MET91       0.0692
     86  N          0.8650   -1.5380  -54.0380 N.3   111  HIS111     -0.1241
     87  CA         0.7590   -2.8120  -54.7320 C.3   111  HIS111      0.1621
     88  C          2.1170   -3.4180  -55.0100 C.2   111  HIS111      0.2264
     89  O          2.3150   -4.6150  -54.8190 O.2   111  HIS111     -0.2867
     90  CB        -0.0180   -2.6530  -56.0310 C.3   111  HIS111      0.0745
     91  CG        -1.4990   -2.6470  -55.8290 C.ar  111  HIS111      0.0817
     92  ND1       -2.2570   -3.7910  -55.9030 N.ar  111  HIS111     -0.2268
     93  CD2       -2.3500   -1.6520  -55.5000 C.ar  111  HIS111      0.1154
     94  CE1       -3.5220   -3.4970  -55.6590 C.ar  111  HIS111      0.1986
     95  NE2       -3.6060   -2.2040  -55.4160 N.ar  111  HIS111     -0.2212
     96  N          3.4790   -4.7180  -51.6210 N.3   114  TRP114     -0.1241
     97  CA         2.8380   -5.9830  -51.2630 C.3   114  TRP114      0.1605
     98  C          3.3620   -7.1820  -52.0750 C.2   114  TRP114      0.2264
     99  O          3.6630   -8.2650  -51.5390 O.2   114  TRP114     -0.2867
    100  CB         1.3110   -5.8560  -51.4190 C.3   114  TRP114      0.0550
    101  CG         0.6750   -4.8330  -50.5050 C.ar  114  TRP114      0.0003
    102  CD1        1.1250   -4.4340  -49.2710 C.ar  114  TRP114      0.0946
    103  CD2       -0.5580   -4.1220  -50.7260 C.ar  114  TRP114      0.0152
    104  NE1        0.2730   -3.5070  -48.7330 N.ar  114  TRP114     -0.2442
    105  CE2       -0.7700   -3.2960  -49.5980 C.ar  114  TRP114      0.0810
    106  CE3       -1.4990   -4.0990  -51.7680 C.ar  114  TRP114      0.0012
    107  CZ2       -1.8930   -2.4470  -49.4780 C.ar  114  TRP114      0.0191
    108  CZ3       -2.6230   -3.2550  -51.6450 C.ar  114  TRP114      0.0001
    109  CH2       -2.7940   -2.4340  -50.5120 C.ar  114  TRP114      0.0015
    110  N          0.1090  -12.3620  -53.1430 N.3   122  TYR122     -0.1227
    111  CA        -0.3250  -11.1490  -53.8080 C.3   122  TYR122      0.1736
    112  C         -1.1020  -11.5290  -55.0670 C.2   122  TYR122      0.2595
    113  O         -0.7760  -12.4960  -55.7530 O.2   122  TYR122     -0.2718
    114  CB         0.8480  -10.2250  -54.1770 C.3   122  TYR122      0.0548
    115  CG         0.3420   -9.0450  -54.9800 C.ar  122  TYR122     -0.0200
    116  CD1       -0.1660   -7.9140  -54.3570 C.ar  122  TYR122     -0.0009
    117  CD2        0.3050   -9.0990  -56.3660 C.ar  122  TYR122     -0.0009
    118  CE1       -0.6600   -6.8660  -55.0880 C.ar  122  TYR122      0.0417
    119  CE2       -0.1910   -8.0460  -57.1050 C.ar  122  TYR122      0.0417
    120  CZ        -0.6790   -6.9380  -56.4540 C.ar  122  TYR122      0.1957
    121  OH        -1.1770   -5.9190  -57.2130 O.3   122  TYR122     -0.2866
    122  N         -2.1870  -10.8040  -55.3150 N.am  123  PHE123     -0.1962
    123  CA        -2.9150  -10.9170  -56.5720 C.3   123  PHE123      0.1771
    124  C         -3.5500   -9.5780  -56.8660 C.2   123  PHE123      0.2619
    125  O         -3.7000   -8.7420  -55.9780 O.2   123  PHE123     -0.2715
    126  CB        -4.0020  -11.9860  -56.4880 C.3   123  PHE123      0.0574
    127  CG        -5.0840  -11.6680  -55.5020 C.ar  123  PHE123     -0.0200
    128  CD1       -4.8750  -11.8670  -54.1350 C.ar  123  PHE123     -0.0042
    129  CD2       -6.3080  -11.1730  -55.9240 C.ar  123  PHE123     -0.0042
    130  CE1       -5.8770  -11.5770  -53.2100 C.ar  123  PHE123     -0.0003
    131  CE2       -7.3110  -10.8790  -55.0040 C.ar  123  PHE123     -0.0003
    132  CZ        -7.0910  -11.0740  -53.6450 C.ar  123  PHE123     -0.0000
    133  N         -3.9420   -9.4140  -58.1180 N.am  124  LEU124     -0.1963
    134  CA        -4.6670   -8.2420  -58.5860 C.3   124  LEU124      0.1728
    135  C         -5.6780   -8.7420  -59.6030 C.2   124  LEU124      0.2616
    136  O         -5.3430   -9.5430  -60.4670 O.2   124  LEU124     -0.2715
    137  CB        -3.6970   -7.2550  -59.2390 C.3   124  LEU124      0.0311
    138  CG        -4.3180   -5.9680  -59.8040 C.3   124  LEU124      0.0022
    139  CD1       -4.8710   -5.0890  -58.6910 C.3   124  LEU124      0.0001
    140  CD2       -3.2480   -5.2150  -60.5770 C.3   124  LEU124      0.0001
    141  N         -6.9210   -8.3090  -59.4800 N.am  125  VAL125     -0.1977
    142  CA        -7.9230   -8.6500  -60.4770 C.3   125  VAL125      0.1596
    143  C         -8.5890   -7.3920  -60.9910 C.2   125  VAL125      0.2287
    144  O         -9.3290   -7.4630  -61.9730 O.2   125  VAL125     -0.2864
    145  CB        -8.9740   -9.6350  -59.9360 C.3   125  VAL125      0.0276
    146  CG1       -8.3460  -11.0150  -59.7580 C.3   125  VAL125      0.0022
    147  CG2       -9.5990   -9.1240  -58.6390 C.3   125  VAL125      0.0022
@<TRIPOS>BOND
     1   144   143    2
     2   143   142    1
     3   140   138    1
     4   142   145    1
     5   142   141    1
     6   136   135    2
     7   145   146    1
     8   145   147    1
     9   138   137    1
    10   138   139    1
    11   135   141   am
    12   135   134    1
    13   137   134    1
    14    12    11    2
    15    24    22    1
    16   134   133    1
    17    11    10    1
    18    22    23    1
    19    22    21    1
    20   133   124   am
    21    17    18    1
    22   121   120    1
    23   119   120   ar
    24   119   117   ar
    25    21    18    1
    26    10    13    1
    27    10     9    1
    28    18    19    1
    29    13    14    1
    30   124   123    1
    31   124   125    2
    32   123   126    1
    33   123   122    1
    34   126   127    1
    35   120   118   ar
    36   117   115   ar
    37    90    91    1
    38    90    87    1
    39   129   127   ar
    40   129   131   ar
    41    92    91   ar
    42    92    94   ar
    43    91    93   ar
    44   113   112    2
    45    94    95   ar
    46    14    15    1
    47    14    16    1
    48   127   128   ar
    49    93    95   ar
    50    19    25   am
    51    19    20    2
    52   122   112   am
    53   118   116   ar
    54   112   111    1
    55    88    89    2
    56    88    87    1
    57   131   132   ar
    58   115   116   ar
    59   115   114    1
    60    25    26    1
    61    87    86    1
    62     4     3    2
    63     3     2    1
    64   114   111    1
    65   128   130   ar
    66   111   110    1
    67   132   130   ar
    68    36    37    1
    69    32    34   ar
    70    32    30   ar
    71    26    27    1
    72    26    29    1
    73    34    35   ar
    74    27    28    2
    75    29    30    1
    76    30    31   ar
    77    35    33   ar
    78     2     1    1
    79     2     5    1
    80    37    40    1
    81    37    38    1
    82    31    33   ar
    83     6     5    1
    84     6     7    1
    85     6     8    1
    86    98    99    2
    87    98    97    1
    88   106   108   ar
    89   106   103   ar
    90   108   109   ar
    91    96    97    1
    92   100    97    1
    93   100   101    1
    94    38    39    2
    95   103   101   ar
    96   103   105   ar
    97   109   107   ar
    98   101   102   ar
    99    85    84    1
   100    84    83    1
   101    47    45    1
   102   105   107   ar
   103   105   104   ar
   104   102   104   ar
   105    41    42    1
   106    77    76    1
   107    54    53    1
   108    83    82    1
   109    76    75    1
   110    69    67    1
   111    55    53    1
   112    45    46    1
   113    45    42    1
   114    42    43    1
   115    43    44    2
   116    53    52    1
   117    61    60    1
   118    82    79    1
   119    59    58    2
   120    67    68    1
   121    67    66    1
   122    81    80    2
   123    75    74    1
   124    60    57    1
   125    52    49    1
   126    74    71    1
   127    79    80    1
   128    79    78    1
   129    63    66    1
   130    63    62    1
   131    63    64    1
   132    58    62   am
   133    58    57    1
   134    49    50    1
   135    49    48    1
   136    51    50    2
   137    57    56    1
   138    64    65    2
   139    71    70    1
   140    71    72    1
   141    73    72    2
