@<TRIPOS>MOLECULE
tmp/5elhB00.pdb
 137 136 0 0 0
SMALL
GASTEIGER

@<TRIPOS>ATOM
      1  N          9.2030  -30.0620  109.5270 N.3    85  ASP85      -0.1239
      2  CA         8.0710  -30.2890  110.4350 C.3    85  ASP85       0.1674
      3  C          7.8260  -29.0880  111.3360 C.2    85  ASP85       0.2266
      4  O          7.4800  -29.2260  112.5170 O.2    85  ASP85      -0.2867
      5  CB         8.3320  -31.5350  111.2840 C.3    85  ASP85       0.1410
      6  CG         7.0560  -32.1610  111.8350 C.2    85  ASP85       0.3668
      7  OD1        5.9590  -31.9130  111.2810 O.co2  85  ASP85      -0.2456
      8  OD2        7.1560  -32.9320  112.8160 O.co2  85  ASP85      -0.2456
      9  N          4.5740  -28.2450  113.5120 N.3    88  ARG88      -0.1231
     10  CA         4.4630  -28.9250  114.7990 C.3    88  ARG88       0.1694
     11  C          5.4630  -28.3940  115.8120 C.2    88  ARG88       0.2592
     12  O          5.1050  -28.1330  116.9640 O.2    88  ARG88      -0.2718
     13  CB         4.6460  -30.4330  114.6580 C.3    88  ARG88       0.0321
     14  CG         4.1710  -31.1820  115.8940 C.3    88  ARG88       0.0489
     15  CD         4.1130  -32.6760  115.6860 C.3    88  ARG88       0.2205
     16  NE         3.2870  -33.2910  116.7180 N.pl3  88  ARG88      -0.0865
     17  CZ         3.3680  -34.5590  117.1040 C.cat  88  ARG88       0.5346
     18  NH1        4.2480  -35.3780  116.5520 N.pl3  88  ARG88       0.1354
     19  NH2        2.5660  -35.0080  118.0590 N.pl3  88  ARG88       0.1354
     20  N          6.7120  -28.2330  115.3810 N.am   89  ARG89      -0.1966
     21  CA         7.7870  -27.8460  116.2880 C.3    89  ARG89       0.1729
     22  C          7.6120  -26.4440  116.8590 C.2    89  ARG89       0.2616
     23  O          8.0690  -26.1690  117.9730 O.2    89  ARG89      -0.2715
     24  CB         9.1390  -27.9690  115.5820 C.3    89  ARG89       0.0348
     25  CG         9.5280  -29.3960  115.3330 C.3    89  ARG89       0.0492
     26  CD        10.7990  -29.5260  114.5010 C.3    89  ARG89       0.2205
     27  NE        11.0130  -30.9180  114.1160 N.pl3  89  ARG89      -0.0865
     28  CZ        12.0450  -31.3640  113.4080 C.cat  89  ARG89       0.5346
     29  NH1       12.9870  -30.5290  112.9870 N.pl3  89  ARG89       0.1354
     30  NH2       12.1260  -32.6530  113.1120 N.pl3  89  ARG89       0.1354
     31  N          6.9360  -25.5770  116.1010 N.am   90  TYR90      -0.1974
     32  CA         6.7450  -24.1800  116.4780 C.3    90  TYR90       0.1639
     33  C          5.2590  -23.8560  116.8090 C.2    90  TYR90       0.2290
     34  O          4.8480  -22.6960  116.8690 O.2    90  TYR90      -0.2864
     35  CB         7.3390  -23.2830  115.3850 C.3    90  TYR90       0.0560
     36  CG         8.8220  -23.5480  115.2010 C.ar   90  TYR90      -0.0198
     37  CD1        9.2690  -24.5610  114.3530 C.ar   90  TYR90      -0.0009
     38  CD2        9.7730  -22.8200  115.9090 C.ar   90  TYR90      -0.0009
     39  CE1       10.6060  -24.8230  114.1960 C.ar   90  TYR90       0.0417
     40  CE2       11.1170  -23.0820  115.7670 C.ar   90  TYR90       0.0417
     41  CZ        11.5240  -24.0860  114.9030 C.ar   90  TYR90       0.1957
     42  OH        12.8460  -24.3710  114.7500 O.3    90  TYR90      -0.2866
     43  N          3.4580  -27.0070  121.5430 N.3    94  TYR94      -0.1241
     44  CA         4.7190  -27.7400  121.7540 C.3    94  TYR94       0.1605
     45  C          6.0010  -26.9030  121.8160 C.2    94  TYR94       0.2264
     46  O          6.9610  -27.3320  122.4560 O.2    94  TYR94      -0.2867
     47  CB         4.9030  -28.8320  120.6940 C.3    94  TYR94       0.0534
     48  CG         3.9710  -30.0100  120.8540 C.ar   94  TYR94      -0.0201
     49  CD1        3.9740  -30.7670  122.0130 C.ar   94  TYR94      -0.0009
     50  CD2        3.0870  -30.3640  119.8400 C.ar   94  TYR94      -0.0009
     51  CE1        3.1240  -31.8300  122.1670 C.ar   94  TYR94       0.0417
     52  CE2        2.2410  -31.4330  119.9780 C.ar   94  TYR94       0.0417
     53  CZ         2.2540  -32.1630  121.1500 C.ar   94  TYR94       0.1957
     54  OH         1.3990  -33.2300  121.3060 O.3    94  TYR94      -0.2866
     55  N          8.5050  -26.5480  125.0060 N.3    97  THR97      -0.1203
     56  CA         7.8100  -27.0950  126.1840 C.3    97  THR97       0.1994
     57  C          8.5340  -28.2900  126.8070 C.2    97  THR97       0.2618
     58  O          8.2330  -28.6840  127.9470 O.2    97  THR97      -0.2717
     59  CB         6.3740  -27.5430  125.8630 C.3    97  THR97       0.1784
     60  OG1        6.4100  -28.6240  124.9250 O.3    97  THR97      -0.2211
     61  CG2        5.5520  -26.3910  125.3170 C.3    97  THR97       0.0376
     62  N          9.4710  -28.8680  126.0580 N.am   98  GLY98      -0.1942
     63  CA        10.3540  -29.9120  126.5600 C.3    98  GLY98       0.2014
     64  C         11.8100  -29.4600  126.6180 C.2    98  GLY98       0.2639
     65  O         12.1830  -28.4500  126.0210 O.2    98  GLY98      -0.2714
     66  N         12.6260  -30.1910  127.3710 N.am   99  ILE99      -0.1963
     67  CA        14.0640  -29.9100  127.4520 C.3    99  ILE99       0.1727
     68  C         14.8150  -30.5640  126.2930 C.2    99  ILE99       0.2616
     69  O         14.6430  -31.7480  126.0180 O.2    99  ILE99      -0.2715
     70  CB        14.6490  -30.4430  128.7840 C.3    99  ILE99       0.0290
     71  CG1       13.8230  -29.9260  129.9740 C.3    99  ILE99       0.0022
     72  CG2       16.1280  -30.0740  128.9230 C.3    99  ILE99       0.0023
     73  CD1       14.3020  -30.4180  131.3390 C.3    99  ILE99       0.0001
     74  N         15.6900  -29.8150  125.6380 N.am  100  CYS100     -0.1954
     75  CA        16.5360  -30.4160  124.6160 C.3   100  CYS100      0.1843
     76  C         17.5670  -31.3720  125.2150 C.2   100  CYS100      0.2625
     77  O         18.2420  -31.0730  126.2160 O.2   100  CYS100     -0.2714
     78  CB        17.2500  -29.3570  123.7790 C.3   100  CYS100      0.0997
     79  SG        17.9970  -30.0620  122.2710 S.3   100  CYS100     -0.0797
     80  N         17.6920  -32.5370  124.6010 N.am  101  ILE101     -0.1963
     81  CA        18.6480  -33.5130  125.0800 C.3   101  ILE101      0.1727
     82  C         20.0720  -33.0990  124.7210 C.2   101  ILE101      0.2616
     83  O         21.0240  -33.5840  125.3280 O.2   101  ILE101     -0.2715
     84  CB        18.3490  -34.9220  124.5380 C.3   101  ILE101      0.0290
     85  CG1       19.1570  -35.9530  125.3180 C.3   101  ILE101      0.0022
     86  CG2       18.6200  -35.0020  123.0320 C.3   101  ILE101      0.0023
     87  CD1       18.6570  -37.3610  125.1630 C.3   101  ILE101      0.0001
     88  N         20.2180  -32.2000  123.7480 N.am  102  HIS102     -0.1973
     89  CA        21.5520  -31.7880  123.3020 C.3   102  HIS102      0.1656
     90  C         22.1430  -30.6960  124.1990 C.2   102  HIS102      0.2291
     91  O         21.4210  -29.9220  124.8210 O.2   102  HIS102     -0.2864
     92  CB        21.5180  -31.2880  121.8640 C.3   102  HIS102      0.0771
     93  CG        20.9130  -32.2590  120.8930 C.ar  102  HIS102      0.0820
     94  ND1       21.4620  -33.4970  120.6350 N.ar  102  HIS102     -0.2267
     95  CD2       19.8200  -32.1590  120.0990 C.ar  102  HIS102      0.1154
     96  CE1       20.7250  -34.1260  119.7370 C.ar  102  HIS102      0.1986
     97  NE2       19.7200  -33.3380  119.3970 N.ar  102  HIS102     -0.2212
     98  N         21.0120  -28.7550  116.8600 N.3   113  ASN113     -0.1240
     99  CA        19.8700  -28.3930  116.0090 C.3   113  ASN113      0.1653
    100  C         19.9310  -26.9750  115.4480 C.2   113  ASN113      0.2266
    101  O         19.0050  -26.5210  114.7790 O.2   113  ASN113     -0.2867
    102  CB        18.5620  -28.5690  116.7800 C.3   113  ASN113      0.1155
    103  CG        18.1900  -30.0280  116.9720 C.2   113  ASN113      0.2627
    104  OD1       18.7060  -30.9100  116.2860 O.2   113  ASN113     -0.2716
    105  ND2       17.2730  -30.2860  117.8990 N.am  113  ASN113     -0.0877
    106  N         17.7490  -22.3460  115.6360 N.3   116  HIS116     -0.1226
    107  CA        16.2900  -22.3910  115.7080 C.3   116  HIS116      0.1752
    108  C         15.7280  -23.5770  116.5070 C.2   116  HIS116      0.2596
    109  O         14.5370  -23.8660  116.4040 O.2   116  HIS116     -0.2718
    110  CB        15.6870  -22.4450  114.2990 C.3   116  HIS116      0.0759
    111  CG        16.2380  -21.4170  113.3620 C.ar  116  HIS116      0.0818
    112  ND1       16.4040  -20.0970  113.7190 N.ar  116  HIS116     -0.2268
    113  CD2       16.6460  -21.5140  112.0740 C.ar  116  HIS116      0.1154
    114  CE1       16.8960  -19.4250  112.6950 C.ar  116  HIS116      0.1986
    115  NE2       17.0530  -20.2610  111.6830 N.ar  116  HIS116     -0.2212
    116  N         16.5540  -24.2540  117.3030 N.am  117  CYS117     -0.1956
    117  CA        16.0780  -25.3880  118.0770 C.3   117  CYS117      0.1843
    118  C         14.7670  -25.0640  118.7970 C.2   117  CYS117      0.2625
    119  O         14.6600  -24.0390  119.4740 O.2   117  CYS117     -0.2714
    120  CB        17.0950  -25.7930  119.1430 C.3   117  CYS117      0.0997
    121  SG        16.6370  -27.3300  119.9330 S.3   117  CYS117     -0.0797
    122  N         13.8020  -25.9650  118.6800 N.am  118  ALA118     -0.1963
    123  CA        12.4770  -25.7340  119.2450 C.3   118  ALA118      0.1728
    124  C         12.3040  -26.4390  120.5920 C.2   118  ALA118      0.2616
    125  O         11.1890  -26.5190  121.1180 O.2   118  ALA118     -0.2715
    126  CB        11.4010  -26.1610  118.2590 C.3   118  ALA118      0.0334
    127  N         13.4110  -26.9360  121.1490 N.am  119  PHE119     -0.1974
    128  CA        13.3980  -27.4660  122.5070 C.3   119  PHE119      0.1639
    129  C         14.0860  -26.4580  123.4030 C.2   119  PHE119      0.2290
    130  O         14.8120  -25.5760  122.9250 O.2   119  PHE119     -0.2864
    131  CB        14.0560  -28.8390  122.5890 C.3   119  PHE119      0.0560
    132  CG        13.2050  -29.9440  122.0470 C.ar  119  PHE119     -0.0200
    133  CD1       13.2120  -30.2430  120.6890 C.ar  119  PHE119     -0.0042
    134  CD2       12.3790  -30.6710  122.8840 C.ar  119  PHE119     -0.0042
    135  CE1       12.4200  -31.2550  120.1800 C.ar  119  PHE119     -0.0003
    136  CE2       11.5800  -31.6860  122.3860 C.ar  119  PHE119     -0.0003
    137  CZ        11.5960  -31.9790  121.0290 C.ar  119  PHE119     -0.0000
@<TRIPOS>BOND
     1     1     2    1
     2     2     5    1
     3     2     3    1
     4     7     6   ar
     5     5     6    1
     6     3     4    2
     7   115   113   ar
     8   115   114   ar
     9     6     8   ar
    10   113   111   ar
    11   114   112   ar
    12    29    28    1
    13    30    28    1
    14   111   112   ar
    15   111   110    1
    16    28    27    2
    17     9    10    1
    18    27    26    1
    19    39    37   ar
    20    39    41   ar
    21   110   107    1
    22    37    36   ar
    23    26    25    1
    24    13    10    1
    25    13    14    1
    26    42    41    1
    27   101   100    2
    28    10    11    1
    29    41    40   ar
    30    36    35    1
    31    36    38   ar
    32    25    24    1
    33    20    11   am
    34    20    21    1
    35    35    32    1
    36   100    99    1
    37    24    21    1
    38   106   107    1
    39    15    14    1
    40    15    16    1
    41   107   108    1
    42    40    38   ar
    43    11    12    2
    44    99   102    1
    45    99    98    1
    46    31    32    1
    47    31    22   am
    48   104   103    2
    49    21    22    1
    50   109   108    2
    51    32    33    1
    52   108   116   am
    53    18    17    1
    54    16    17    2
    55   102   103    1
    56    33    34    2
    57    22    23    2
    58   103   105   am
    59    17    19    1
    60   116   117    1
    61   117   118    1
    62   117   120    1
    63   126   123    1
    64   122   118   am
    65   122   123    1
    66   118   119    2
    67   120   121    1
    68   123   124    1
    69    97    96   ar
    70    97    95   ar
    71    96    94   ar
    72    50    52   ar
    73    50    48   ar
    74    52    53   ar
    75    95    93   ar
    76   135   133   ar
    77   135   137   ar
    78   124   125    2
    79   124   127   am
    80    94    93   ar
    81   133   132   ar
    82    47    48    1
    83    47    44    1
    84    48    49   ar
    85    93    92    1
    86   137   136   ar
    87   127   128    1
    88    53    54    1
    89    53    51   ar
    90    43    44    1
    91    44    45    1
    92    45    46    2
    93    92    89    1
    94    49    51   ar
    95   132   131    1
    96   132   134   ar
    97    79    78    1
    98   136   134   ar
    99   128   131    1
   100   128   129    1
   101   130   129    2
   102    86    84    1
   103    89    88    1
   104    89    90    1
   105    88    82   am
   106    78    75    1
   107    90    91    2
   108    84    81    1
   109    84    85    1
   110    80    81    1
   111    80    76   am
   112    75    76    1
   113    75    74    1
   114    82    81    1
   115    82    83    2
   116    60    59    1
   117    55    56    1
   118    87    85    1
   119    76    77    2
   120    61    59    1
   121    74    68   am
   122    59    56    1
   123    69    68    2
   124    65    64    2
   125    62    63    1
   126    62    57   am
   127    56    57    1
   128    68    67    1
   129    63    64    1
   130    64    66   am
   131    57    58    2
   132    66    67    1
   133    67    70    1
   134    70    72    1
   135    70    71    1
   136    71    73    1
