@<TRIPOS>MOLECULE
tmp/5elkA00.pdb
 240 237 0 0 0
SMALL
GASTEIGER

@<TRIPOS>ATOM
      1  N         18.1000   -2.0370   28.6650 N.3    13  TYR13      -0.1227
      2  CA        17.9690   -0.8410   29.4990 C.3    13  TYR13       0.1736
      3  C         16.5150   -0.5180   29.8830 C.2    13  TYR13       0.2595
      4  O         15.6740   -0.3050   29.0180 O.2    13  TYR13      -0.2718
      5  CB        18.5720    0.3530   28.7790 C.3    13  TYR13       0.0548
      6  CG        18.6380    1.6080   29.6140 C.ar   13  TYR13      -0.0200
      7  CD1       19.5920    1.7420   30.6000 C.ar   13  TYR13      -0.0009
      8  CD2       17.7660    2.6610   29.4050 C.ar   13  TYR13      -0.0009
      9  CE1       19.6760    2.8820   31.3600 C.ar   13  TYR13       0.0417
     10  CE2       17.8450    3.8160   30.1700 C.ar   13  TYR13       0.0417
     11  CZ        18.8060    3.9130   31.1430 C.ar   13  TYR13       0.1957
     12  OH        18.9150    5.0410   31.9180 O.3    13  TYR13      -0.2866
     13  N         16.2540   -0.4640   31.1880 N.am   14  LYS14      -0.1980
     14  CA        14.9160   -0.2290   31.7480 C.3    14  LYS14       0.1596
     15  C         13.8310   -1.1460   31.1950 C.2    14  LYS14       0.2287
     16  O         12.6780   -0.7560   31.0450 O.2    14  LYS14      -0.2864
     17  CB        14.5300    1.2400   31.6120 C.3    14  LYS14       0.0298
     18  CG        15.3000    2.0930   32.5830 C.3    14  LYS14       0.0038
     19  CD        15.0690    3.5600   32.3700 C.3    14  LYS14       0.0206
     20  CE        15.8840    4.3780   33.3490 C.3    14  LYS14       0.1093
     21  NZ        15.6140    3.9980   34.7660 N.3    14  LYS14      -0.1314
     22  N         16.9870    7.3020   40.8040 N.3    27  GLN27      -0.1231
     23  CA        15.6520    7.2580   40.2190 C.3    27  GLN27       0.1698
     24  C         15.6510    7.8660   38.8250 C.2    27  GLN27       0.2593
     25  O         14.6790    8.5110   38.4230 O.2    27  GLN27      -0.2718
     26  CB        14.6610    8.0180   41.1080 C.3    27  GLN27       0.0381
     27  CG        13.1920    7.6770   40.8720 C.3    27  GLN27       0.0905
     28  CD        12.7890    6.3830   41.5360 C.2    27  GLN27       0.2608
     29  OE1       13.6410    5.5960   41.9400 O.2    27  GLN27      -0.2717
     30  NE2       11.4860    6.1570   41.6640 N.am   27  GLN27      -0.0878
     31  N         16.7380    7.6720   38.0860 N.am   28  GLY28      -0.1942
     32  CA        16.8240    8.2480   36.7620 C.3    28  GLY28       0.2014
     33  C         17.7000    7.4460   35.8340 C.2    28  GLY28       0.2638
     34  O         17.7140    6.2170   35.8970 O.2    28  GLY28      -0.2714
     35  N         18.4420    8.1530   34.9840 N.am   29  TYR29      -0.1973
     36  CA        19.2800    7.5290   33.9650 C.3    29  TYR29       0.1639
     37  C         20.3580    6.6210   34.5660 C.2    29  TYR29       0.2290
     38  O         20.8740    5.7190   33.8990 O.2    29  TYR29      -0.2864
     39  CB        19.9340    8.6120   33.0900 C.3    29  TYR29       0.0560
     40  CG        20.8460    9.5830   33.8420 C.ar   29  TYR29      -0.0198
     41  CD1       22.0220    9.1470   34.4530 C.ar   29  TYR29      -0.0009
     42  CD2       20.5330   10.9370   33.9390 C.ar   29  TYR29      -0.0009
     43  CE1       22.8560   10.0290   35.1430 C.ar   29  TYR29       0.0417
     44  CE2       21.3690   11.8270   34.6260 C.ar   29  TYR29       0.0417
     45  CZ        22.5270   11.3650   35.2240 C.ar   29  TYR29       0.1957
     46  OH        23.3630   12.2340   35.9020 O.3    29  TYR29      -0.2866
     47  N          9.9430    4.7310   16.2540 N.3    51  SER51      -0.1202
     48  CA        10.6110    5.7410   17.0690 C.3    51  SER51       0.2020
     49  C          9.6580    6.8570   17.5030 C.2    51  SER51       0.2619
     50  O          9.8590    7.4790   18.5410 O.2    51  SER51      -0.2717
     51  CB        11.7920    6.3570   16.3110 C.3    51  SER51       0.2103
     52  OG        11.3690    6.9270   15.0860 O.3    51  SER51      -0.2182
     53  N          8.6240    7.1070   16.7110 N.am   52  SER52      -0.1938
     54  CA         7.7470    8.2540   16.9390 C.3    52  SER52       0.2040
     55  C          6.9130    8.0920   18.2230 C.2    52  SER52       0.2485
     56  O          6.5030    6.9810   18.5560 O.2    52  SER52      -0.2729
     57  CB         6.8260    8.4590   15.7340 C.3    52  SER52       0.2129
     58  OG         6.3160    7.2240   15.2780 O.3    52  SER52      -0.2179
     59  N          6.6580    9.2020   18.9470 N.am   53  PRO53      -0.2726
     60  CA         5.8390    9.1710   20.1690 C.3    53  PRO53       0.1402
     61  C          4.3720    8.8180   19.9140 C.2    53  PRO53       0.2269
     62  O          3.8410    9.2230   18.8820 O.2    53  PRO53      -0.2865
     63  CB         5.9090   10.6150   20.6770 C.3    53  PRO53       0.0296
     64  CG         7.0660   11.2310   19.9900 C.3    53  PRO53       0.0237
     65  CD         7.1570   10.5580   18.6680 C.3    53  PRO53       0.0939
     66  N          1.9440   11.1820   24.6080 N.3    58  LYS58      -0.1245
     67  CA         2.6950   12.4220   24.5320 C.3    58  LYS58       0.1561
     68  C          1.8540   13.5100   23.8880 C.2    58  LYS58       0.2260
     69  O          1.6510   13.5260   22.6760 O.2    58  LYS58      -0.2867
     70  CB         4.0040   12.2410   23.7620 C.3    58  LYS58       0.0271
     71  CG         4.9040   13.4510   23.9050 C.3    58  LYS58       0.0035
     72  CD         6.0840   13.4130   22.9680 C.3    58  LYS58       0.0206
     73  CE         7.1000   14.4920   23.3070 C.3    58  LYS58       0.1093
     74  NZ         8.3110   14.3950   22.4460 N.3    58  LYS58      -0.1314
     75  N          5.3970   14.0280   28.4000 N.3    63  TRP63      -0.1241
     76  CA         5.1280   12.5990   28.4430 C.3    63  TRP63       0.1605
     77  C          4.1290   12.3840   29.5750 C.2    63  TRP63       0.2264
     78  O          4.3310   12.8940   30.6830 O.2    63  TRP63      -0.2867
     79  CB         6.4340   11.8110   28.6640 C.3    63  TRP63       0.0550
     80  CG         7.2690   11.7280   27.4020 C.ar   63  TRP63       0.0003
     81  CD1        8.2770   12.5700   27.0210 C.ar   63  TRP63       0.0946
     82  CD2        7.1370   10.7630   26.3480 C.ar   63  TRP63       0.0152
     83  NE1        8.7780   12.1840   25.7980 N.ar   63  TRP63      -0.2442
     84  CE2        8.0920   11.0840   25.3670 C.ar   63  TRP63       0.0810
     85  CE3        6.3050    9.6670   26.1450 C.ar   63  TRP63       0.0012
     86  CZ2        8.2350   10.3370   24.2050 C.ar   63  TRP63       0.0191
     87  CZ3        6.4510    8.9350   24.9920 C.ar   63  TRP63       0.0001
     88  CH2        7.4020    9.2700   24.0380 C.ar   63  TRP63       0.0015
     89  N          9.6960    8.3820   27.1460 N.3    81  ARG81      -0.1231
     90  CA        10.8290    9.0890   26.5930 C.3    81  ARG81       0.1694
     91  C         11.9910    8.1150   26.5120 C.2    81  ARG81       0.2592
     92  O         12.7940    8.1360   25.5700 O.2    81  ARG81      -0.2718
     93  CB        11.1820   10.2710   27.4920 C.3    81  ARG81       0.0321
     94  CG        12.4930   10.9680   27.1500 C.3    81  ARG81       0.0489
     95  CD        12.7640   12.1050   28.1220 C.3    81  ARG81       0.2205
     96  NE        11.8310   13.2160   27.9390 N.pl3  81  ARG81      -0.0865
     97  CZ        10.9940   13.6750   28.8690 C.cat  81  ARG81       0.5346
     98  NH1       10.9500   13.1440   30.0880 N.pl3  81  ARG81       0.1354
     99  NH2       10.1900   14.6860   28.5780 N.pl3  81  ARG81       0.1354
    100  N         12.0620    7.2320   27.4960 N.am   82  THR82      -0.1953
    101  CA        13.1040    6.2300   27.4900 C.3    82  THR82       0.1897
    102  C         12.9790    5.3100   26.2840 C.2    82  THR82       0.2313
    103  O         13.9880    4.9400   25.6770 O.2    82  THR82      -0.2863
    104  CB        13.0890    5.4000   28.7640 C.3    82  THR82       0.1794
    105  OG1       13.1290    6.2820   29.8910 O.3    82  THR82      -0.2208
    106  CG2       14.2940    4.4750   28.7930 C.3    82  THR82       0.0378
    107  N         11.8570    6.0290   23.4520 N.3    84  GLN84      -0.1231
    108  CA        12.2590    6.7480   22.2590 C.3    84  GLN84       0.1698
    109  C         13.7820    6.9520   22.2150 C.2    84  GLN84       0.2592
    110  O         14.4250    6.6830   21.2040 O.2    84  GLN84      -0.2718
    111  CB        11.5480    8.0920   22.2080 C.3    84  GLN84       0.0381
    112  CG        11.8310    8.8850   20.9580 C.3    84  GLN84       0.0905
    113  CD        11.1170   10.2150   20.9390 C.2    84  GLN84       0.2608
    114  OE1       11.1370   10.9560   21.9210 O.2    84  GLN84      -0.2717
    115  NE2       10.4820   10.5310   19.8190 N.am   84  GLN84      -0.0878
    116  N         14.3480    7.4290   23.3170 N.am   85  GLN85      -0.1966
    117  CA        15.7650    7.7560   23.3620 C.3    85  GLN85       0.1733
    118  C         16.6210    6.5200   23.1220 C.2    85  GLN85       0.2616
    119  O         17.6930    6.6090   22.5280 O.2    85  GLN85      -0.2715
    120  CB        16.1260    8.4060   24.6960 C.3    85  GLN85       0.0408
    121  CG        15.6020    9.8300   24.8440 C.3    85  GLN85       0.0908
    122  CD        16.3570   10.6350   25.8770 C.2    85  GLN85       0.2608
    123  OE1       15.9050   10.7940   27.0070 O.2    85  GLN85      -0.2717
    124  NE2       17.5200   11.1510   25.4940 N.am   85  GLN85      -0.0878
    125  N         16.1170    5.3650   23.5420 N.am   86  PHE86      -0.1974
    126  CA        16.8470    4.1180   23.3930 C.3    86  PHE86       0.1639
    127  C         16.2230    3.2520   22.3180 C.2    86  PHE86       0.2290
    128  O         16.3500    2.0290   22.3370 O.2    86  PHE86      -0.2864
    129  CB        16.8930    3.3940   24.7290 C.3    86  PHE86       0.0560
    130  CG        17.7060    4.1160   25.7550 C.ar   86  PHE86      -0.0200
    131  CD1       17.1440    5.1130   26.5200 C.ar   86  PHE86      -0.0042
    132  CD2       19.0480    3.8270   25.9260 C.ar   86  PHE86      -0.0042
    133  CE1       17.8930    5.7870   27.4500 C.ar   86  PHE86      -0.0003
    134  CE2       19.7980    4.5020   26.8610 C.ar   86  PHE86      -0.0003
    135  CZ        19.2230    5.4790   27.6210 C.ar   86  PHE86      -0.0000
    136  N         17.1990    5.6190   17.1020 N.3    90  ILE90      -0.1245
    137  CA        17.4140    6.9070   17.7560 C.3    90  ILE90       0.1561
    138  C         18.7270    6.8630   18.5390 C.2    90  ILE90       0.2260
    139  O         19.4600    7.8510   18.6000 O.2    90  ILE90      -0.2867
    140  CB        16.2510    7.2290   18.7390 C.3    90  ILE90       0.0252
    141  CG1       14.9000    7.2420   18.0070 C.3    90  ILE90       0.0019
    142  CG2       16.4950    8.5470   19.4810 C.3    90  ILE90       0.0019
    143  CD1       14.7520    8.3440   16.9690 C.3    90  ILE90       0.0001
    144  N         22.1960    6.6580   20.1190 N.3    92  LYS92      -0.1231
    145  CA        23.5600    7.0070   19.6730 C.3    92  LYS92       0.1693
    146  C         23.6130    7.5770   18.2600 C.2    92  LYS92       0.2593
    147  O         24.6770    7.5910   17.6400 O.2    92  LYS92      -0.2718
    148  CB        24.5050    5.8040   19.7510 C.3    92  LYS92       0.0285
    149  CG        24.5880    5.1550   21.1130 C.3    92  LYS92       0.0035
    150  CD        25.2160    6.0830   22.1200 C.3    92  LYS92       0.0206
    151  CE        25.6540    5.3570   23.3810 C.3    92  LYS92       0.1093
    152  NZ        26.3910    6.2780   24.2880 N.3    92  LYS92      -0.1314
    153  N         22.4750    8.0450   17.7550 N.am   93  SER93      -0.1938
    154  CA        22.4070    8.5690   16.3940 C.3    93  SER93       0.2055
    155  C         22.8980   10.0180   16.3160 C.2    93  SER93       0.2644
    156  O         23.2410   10.5080   15.2450 O.2    93  SER93      -0.2714
    157  CB        20.9770    8.4730   15.8550 C.3    93  SER93       0.2130
    158  OG        20.0800    9.1900   16.6740 O.3    93  SER93      -0.2179
    159  N         22.9390   10.6830   17.4640 N.am   94  THR94      -0.1936
    160  CA        23.2590   12.1040   17.5420 C.3    94  THR94       0.2028
    161  C         24.3290   12.3420   18.5920 C.2    94  THR94       0.2642
    162  O         24.2710   11.7950   19.6940 O.2    94  THR94      -0.2714
    163  CB        22.0170   12.9390   17.9300 C.3    94  THR94       0.1808
    164  OG1       20.9830   12.7470   16.9550 O.3    94  THR94      -0.2208
    165  CG2       22.3560   14.4190   18.0170 C.3    94  THR94       0.0379
    166  N         25.2930   13.1860   18.2470 N.am   95  LYS95      -0.1963
    167  CA        26.4110   13.5090   19.1270 C.3    95  LYS95       0.1728
    168  C         25.9740   14.0140   20.4950 C.2    95  LYS95       0.2616
    169  O         25.1260   14.8920   20.6090 O.2    95  LYS95      -0.2715
    170  CB        27.2850   14.5860   18.4820 C.3    95  LYS95       0.0311
    171  CG        27.8810   14.1980   17.1450 C.3    95  LYS95       0.0038
    172  CD        28.8440   15.2660   16.6400 C.3    95  LYS95       0.0206
    173  CE        28.1180   16.5180   16.1350 C.3    95  LYS95       0.1093
    174  NZ        28.9360   17.7620   16.2680 N.3    95  LYS95      -0.1314
    175  N         26.5830   13.4670   21.5370 N.am   96  CYS96      -0.1954
    176  CA        26.3610   13.9550   22.8900 C.3    96  CYS96       0.1843
    177  C         27.0040   15.3330   23.0750 C.2    96  CYS96       0.2625
    178  O         28.2200   15.5060   22.9340 O.2    96  CYS96      -0.2714
    179  CB        26.9230   12.9610   23.9030 C.3    96  CYS96       0.0997
    180  SG        26.7930   13.4780   25.6210 S.3    96  CYS96      -0.0797
    181  N         26.1730   16.3090   23.4010 N.am   97  ASN97      -0.1958
    182  CA        26.6110   17.6910   23.5070 C.3    97  ASN97       0.1819
    183  C         27.5210   17.9250   24.7090 C.2    97  ASN97       0.2621
    184  O         28.4900   18.6730   24.6280 O.2    97  ASN97      -0.2715
    185  CB        25.3840   18.5890   23.6070 C.3    97  ASN97       0.1195
    186  CG        25.4940   19.8140   22.7510 C.2    97  ASN97       0.2630
    187  OD1       25.4810   20.9340   23.2550 O.2    97  ASN97      -0.2716
    188  ND2       25.5950   19.6170   21.4440 N.am   97  ASN97      -0.0877
    189  N         27.2040   17.2770   25.8220 N.am   98  ASP98      -0.1971
    190  CA        27.9790   17.4240   27.0470 C.3    98  ASP98       0.1709
    191  C         29.4020   16.9320   26.8280 C.2    98  ASP98       0.2293
    192  O         30.3650   17.5130   27.3360 O.2    98  ASP98      -0.2864
    193  CB        27.3360   16.6220   28.1830 C.3    98  ASP98       0.1436
    194  CG        25.9060   17.0290   28.4480 C.2    98  ASP98       0.3671
    195  OD1       24.9980   16.5210   27.7470 O.co2  98  ASP98      -0.2456
    196  OD2       25.6920   17.8620   29.3570 O.co2  98  ASP98      -0.2456
    197  N         26.0630   11.0150   32.3120 N.3   107  ARG107     -0.1245
    198  CA        25.1960    9.8550   32.1700 C.3   107  ARG107      0.1563
    199  C         26.0080    8.6350   31.7780 C.2   107  ARG107      0.2260
    200  O         25.5130    7.5080   31.8390 O.2   107  ARG107     -0.2867
    201  CB        24.1190   10.1470   31.1280 C.3   107  ARG107      0.0307
    202  CG        23.4270   11.4780   31.3530 C.3   107  ARG107      0.0489
    203  CD        22.3790   11.7310   30.2990 C.3   107  ARG107      0.2205
    204  NE        22.9650   12.1850   29.0400 N.pl3 107  ARG107     -0.0865
    205  CZ        23.4860   13.3930   28.8510 C.cat 107  ARG107      0.5346
    206  NH1       23.5080   14.2690   29.8440 N.pl3 107  ARG107      0.1354
    207  NH2       23.9920   13.7290   27.6720 N.pl3 107  ARG107      0.1354
    208  N         25.0280    5.1980   30.1340 N.3   110  PHE110     -0.1227
    209  CA        23.5830    5.1910   29.9410 C.3   110  PHE110      0.1736
    210  C         23.1400    6.4430   29.2190 C.2   110  PHE110      0.2596
    211  O         21.9470    6.7430   29.1480 O.2   110  PHE110     -0.2718
    212  CB        22.8670    5.0470   31.2830 C.3   110  PHE110      0.0547
    213  CG        23.2140    3.7800   32.0140 C.ar  110  PHE110     -0.0202
    214  CD1       23.2860    2.5760   31.3420 C.ar  110  PHE110     -0.0042
    215  CD2       23.4930    3.7960   33.3620 C.ar  110  PHE110     -0.0042
    216  CE1       23.6160    1.4140   32.0060 C.ar  110  PHE110     -0.0003
    217  CE2       23.8200    2.6330   34.0300 C.ar  110  PHE110     -0.0003
    218  CZ        23.8810    1.4430   33.3470 C.ar  110  PHE110     -0.0000
    219  N         24.1050    7.1660   28.6630 N.am  111  CYS111     -0.1956
    220  CA        23.7920    8.2550   27.7560 C.3   111  CYS111      0.1843
    221  C         23.2010    7.6390   26.5010 C.2   111  CYS111      0.2625
    222  O         23.7010    6.6170   26.0200 O.2   111  CYS111     -0.2714
    223  CB        25.0500    9.0480   27.3990 C.3   111  CYS111      0.0997
    224  SG        24.7120   10.5590   26.4450 S.3   111  CYS111     -0.0797
    225  N         22.1520    8.2600   25.9680 N.am  112  ALA112     -0.1963
    226  CA        21.4810    7.7650   24.7580 C.3   112  ALA112      0.1728
    227  C         22.0680    8.4070   23.5070 C.2   112  ALA112      0.2616
    228  O         21.6240    8.1260   22.3900 O.2   112  ALA112     -0.2715
    229  CB        19.9770    8.0340   24.8250 C.3   112  ALA112      0.0334
    230  N         23.0590    9.2730   23.7080 N.am  113  PHE113     -0.1974
    231  CA        23.7180    9.9840   22.6150 C.3   113  PHE113      0.1639
    232  C         25.1220    9.4590   22.3470 C.2   113  PHE113      0.2290
    233  O         25.7130    8.7580   23.1690 O.2   113  PHE113     -0.2864
    234  CB        23.7620   11.4740   22.9280 C.3   113  PHE113      0.0560
    235  CG        22.4040   12.0930   23.0130 C.ar  113  PHE113     -0.0200
    236  CD1       21.6840   12.0570   24.1960 C.ar  113  PHE113     -0.0042
    237  CD2       21.8290   12.6750   21.9080 C.ar  113  PHE113     -0.0042
    238  CE1       20.4270   12.6120   24.2720 C.ar  113  PHE113     -0.0003
    239  CE2       20.5650   13.2250   21.9820 C.ar  113  PHE113     -0.0003
    240  CZ        19.8690   13.1960   23.1660 C.ar  113  PHE113     -0.0000
@<TRIPOS>BOND
     1    52    51    1
     2   156   155    2
     3    58    57    1
     4    57    54    1
     5   157   154    1
     6   157   158    1
     7   173   174    1
     8   173   172    1
     9    47    48    1
    10    51    48    1
    11   155   154    1
    12   155   159   am
    13   154   153    1
    14   172   171    1
    15    53    54    1
    16    53    49   am
    17    54    55    1
    18   164   163    1
    19   143   141    1
    20    48    49    1
    21   136   137    1
    22   171   170    1
    23   159   160    1
    24    49    50    2
    25   160   163    1
    26   160   161    1
    27   147   146    2
    28   153   146   am
    29   137   138    1
    30   137   140    1
    31   163   165    1
    32   141   140    1
    33    55    56    2
    34    55    59   am
    35   166   161   am
    36   166   167    1
    37   146   145    1
    38   170   167    1
    39   138   139    2
    40   161   162    2
    41    65    59    1
    42    65    64    1
    43   140   142    1
    44    62    61    2
    45    59    60    1
    46   167   168    1
    47   145   148    1
    48   145   144    1
    49   148   149    1
    50   115   113   am
    51    61    60    1
    52    64    63    1
    53    60    63    1
    54   168   169    2
    55   168   175   am
    56   113   112    1
    57   113   114    2
    58   112   111    1
    59   149   150    1
    60   110   109    2
    61   188   186   am
    62   175   176    1
    63   237   239   ar
    64   237   235   ar
    65   239   240   ar
    66   150   151    1
    67   111   108    1
    68   109   108    1
    69   109   116   am
    70   108   107    1
    71   127   128    2
    72   127   126    1
    73   232   231    1
    74   232   233    2
    75   228   227    2
    76    74    73    1
    77   119   118    2
    78   231   234    1
    79   231   230    1
    80    69    68    2
    81   186   187    2
    82   186   185    1
    83   176   177    1
    84   176   179    1
    85   234   235    1
    86   178   177    2
    87    72    73    1
    88    72    71    1
    89   235   236   ar
    90   177   181   am
    91   118   117    1
    92   118   125   am
    93   240   238   ar
    94   116   117    1
    95   117   120    1
    96   151   152    1
    97   126   125    1
    98   126   129    1
    99   181   182    1
   100   227   230   am
   101   227   226    1
   102   182   185    1
   103   182   183    1
   104    70    71    1
   105    70    67    1
   106    68    67    1
   107   179   180    1
   108    88    86   ar
   109    88    87   ar
   110   236   238   ar
   111    86    84   ar
   112    67    66    1
   113   184   183    2
   114   120   121    1
   115   183   189   am
   116   129   130    1
   117   226   229    1
   118   226   225    1
   119   121   122    1
   120    87    85   ar
   121    84    83   ar
   122    84    82   ar
   123   124   122   am
   124    92    91    2
   125   103   102    2
   126   130   132   ar
   127   130   131   ar
   128    83    81   ar
   129   189   190    1
   130   122   123    2
   131   132   134   ar
   132   225   221   am
   133   222   221    2
   134    85    82   ar
   135   102   101    1
   136    82    80   ar
   137   224   223    1
   138   221   220    1
   139    91    90    1
   140    91   100   am
   141   131   133   ar
   142    90    89    1
   143    90    93    1
   144   191   190    1
   145   191   192    2
   146   134   135   ar
   147    81    80   ar
   148   190   193    1
   149    94    93    1
   150    94    95    1
   151   223   220    1
   152    80    79    1
   153   133   135   ar
   154   101   100    1
   155   101   104    1
   156   207   205    1
   157   195   194   ar
   158   220   219    1
   159    96    95    1
   160    96    97    2
   161   193   194    1
   162    75    76    1
   163    76    79    1
   164    76    77    1
   165   194   196   ar
   166    99    97    1
   167   219   210   am
   168     1     2    1
   169   104   106    1
   170   104   105    1
   171     5     2    1
   172     5     6    1
   173   205   204    2
   174   205   206    1
   175    97    98    1
   176     4     3    2
   177   204   203    1
   178   211   210    2
   179   210   209    1
   180     8     6   ar
   181     8    10   ar
   182     2     3    1
   183    77    78    2
   184     6     7   ar
   185     3    13   am
   186   209   208    1
   187   209   212    1
   188    10    11   ar
   189   203   202    1
   190     7     9   ar
   191    16    15    2
   192   201   202    1
   193   201   198    1
   194    11     9   ar
   195    11    12    1
   196    13    14    1
   197    15    14    1
   198   212   213    1
   199   214   216   ar
   200   214   213   ar
   201    17    14    1
   202    17    18    1
   203   199   200    2
   204   199   198    1
   205   216   218   ar
   206   213   215   ar
   207   198   197    1
   208    19    18    1
   209    19    20    1
   210    39    40    1
   211    39    36    1
   212   218   217   ar
   213    20    21    1
   214   215   217   ar
   215    40    42   ar
   216    40    41   ar
   217    38    37    2
   218    42    44   ar
   219    36    37    1
   220    36    35    1
   221    41    43   ar
   222    44    45   ar
   223    35    33   am
   224    43    45   ar
   225    45    46    1
   226    33    34    2
   227    33    32    1
   228    32    31    1
   229    31    24   am
   230    25    24    2
   231    24    23    1
   232    23    22    1
   233    23    26    1
   234    27    26    1
   235    27    28    1
   236    28    30   am
   237    28    29    2
