@<TRIPOS>MOLECULE
tmp/5elmD00.pdb
 129 121 0 0 0
SMALL
GASTEIGER

@<TRIPOS>ATOM
      1  N          6.2870  -19.9790  -31.8730 N.3    10  MET10      -0.1245
      2  CA         7.0460  -21.1690  -32.2080 C.3    10  MET10       0.1570
      3  C          8.2810  -21.3510  -31.3300 C.2    10  MET10       0.2261
      4  O          9.3860  -21.3330  -31.8690 O.2    10  MET10      -0.2867
      5  CB         7.4430  -21.0470  -33.6990 C.3    10  MET10       0.0387
      6  CG         6.2730  -21.3070  -34.6380 C.3    10  MET10       0.0595
      7  SD         6.5760  -21.1260  -36.4150 S.3    10  MET10      -0.1393
      8  CE         6.5030  -19.3060  -36.4640 C.3    10  MET10       0.0692
      9  N          8.9260  -17.9900  -26.5310 N.3    14  SER14      -0.1217
     10  CA        10.1120  -17.3080  -27.1410 C.3    14  SER14       0.1889
     11  C          9.7910  -16.0450  -27.9660 C.2    14  SER14       0.2288
     12  O         10.6880  -15.2730  -28.3070 O.2    14  SER14      -0.2866
     13  CB        10.8950  -18.3320  -27.9240 C.3    14  SER14       0.2089
     14  OG        10.2230  -18.6450  -29.0990 O.3    14  SER14      -0.2183
     15  N          1.3690  -23.8060  -32.4600 N.3    45  PHE45      -0.1241
     16  CA         2.5440  -24.5820  -32.6440 C.3    45  PHE45       0.1605
     17  C          2.2740  -26.0780  -32.7170 C.2    45  PHE45       0.2264
     18  O          3.0910  -26.8040  -33.2510 O.2    45  PHE45      -0.2867
     19  CB         3.4780  -24.3320  -31.4840 C.3    45  PHE45       0.0534
     20  CG         4.8490  -24.9040  -31.6690 C.ar   45  PHE45      -0.0203
     21  CD1        5.6050  -24.5970  -32.8170 C.ar   45  PHE45      -0.0042
     22  CD2        5.3950  -25.7410  -30.7010 C.ar   45  PHE45      -0.0042
     23  CE1        6.9020  -25.1010  -32.9710 C.ar   45  PHE45      -0.0003
     24  CE2        6.6940  -26.2740  -30.8940 C.ar   45  PHE45      -0.0003
     25  CZ         7.4310  -25.9580  -32.0340 C.ar   45  PHE45      -0.0000
     26  N          6.1480  -31.2640  -38.6300 N.3    52  GLN52      -0.1245
     27  CA         7.5340  -31.7800  -38.4200 C.3    52  GLN52       0.1566
     28  C          7.5980  -33.3130  -38.3120 C.2    52  GLN52       0.2260
     29  O          8.3620  -33.9680  -39.0650 O.2    52  GLN52      -0.2867
     30  CB         8.1820  -31.0980  -37.2300 C.3    52  GLN52       0.0367
     31  CG         8.4380  -29.6480  -37.4390 C.3    52  GLN52       0.0905
     32  CD         9.0590  -28.9700  -36.2450 C.2    52  GLN52       0.2608
     33  OE1        9.3730  -29.5870  -35.2160 O.2    52  GLN52      -0.2717
     34  NE2        9.2050  -27.6690  -36.3560 N.am   52  GLN52      -0.0878
     35  N         12.2460  -18.0100  -34.7570 N.3    83  THR83      -0.1203
     36  CA        12.5250  -19.4370  -34.5170 C.3    83  THR83       0.1994
     37  C         13.7020  -19.7950  -35.4010 C.2    83  THR83       0.2618
     38  O         13.7030  -19.4870  -36.6080 O.2    83  THR83      -0.2717
     39  CB        11.3190  -20.4100  -34.7510 C.3    83  THR83       0.1784
     40  OG1       11.7820  -21.7170  -35.1470 O.3    83  THR83      -0.2211
     41  CG2       10.3570  -19.9520  -35.8700 C.3    83  THR83       0.0376
     42  N         14.6800  -20.4820  -34.8340 N.am   84  ASN84      -0.1960
     43  CA        15.8420  -20.8660  -35.6380 C.3    84  ASN84       0.1819
     44  C         15.4420  -21.9920  -36.6090 C.2    84  ASN84       0.2622
     45  O         15.7610  -21.9190  -37.7810 O.2    84  ASN84      -0.2715
     46  CB        16.9560  -21.3210  -34.7380 C.3    84  ASN84       0.1195
     47  CG        17.7180  -20.1870  -34.1310 C.2    84  ASN84       0.2630
     48  OD1       18.7140  -19.7670  -34.6750 O.2    84  ASN84      -0.2716
     49  ND2       17.2820  -19.7380  -32.9210 N.am   84  ASN84      -0.0877
     50  N         14.7990  -23.0360  -36.0770 N.am   85  THR85      -0.1937
     51  CA        14.4460  -24.2500  -36.8110 C.3    85  THR85       0.2028
     52  C         13.6720  -23.9920  -38.0840 C.2    85  THR85       0.2642
     53  O         13.9340  -24.5990  -39.0860 O.2    85  THR85      -0.2714
     54  CB        13.5870  -25.2060  -35.9190 C.3    85  THR85       0.1808
     55  OG1       14.2710  -25.5340  -34.7040 O.3    85  THR85      -0.2208
     56  CG2       13.2680  -26.4270  -36.6060 C.3    85  THR85       0.0379
     57  N         12.6500  -23.1300  -38.0200 N.am   86  MET86      -0.1976
     58  CA        11.7950  -22.9600  -39.1540 C.3    86  MET86       0.1605
     59  C         12.4360  -22.1730  -40.2700 C.2    86  MET86       0.2287
     60  O         11.8680  -22.0700  -41.3390 O.2    86  MET86      -0.2864
     61  CB        10.4660  -22.3570  -38.7420 C.3    86  MET86       0.0413
     62  CG         9.7920  -23.1970  -37.6950 C.3    86  MET86       0.0598
     63  SD         9.4720  -24.9140  -38.1640 S.3    86  MET86      -0.1393
     64  CE         8.5220  -24.6790  -39.6400 C.3    86  MET86       0.0692
     65  N         17.8270  -27.1480  -31.6730 N.3   125  THR125     -0.1218
     66  CA        17.1830  -28.4330  -32.0810 C.3   125  THR125      0.1862
     67  C         18.1750  -29.2370  -32.9400 C.2   125  THR125      0.2287
     68  O         19.1190  -28.6530  -33.5460 O.2   125  THR125     -0.2866
     69  CB        15.9460  -28.2220  -32.9510 C.3   125  THR125      0.1770
     70  OG1       16.2860  -27.5830  -34.2090 O.3   125  THR125     -0.2211
     71  CG2       14.8270  -27.4020  -32.2130 C.3   125  THR125      0.0375
     72  N         18.5220  -27.6480  -36.3420 N.3   128  THR128     -0.1218
     73  CA        19.3890  -26.5090  -36.4050 C.3   128  THR128      0.1862
     74  C         20.8860  -26.9010  -36.2990 C.2   128  THR128      0.2287
     75  O         21.7760  -26.3000  -36.9610 O.2   128  THR128     -0.2866
     76  CB        19.0320  -25.4820  -35.3170 C.3   128  THR128      0.1770
     77  OG1       17.6950  -24.9660  -35.5410 O.3   128  THR128     -0.2211
     78  CG2       20.0070  -24.3550  -35.2910 C.3   128  THR128      0.0375
     79  N         14.2090  -29.1690  -25.2760 N.3   161  ILE161     -0.1231
     80  CA        13.4820  -28.1240  -25.9690 C.3   161  ILE161      0.1692
     81  C         11.9750  -28.4890  -26.1510 C.2   161  ILE161      0.2592
     82  O         11.1220  -27.6670  -25.8540 O.2   161  ILE161     -0.2718
     83  CB        14.1260  -27.8100  -27.3510 C.3   161  ILE161      0.0266
     84  CG1       15.4530  -27.0170  -27.1930 C.3   161  ILE161      0.0019
     85  CG2       13.1370  -27.0900  -28.1860 C.3   161  ILE161      0.0020
     86  CD1       16.4390  -27.1090  -28.3730 C.3   161  ILE161      0.0001
     87  N         11.6940  -29.6490  -26.7370 N.am  162  PHE162     -0.1976
     88  CA        10.3290  -30.0120  -27.1410 C.3   162  PHE162      0.1639
     89  C          9.4350  -30.4650  -25.9570 C.2   162  PHE162      0.2290
     90  O          8.2420  -30.0930  -25.8790 O.2   162  PHE162     -0.2864
     91  CB        10.3340  -31.0560  -28.3130 C.3   162  PHE162      0.0560
     92  CG        10.7450  -30.4690  -29.6370 C.ar  162  PHE162     -0.0200
     93  CD1        9.9000  -29.6040  -30.3200 C.ar  162  PHE162     -0.0042
     94  CD2       11.9860  -30.7440  -30.1840 C.ar  162  PHE162     -0.0042
     95  CE1       10.2910  -29.0470  -31.5410 C.ar  162  PHE162     -0.0003
     96  CE2       12.4070  -30.1740  -31.3770 C.ar  162  PHE162     -0.0003
     97  CZ        11.5600  -29.3280  -32.0740 C.ar  162  PHE162     -0.0000
     98  N          9.3960  -25.6440  -24.5320 N.3   166  CYS166     -0.1235
     99  CA         8.2700  -25.1560  -25.3470 C.3   166  CYS166      0.1677
    100  C          6.9310  -25.2340  -24.5750 C.2   166  CYS166      0.2270
    101  O          5.9140  -24.6420  -25.0040 O.2   166  CYS166     -0.2867
    102  CB         8.1950  -25.9460  -26.6540 C.3   166  CYS166      0.0956
    103  SG         9.3830  -25.4130  -27.8970 S.3   166  CYS166     -0.0801
    104  N         21.0890  -21.3910  -30.1740 N.3   196  GLY196     -0.1210
    105  CA        20.5100  -21.5280  -31.4980 C.3   196  GLY196      0.1956
    106  C         19.1160  -22.0820  -31.4650 C.2   196  GLY196      0.2613
    107  O         18.6250  -22.6010  -32.4640 O.2   196  GLY196     -0.2717
    108  N         18.4920  -22.0090  -30.3050 N.am  197  SER197     -0.1938
    109  CA        17.0120  -22.1470  -30.1830 C.3   197  SER197      0.2055
    110  C         16.6050  -20.9650  -29.3220 C.2   197  SER197      0.2644
    111  O         17.2330  -20.6450  -28.3170 O.2   197  SER197     -0.2714
    112  CB        16.6150  -23.4560  -29.5330 C.3   197  SER197      0.2130
    113  OG        15.3400  -23.3370  -28.8860 O.3   197  SER197     -0.2179
    114  N         15.5770  -20.2640  -29.7340 N.am  198  THR198     -0.1936
    115  CA        15.2590  -18.9970  -29.1310 C.3   198  THR198      0.2028
    116  C         14.6460  -19.1950  -27.7720 C.2   198  THR198      0.2642
    117  O         14.4250  -18.1960  -27.0800 O.2   198  THR198     -0.2714
    118  CB        14.2280  -18.2450  -29.9750 C.3   198  THR198      0.1808
    119  OG1       13.1190  -19.1110  -30.2480 O.3   198  THR198     -0.2208
    120  CG2       14.8500  -17.7810  -31.3030 C.3   198  THR198      0.0379
    121  N         14.3560  -20.4470  -27.3660 N.am  199  GLU199     -0.1976
    122  CA        14.0150  -20.7260  -25.9700 C.3   199  GLU199      0.1602
    123  C         15.1580  -21.1100  -25.0140 C.2   199  GLU199      0.2287
    124  O         14.9280  -21.1630  -23.8070 O.2   199  GLU199     -0.2864
    125  CB        12.8960  -21.7330  -25.7800 C.3   199  GLU199      0.0415
    126  CG        12.7040  -22.7960  -26.8150 C.3   199  GLU199      0.1163
    127  CD        11.9410  -22.2820  -28.0230 C.2   199  GLU199      0.3649
    128  OE1       10.7790  -21.7700  -27.9150 O.co2 199  GLU199     -0.2457
    129  OE2       12.5610  -22.3820  -29.0890 O.co2 199  GLU199     -0.2457
@<TRIPOS>BOND
     1    60    59    2
     2    59    58    1
     3    64    63    1
     4    58    61    1
     5    58    57    1
     6    53    52    2
     7    29    28    2
     8    61    62    1
     9    26    27    1
    10    27    28    1
    11    27    30    1
    12    63    62    1
    13    52    57   am
    14    52    51    1
    15    45    44    2
    16    31    30    1
    17    31    32    1
    18    75    74    2
    19    51    50    1
    20    51    54    1
    21    44    50   am
    22    44    43    1
    23    38    37    2
    24    56    54    1
    25     8     7    1
    26     7     6    1
    27    73    72    1
    28    73    74    1
    29    73    76    1
    30    34    32   am
    31    32    33    2
    32    54    55    1
    33    41    39    1
    34    43    42    1
    35    43    46    1
    36    77    76    1
    37    37    42   am
    38    37    36    1
    39    76    78    1
    40    40    39    1
    41    35    36    1
    42    39    36    1
    43    46    47    1
    44    48    47    2
    45     6     5    1
    46    70    69    1
    47    47    49   am
    48     5     2    1
    49    68    67    2
    50    18    17    2
    51    23    21   ar
    52    23    25   ar
    53    69    71    1
    54    69    66    1
    55    67    66    1
    56    21    20   ar
    57    17    16    1
    58    16    15    1
    59    16    19    1
    60   107   106    2
    61     2     1    1
    62     2     3    1
    63    66    65    1
    64    97    95   ar
    65    97    96   ar
    66    25    24   ar
    67     4     3    2
    68    20    19    1
    69    20    22   ar
    70    95    93   ar
    71   105   106    1
    72   105   104    1
    73   106   108   am
    74    96    94   ar
    75   120   118    1
    76    24    22   ar
    77    93    92   ar
    78   108   109    1
    79   119   118    1
    80    94    92   ar
    81   109   112    1
    82   109   110    1
    83   118   115    1
    84   114   110   am
    85   114   115    1
    86    92    91    1
    87   112   113    1
    88   110   111    2
    89   115   116    1
    90    14    13    1
    91   129   127   ar
    92    86    84    1
    93    91    88    1
    94    12    11    2
    95    85    83    1
    96   127   128   ar
    97   127   126    1
    98    11    10    1
    99    13    10    1
   100   103   102    1
   101   116   121   am
   102   116   117    2
   103   121   122    1
   104    83    84    1
   105    83    80    1
   106    88    87    1
   107    88    89    1
   108    10     9    1
   109   126   125    1
   110    87    81   am
   111   102    99    1
   112    81    80    1
   113    81    82    2
   114   122   125    1
   115   122   123    1
   116    80    79    1
   117    89    90    2
   118    99   100    1
   119    99    98    1
   120   123   124    2
   121   101   100    2
