@<TRIPOS>MOLECULE
tmp/5eloD01.pdb
 171 164 0 0 0
SMALL
GASTEIGER

@<TRIPOS>ATOM
      1  N         -8.6730  -15.3280  -42.9030 N.3   245  ASN245     -0.1240
      2  CA        -8.2310  -15.4190  -41.5180 C.3   245  ASN245      0.1653
      3  C         -9.1950  -16.2990  -40.7330 C.2   245  ASN245      0.2266
      4  O        -10.3900  -16.4060  -41.0650 O.2   245  ASN245     -0.2867
      5  CB        -8.1690  -14.0440  -40.8630 C.3   245  ASN245      0.1155
      6  CG        -7.0340  -13.1880  -41.4040 C.2   245  ASN245      0.2627
      7  OD1       -6.0300  -13.7030  -41.8950 O.2   245  ASN245     -0.2716
      8  ND2       -7.1870  -11.8740  -41.3020 N.am  245  ASN245     -0.0877
      9  N        -10.4620  -16.8110  -36.7880 N.3   247  ARG247     -0.1245
     10  CA       -10.4350  -16.2840  -35.4190 C.3   247  ARG247      0.1563
     11  C        -11.5130  -16.9820  -34.5970 C.2   247  ARG247      0.2260
     12  O        -12.6700  -17.0800  -35.0200 O.2   247  ARG247     -0.2867
     13  CB       -10.5750  -14.7560  -35.4300 C.3   247  ARG247      0.0307
     14  CG        -9.4360  -14.1150  -36.2670 C.3   247  ARG247      0.0489
     15  CD        -9.3610  -12.5870  -36.2280 C.3   247  ARG247      0.2205
     16  NE        -8.3040  -12.0810  -37.1090 N.pl3 247  ARG247     -0.0865
     17  CZ        -8.0400  -10.7920  -37.2820 C.cat 247  ARG247      0.5346
     18  NH1       -7.0580  -10.4140  -38.1120 N.pl3 247  ARG247      0.1354
     19  NH2       -8.7460   -9.8770  -36.6020 N.pl3 247  ARG247      0.1354
     20  N        -13.5810  -16.7850  -31.8590 N.3   249  GLU249     -0.1231
     21  CA       -14.2150  -15.8940  -30.8970 C.3   249  GLU249      0.1699
     22  C        -15.7150  -15.8730  -31.1440 C.2   249  GLU249      0.2592
     23  O        -16.3340  -16.9300  -31.3620 O.2   249  GLU249     -0.2718
     24  CB       -13.5980  -14.4840  -30.9570 C.3   249  GLU249      0.0402
     25  CG       -13.4500  -13.8830  -32.3700 C.3   249  GLU249      0.1161
     26  CD       -12.2730  -12.9130  -32.4800 C.2   249  GLU249      0.3649
     27  OE1      -11.5080  -12.7710  -31.5040 O.co2 249  GLU249     -0.2457
     28  OE2      -12.1010  -12.2940  -33.5390 O.co2 249  GLU249     -0.2457
     29  N        -16.3160  -14.6970  -31.0690 N.am  250  GLY250     -0.1957
     30  CA       -17.7670  -14.5960  -31.0740 C.3   250  GLY250      0.1869
     31  C        -18.2990  -14.3630  -32.4780 C.2   250  GLY250      0.2309
     32  O        -17.6470  -13.7450  -33.2980 O.2   250  GLY250     -0.2863
     33  N        -21.4910   -9.0730  -37.8520 N.3   254  THR254     -0.1203
     34  CA       -20.2970   -8.6230  -38.5780 C.3   254  THR254      0.1994
     35  C        -19.0830   -9.5190  -38.3660 C.2   254  THR254      0.2618
     36  O        -17.9570   -9.1090  -38.7160 O.2   254  THR254     -0.2717
     37  CB       -19.9280   -7.2030  -38.1750 C.3   254  THR254      0.1784
     38  OG1      -19.8120   -7.1310  -36.7380 O.3   254  THR254     -0.2211
     39  CG2      -20.9830   -6.2320  -38.6680 C.3   254  THR254      0.0376
     40  N        -19.2820  -10.7300  -37.8360 N.am  255  HIS255     -0.1961
     41  CA       -18.2010  -11.6180  -37.4430 C.3   255  HIS255      0.1787
     42  C        -18.5630  -13.0380  -37.8310 C.2   255  HIS255      0.2620
     43  O        -19.6060  -13.5510  -37.4130 O.2   255  HIS255     -0.2715
     44  CB       -17.9380  -11.5310  -35.9340 C.3   255  HIS255      0.0785
     45  CG       -17.3870  -10.2090  -35.5020 C.ar  255  HIS255      0.0821
     46  ND1      -18.1910   -9.1300  -35.2000 N.ar  255  HIS255     -0.2267
     47  CD2      -16.1110   -9.7880  -35.3330 C.ar  255  HIS255      0.1154
     48  CE1      -17.4340   -8.1060  -34.8530 C.ar  255  HIS255      0.1986
     49  NE2      -16.1670   -8.4760  -34.9290 N.ar  255  HIS255     -0.2212
     50  N        -17.6960  -13.6640  -38.6170 N.am  256  ASN256     -0.1959
     51  CA       -17.8320  -15.0560  -39.0180 C.3   256  ASN256      0.1804
     52  C        -16.4790  -15.7030  -38.7450 C.2   256  ASN256      0.2463
     53  O        -15.4510  -15.0450  -38.8970 O.2   256  ASN256     -0.2730
     54  CB       -18.2330  -15.1370  -40.5040 C.3   256  ASN256      0.1195
     55  CG       -18.5670  -16.5550  -40.9510 C.2   256  ASN256      0.2630
     56  OD1      -19.6460  -17.0520  -40.6810 O.2   256  ASN256     -0.2716
     57  ND2      -17.6560  -17.1820  -41.6830 N.am  256  ASN256     -0.0877
     58  N        -16.4410  -16.9360  -38.2560 N.am  257  PRO257     -0.2727
     59  CA       -15.1690  -17.4810  -37.7440 C.3   257  PRO257      0.1402
     60  C        -14.0540  -17.4990  -38.7510 C.2   257  PRO257      0.2269
     61  O        -12.8760  -17.4320  -38.3580 O.2   257  PRO257     -0.2865
     62  CB       -15.5560  -18.9060  -37.3170 C.3   257  PRO257      0.0296
     63  CG       -16.9550  -18.8290  -37.0460 C.3   257  PRO257      0.0237
     64  CD       -17.5720  -17.7820  -37.9000 C.3   257  PRO257      0.0939
     65  N        -13.0650  -15.3890  -42.3900 N.3   259  PHE259     -0.1241
     66  CA       -13.4730  -14.2330  -43.1720 C.3   259  PHE259      0.1605
     67  C        -12.3350  -13.9110  -44.1170 C.2   259  PHE259      0.2264
     68  O        -11.1830  -14.3100  -43.8920 O.2   259  PHE259     -0.2867
     69  CB       -13.8500  -13.0490  -42.2540 C.3   259  PHE259      0.0534
     70  CG       -12.7050  -12.5180  -41.4540 C.ar  259  PHE259     -0.0203
     71  CD1      -12.3360  -13.1370  -40.2820 C.ar  259  PHE259     -0.0042
     72  CD2      -12.0040  -11.3760  -41.8700 C.ar  259  PHE259     -0.0042
     73  CE1      -11.2900  -12.6470  -39.5260 C.ar  259  PHE259     -0.0003
     74  CE2      -10.9620  -10.8810  -41.1220 C.ar  259  PHE259     -0.0003
     75  CZ       -10.6100  -11.5310  -39.9300 C.ar  259  PHE259     -0.0000
     76  N         -9.7460  -11.5630  -45.9110 N.3   261  ALA261     -0.1231
     77  CA        -9.0250  -10.3400  -45.6600 C.3   261  ALA261      0.1694
     78  C         -8.0210  -10.1130  -46.7750 C.2   261  ALA261      0.2592
     79  O         -7.5540  -11.0500  -47.4210 O.2   261  ALA261     -0.2718
     80  CB        -8.3260  -10.3920  -44.2890 C.3   261  ALA261      0.0304
     81  N         -7.7200   -8.8520  -47.0280 N.am  262  MET262     -0.1965
     82  CA        -6.5840   -8.4950  -47.8520 C.3   262  MET262      0.1736
     83  C         -5.6070   -7.7080  -47.0050 C.2   262  MET262      0.2616
     84  O         -6.0140   -6.7960  -46.2780 O.2   262  MET262     -0.2715
     85  CB        -7.0190   -7.6970  -49.0570 C.3   262  MET262      0.0427
     86  CG        -5.8220   -7.1980  -49.8280 C.3   262  MET262      0.0599
     87  SD        -6.4080   -6.2210  -51.1970 S.3   262  MET262     -0.1393
     88  CE        -4.9030   -6.2060  -52.1450 C.3   262  MET262      0.0692
     89  N         -4.3240   -8.0620  -47.0860 N.am  263  GLU263     -0.1977
     90  CA        -3.2600   -7.2480  -46.5200 C.3   263  GLU263      0.1602
     91  C         -2.2860   -6.8830  -47.6350 C.2   263  GLU263      0.2287
     92  O         -2.0400   -7.6880  -48.5470 O.2   263  GLU263     -0.2864
     93  CB        -2.5020   -7.9610  -45.3660 C.3   263  GLU263      0.0415
     94  CG        -3.3200   -8.0960  -44.0400 C.3   263  GLU263      0.1163
     95  CD        -2.4340   -8.4430  -42.8460 C.2   263  GLU263      0.3649
     96  OE1       -1.2030   -8.1800  -42.9240 O.co2 263  GLU263     -0.2457
     97  OE2       -2.9510   -8.9800  -41.8380 O.co2 263  GLU263     -0.2457
     98  N        -15.4090   -1.5490  -38.1980 N.3   416  GLU416     -0.1231
     99  CA       -14.0270   -1.4710  -38.6800 C.3   416  GLU416      0.1699
    100  C        -13.9310   -2.0700  -40.0800 C.2   416  GLU416      0.2592
    101  O        -14.2960   -3.2340  -40.2800 O.2   416  GLU416     -0.2718
    102  CB       -13.1090   -2.2370  -37.7290 C.3   416  GLU416      0.0402
    103  CG       -11.6230   -1.9040  -37.8550 C.3   416  GLU416      0.1161
    104  CD       -10.7580   -2.9160  -37.1170 C.2   416  GLU416      0.3649
    105  OE1      -11.3270   -3.8580  -36.5080 O.co2 416  GLU416     -0.2457
    106  OE2       -9.5210   -2.7570  -37.1240 O.co2 416  GLU416     -0.2457
    107  N        -13.4410   -1.2830  -41.0450 N.am  417  LEU417     -0.1966
    108  CA       -13.1790   -1.7660  -42.3960 C.3   417  LEU417      0.1728
    109  C        -11.7040   -1.9760  -42.7040 C.2   417  LEU417      0.2616
    110  O        -11.3760   -2.9080  -43.4490 O.2   417  LEU417     -0.2715
    111  CB       -13.7380   -0.8020  -43.4390 C.3   417  LEU417      0.0311
    112  CG       -14.8580   -1.3380  -44.3130 C.3   417  LEU417      0.0022
    113  CD1      -15.0320   -0.4680  -45.5300 C.3   417  LEU417      0.0001
    114  CD2      -14.5670   -2.7900  -44.7200 C.3   417  LEU417      0.0001
    115  N        -10.8260   -1.1560  -42.1340 N.am  418  CYS418     -0.1954
    116  CA        -9.3880   -1.1690  -42.3970 C.3   418  CYS418      0.1843
    117  C         -8.6030   -0.9550  -41.1040 C.2   418  CYS418      0.2625
    118  O         -9.0910   -0.3130  -40.1650 O.2   418  CYS418     -0.2714
    119  CB        -8.9910   -0.0780  -43.3900 C.3   418  CYS418      0.0997
    120  SG        -9.6980   -0.3270  -45.0090 S.3   418  CYS418     -0.0797
    121  N         -7.3590   -1.4640  -41.0960 N.am  419  ASN419     -0.1972
    122  CA        -6.3910   -1.3390  -40.0090 C.3   419  ASN419      0.1688
    123  C         -5.0260   -1.3030  -40.6730 C.2   419  ASN419      0.2292
    124  O         -4.7050   -2.2250  -41.4360 O.2   419  ASN419     -0.2864
    125  CB        -6.4710   -2.5180  -39.0280 C.3   419  ASN419      0.1181
    126  CG        -5.5320   -2.3590  -37.8140 C.2   419  ASN419      0.2629
    127  OD1       -5.3960   -1.2650  -37.2800 O.2   419  ASN419     -0.2716
    128  ND2       -4.9120   -3.4640  -37.3650 N.am  419  ASN419     -0.0877
    129  N         -4.6640   -3.6740  -43.8300 N.3   470  GLY470     -0.1210
    130  CA        -5.5600   -4.8030  -43.9320 C.3   470  GLY470      0.1956
    131  C         -6.9710   -4.3030  -44.1650 C.2   470  GLY470      0.2612
    132  O         -7.3340   -3.2070  -43.7580 O.2   470  GLY470     -0.2717
    133  N         -7.7780   -5.1580  -44.7840 N.am  471  LEU471     -0.1965
    134  CA        -9.1330   -4.8230  -45.1670 C.3   471  LEU471      0.1728
    135  C        -10.0140   -6.0360  -44.9770 C.2   471  LEU471      0.2616
    136  O         -9.6530   -7.1410  -45.3850 O.2   471  LEU471     -0.2715
    137  CB        -9.2020   -4.3920  -46.6320 C.3   471  LEU471      0.0311
    138  CG       -10.6450   -4.2650  -47.1650 C.3   471  LEU471      0.0022
    139  CD1      -11.2140   -2.9310  -46.7620 C.3   471  LEU471      0.0001
    140  CD2      -10.6990   -4.4050  -48.6580 C.3   471  LEU471      0.0001
    141  N        -11.1850   -5.8120  -44.3960 N.am  472  GLY472     -0.1955
    142  CA       -12.1570   -6.8700  -44.2610 C.3   472  GLY472      0.1869
    143  C        -13.0820   -6.8040  -45.4540 C.2   472  GLY472      0.2309
    144  O        -13.9690   -5.9330  -45.5320 O.2   472  GLY472     -0.2863
    145  N        -15.3500   -8.9550  -46.5360 N.3   474  ASP474     -0.1225
    146  CA       -16.7550   -9.2870  -46.2900 C.3   474  ASP474      0.1805
    147  C        -17.5270   -8.0690  -45.8280 C.2   474  ASP474      0.2597
    148  O        -18.6900   -7.8780  -46.2150 O.2   474  ASP474     -0.2718
    149  CB       -16.8850  -10.3810  -45.2360 C.3   474  ASP474      0.1424
    150  CG       -16.0090  -11.5430  -45.5110 C.2   474  ASP474      0.3668
    151  OD1      -16.2700  -12.2690  -46.4870 O.co2 474  ASP474     -0.2456
    152  OD2      -15.0530  -11.7340  -44.7560 O.co2 474  ASP474     -0.2456
    153  N        -16.9160   -7.2530  -44.9660 N.am  475  ARG475     -0.1979
    154  CA       -17.6210   -6.0730  -44.4980 C.3   475  ARG475      0.1597
    155  C        -17.7490   -5.0610  -45.6190 C.2   475  ARG475      0.2287
    156  O        -18.8040   -4.4380  -45.7750 O.2   475  ARG475     -0.2864
    157  CB       -16.9210   -5.4990  -43.2690 C.3   475  ARG475      0.0334
    158  CG       -16.9500   -6.5000  -42.1190 C.3   475  ARG475      0.0492
    159  CD       -16.3560   -5.9120  -40.8800 C.3   475  ARG475      0.2205
    160  NE       -16.4630   -6.7780  -39.7050 N.pl3 475  ARG475     -0.0865
    161  CZ       -15.8690   -6.4780  -38.5620 C.cat 475  ARG475      0.5346
    162  NH1      -15.9720   -7.2780  -37.5100 N.pl3 475  ARG475      0.1354
    163  NH2      -15.1250   -5.3670  -38.4890 N.pl3 475  ARG475      0.1354
    164  N        -23.4150  -10.2860  -42.0720 N.3   486  ILE486     -0.1245
    165  CA       -22.3200  -10.8820  -42.8270 C.3   486  ILE486      0.1561
    166  C        -22.7210  -12.2270  -43.4270 C.2   486  ILE486      0.2260
    167  O        -22.1430  -12.6430  -44.4270 O.2   486  ILE486     -0.2867
    168  CB       -21.0680  -11.0010  -41.9300 C.3   486  ILE486      0.0252
    169  CG1      -19.8380  -11.3340  -42.7730 C.3   486  ILE486      0.0019
    170  CG2      -21.3240  -12.0280  -40.8010 C.3   486  ILE486      0.0019
    171  CD1      -18.5310  -11.1990  -42.0060 C.3   486  ILE486      0.0001
@<TRIPOS>BOND
     1    88    87    1
     2    87    86    1
     3    86    85    1
     4    85    82    1
     5   140   138    1
     6    92    91    2
     7    82    81    1
     8    82    83    1
     9    91    90    1
    10    79    78    2
    11   138   139    1
    12   138   137    1
    13    89    83   am
    14    89    90    1
    15    81    78   am
    16    83    84    2
    17    78    77    1
    18   137   134    1
    19   145   146    1
    20    90    93    1
    21   151   150   ar
    22   146   147    1
    23   146   149    1
    24   148   147    2
    25    76    77    1
    26   147   153   am
    27   156   155    2
    28    77    80    1
    29   155   154    1
    30   144   143    2
    31   113   112    1
    32   150   149    1
    33   150   152   ar
    34   143   142    1
    35   136   135    2
    36    93    94    1
    37   134   135    1
    38   134   133    1
    39   120   119    1
    40   135   141   am
    41   153   154    1
    42   133   131   am
    43   114   112    1
    44   154   157    1
    45   167   166    2
    46   141   142    1
    47   112   111    1
    48   131   130    1
    49   131   132    2
    50    67    68    2
    51    67    66    1
    52    94    95    1
    53   130   129    1
    54   110   109    2
    55   111   108    1
    56   166   165    1
    57   119   116    1
    58   157   158    1
    59    66    65    1
    60    66    69    1
    61    96    95   ar
    62     1     2    1
    63    95    97   ar
    64   165   164    1
    65   165   168    1
    66   169   171    1
    67   169   168    1
    68   109   108    1
    69   109   115   am
    70   116   115    1
    71   116   117    1
    72   108   107    1
    73    69    70    1
    74   158   159    1
    75   168   170    1
    76     7     6    2
    77    72    70   ar
    78    72    74   ar
    79    57    55   am
    80     2     5    1
    81     2     3    1
    82    70    71   ar
    83   124   123    2
    84     6     8   am
    85     6     5    1
    86    74    75   ar
    87   117   121   am
    88   117   118    2
    89   121   122    1
    90     4     3    2
    91   107   100   am
    92    55    56    2
    93    55    54    1
    94   159   160    1
    95   123   122    1
    96    54    51    1
    97    71    73   ar
    98   101   100    2
    99   100    99    1
   100   122   125    1
   101    75    73   ar
   102   160   161    2
   103   125   126    1
   104    51    52    1
   105    51    50    1
   106    53    52    2
   107    60    61    2
   108    60    59    1
   109    52    58   am
   110    36    35    2
   111    99    98    1
   112    99   102    1
   113    39    37    1
   114    50    42   am
   115    34    35    1
   116    34    37    1
   117    34    33    1
   118   161   163    1
   119   161   162    1
   120    35    40   am
   121    58    64    1
   122    58    59    1
   123    37    38    1
   124    18    17    1
   125    64    63    1
   126   103   102    1
   127   103   104    1
   128    40    41    1
   129    42    41    1
   130    42    43    2
   131   126   128   am
   132   126   127    2
   133    59    62    1
   134    41    44    1
   135    62    63    1
   136    17    16    2
   137    17    19    1
   138   106   104   ar
   139   104   105   ar
   140    16    15    1
   141     9    10    1
   142    14    15    1
   143    14    13    1
   144    44    45    1
   145    45    47   ar
   146    45    46   ar
   147    13    10    1
   148    10    11    1
   149    47    49   ar
   150    46    48   ar
   151    12    11    2
   152    49    48   ar
   153    28    26   ar
   154    32    31    2
   155    26    25    1
   156    26    27   ar
   157    31    30    1
   158    25    24    1
   159    20    21    1
   160    23    22    2
   161    22    29   am
   162    22    21    1
   163    30    29    1
   164    24    21    1
