@<TRIPOS>MOLECULE
tmp/5elqA01.pdb
 78 74 0 0 0
SMALL
GASTEIGER

@<TRIPOS>ATOM
      1  N         56.5570   25.8980   72.5450 N.3    23  GLU23      -0.1231
      2  CA        57.4050   24.8160   73.0160 C.3    23  GLU23       0.1699
      3  C         57.1320   24.5160   74.4720 C.2    23  GLU23       0.2592
      4  O         57.0220   25.4190   75.2960 O.2    23  GLU23      -0.2718
      5  CB        58.8720   25.1820   72.8300 C.3    23  GLU23       0.0402
      6  CG        59.8280   24.0290   73.1120 C.3    23  GLU23       0.1161
      7  CD        61.2830   24.4120   72.9260 C.2    23  GLU23       0.3649
      8  OE1       61.8450   25.0780   73.8210 O.co2  23  GLU23      -0.2457
      9  OE2       61.8650   24.0430   71.8840 O.co2  23  GLU23      -0.2457
     10  N         57.0410   23.2330   74.7830 N.am   24  GLY24      -0.1957
     11  CA        56.8680   22.7790   76.1470 C.3    24  GLY24       0.1869
     12  C         55.4390   22.5000   76.4850 C.2    24  GLY24       0.2309
     13  O         54.6660   22.0790   75.6290 O.2    24  GLY24      -0.2863
     14  N         63.4450   10.6860   66.7640 N.3    67  VAL67      -0.1231
     15  CA        63.6110   11.8470   67.6140 C.3    67  VAL67       0.1692
     16  C         62.3360   12.0800   68.4040 C.2    67  VAL67       0.2592
     17  O         61.2630   12.2590   67.8340 O.2    67  VAL67      -0.2718
     18  CB        63.9410   13.0860   66.7650 C.3    67  VAL67       0.0266
     19  CG1       64.0600   14.3260   67.6580 C.3    67  VAL67       0.0020
     20  CG2       65.2080   12.8560   65.9710 C.3    67  VAL67       0.0020
     21  N         62.4640   12.0900   69.7300 N.am   68  ASN68      -0.1960
     22  CA        61.3370   12.3580   70.6030 C.3    68  ASN68       0.1819
     23  C         60.8450   13.7850   70.3930 C.2    68  ASN68       0.2621
     24  O         61.6460   14.7230   70.3530 O.2    68  ASN68      -0.2715
     25  CB        61.7490   12.1310   72.0590 C.3    68  ASN68       0.1195
     26  CG        60.6140   12.3990   73.0340 C.2    68  ASN68       0.2630
     27  OD1       60.2490   13.5430   73.2680 O.2    68  ASN68      -0.2716
     28  ND2       60.0500   11.3390   73.6000 N.am   68  ASN68      -0.0877
     29  N         59.5330   13.9450   70.2230 N.am   69  VAL69      -0.1963
     30  CA        58.9340   15.2510   69.9510 C.3    69  VAL69       0.1727
     31  C         57.8850   15.6660   70.9840 C.2    69  VAL69       0.2616
     32  O         56.9610   16.4560   70.7160 O.2    69  VAL69      -0.2715
     33  CB        58.3960   15.3580   68.5040 C.3    69  VAL69       0.0290
     34  CG1       59.5570   15.4620   67.5280 C.3    69  VAL69       0.0023
     35  CG2       57.4850   14.1960   68.1440 C.3    69  VAL69       0.0023
     36  N         58.0440   15.1640   72.2130 N.am   70  GLU70      -0.1963
     37  CA        57.2330   15.6610   73.3300 C.3    70  GLU70       0.1733
     38  C         57.5260   17.1360   73.5480 C.2    70  GLU70       0.2617
     39  O         58.6880   17.5320   73.6540 O.2    70  GLU70      -0.2715
     40  CB        57.5410   14.8970   74.6190 C.3    70  GLU70       0.0429
     41  CG        57.1310   13.4560   74.5730 C.3    70  GLU70       0.1163
     42  CD        57.4640   12.7280   75.8470 C.2    70  GLU70       0.3649
     43  OE1       57.0390   13.2170   76.9240 O.co2  70  GLU70      -0.2457
     44  OE2       58.1280   11.6760   75.7490 O.co2  70  GLU70      -0.2457
     45  N         56.4800   17.9470   73.6410 N.am   71  GLY71      -0.1940
     46  CA        56.6320   19.3650   73.8660 C.3    71  GLY71       0.2014
     47  C         57.1520   20.1340   72.6720 C.2    71  GLY71       0.2638
     48  O         57.4270   21.3280   72.7770 O.2    71  GLY71      -0.2714
     49  N         57.2870   19.4770   71.5240 N.am   72  ALA72      -0.1977
     50  CA        57.8750   20.1300   70.3660 C.3    72  ALA72       0.1597
     51  C         56.9200   21.1430   69.7730 C.2    72  ALA72       0.2287
     52  O         55.7080   21.0160   69.8830 O.2    72  ALA72      -0.2864
     53  CB        58.2570   19.1040   69.3230 C.3    72  ALA72       0.0319
     54  N         58.9840   22.3050   64.5680 N.3    76  GLN76      -0.1245
     55  CA        59.9850   21.2700   64.7850 C.3    76  GLN76       0.1566
     56  C         59.5080   19.9390   64.2390 C.2    76  GLN76       0.2260
     57  O         60.2790   19.1960   63.6350 O.2    76  GLN76      -0.2867
     58  CB        60.3050   21.1180   66.2650 C.3    76  GLN76       0.0367
     59  CG        61.2130   22.1950   66.7810 C.3    76  GLN76       0.0905
     60  CD        61.3380   22.1750   68.2880 C.2    76  GLN76       0.2608
     61  OE1       60.4010   21.8960   69.0090 O.2    76  GLN76      -0.2717
     62  NE2       62.5280   22.5080   68.7740 N.am   76  GLN76      -0.0878
     63  N         59.3450   20.0220   60.3650 N.3    79  ASP79      -0.1225
     64  CA        60.7030   19.9430   59.8320 C.3    79  ASP79       0.1805
     65  C         61.2670   18.5240   59.9470 C.2    79  ASP79       0.2597
     66  O         61.9260   18.0520   59.0260 O.2    79  ASP79      -0.2718
     67  CB        61.6300   20.9330   60.5290 C.3    79  ASP79       0.1424
     68  CG        61.3770   22.3920   60.1360 C.2    79  ASP79       0.3668
     69  OD1       60.6720   22.6430   59.1400 O.co2  79  ASP79      -0.2456
     70  OD2       61.9200   23.2760   60.8410 O.co2  79  ASP79      -0.2456
     71  N         61.0320   17.8350   61.0570 N.am   80  LEU80      -0.1979
     72  CA        61.5030   16.4690   61.1780 C.3    80  LEU80       0.1596
     73  C         60.7940   15.5550   60.1960 C.2    80  LEU80       0.2287
     74  O         61.4260   14.6650   59.6180 O.2    80  LEU80      -0.2864
     75  CB        61.3410   15.9670   62.6100 C.3    80  LEU80       0.0297
     76  CG        62.4320   16.4670   63.5620 C.3    80  LEU80       0.0022
     77  CD1       61.9690   16.3240   65.0110 C.3    80  LEU80       0.0001
     78  CD2       63.7350   15.7390   63.3540 C.3    80  LEU80       0.0001
@<TRIPOS>BOND
     1    66    65    2
     2    69    68   ar
     3    74    73    2
     4    64    65    1
     5    64    63    1
     6    64    67    1
     7    65    71   am
     8    68    67    1
     9    68    70   ar
    10    73    72    1
    11    71    72    1
    12    72    75    1
    13    75    76    1
    14    78    76    1
    15    76    77    1
    16    57    56    2
    17    56    55    1
    18    54    55    1
    19    55    58    1
    20    20    18    1
    21    58    59    1
    22    14    15    1
    23    18    15    1
    24    18    19    1
    25    59    60    1
    26    34    33    1
    27    15    16    1
    28    17    16    2
    29    35    33    1
    30    60    62   am
    31    60    61    2
    32    16    21   am
    33    33    30    1
    34    53    50    1
    35    21    22    1
    36    51    52    2
    37    51    50    1
    38    30    29    1
    39    30    31    1
    40    29    23   am
    41    24    23    2
    42    50    49    1
    43    23    22    1
    44    22    25    1
    45    32    31    2
    46    31    36   am
    47    49    47   am
    48     9     7   ar
    49    25    26    1
    50    36    37    1
    51     1     2    1
    52    47    48    2
    53    47    46    1
    54     5     2    1
    55     5     6    1
    56     7     6    1
    57     7     8   ar
    58     2     3    1
    59    26    27    2
    60    26    28   am
    61    37    38    1
    62    37    40    1
    63    38    45   am
    64    38    39    2
    65    45    46    1
    66     3    10   am
    67     3     4    2
    68    41    40    1
    69    41    42    1
    70    10    11    1
    71    13    12    2
    72    44    42   ar
    73    42    43   ar
    74    11    12    1
