@<TRIPOS>MOLECULE
tmp/5eltA00.pdb
 165 158 0 0 0
SMALL
GASTEIGER

@<TRIPOS>ATOM
      1  N         74.0720   25.1050   43.7060 N.3    67  ASN67      -0.1240
      2  CA        73.6950   25.9750   42.5850 C.3    67  ASN67       0.1653
      3  C         74.3490   25.4660   41.3090 C.2    67  ASN67       0.2266
      4  O         75.4340   25.9070   40.9060 O.2    67  ASN67      -0.2867
      5  CB        74.0640   27.4250   42.8830 C.3    67  ASN67       0.1155
      6  CG        73.6900   28.3670   41.7500 C.2    67  ASN67       0.2627
      7  OD1       72.9650   27.9940   40.8230 O.2    67  ASN67      -0.2716
      8  ND2       74.1450   29.6130   41.8510 N.am   67  ASN67      -0.0877
      9  N         73.0220   25.5800   38.0530 N.3    69  VAL69      -0.1231
     10  CA        72.8430   26.4840   36.9210 C.3    69  VAL69       0.1692
     11  C         73.9220   27.5520   36.9440 C.2    69  VAL69       0.2593
     12  O         74.5080   27.8870   35.9050 O.2    69  VAL69      -0.2718
     13  CB        71.4290   27.1100   36.9450 C.3    69  VAL69       0.0266
     14  CG1       71.2540   28.0250   35.7380 C.3    69  VAL69       0.0020
     15  CG2       70.3120   26.0380   36.9750 C.3    69  VAL69       0.0020
     16  N         74.1780   28.1190   38.1350 N.am   70  GLY70      -0.1942
     17  CA        75.2550   29.0920   38.2920 C.3    70  GLY70       0.2014
     18  C         76.6400   28.5140   38.0240 C.2    70  GLY70       0.2638
     19  O         77.4860   29.1730   37.4240 O.2    70  GLY70      -0.2714
     20  N         76.9100   27.2860   38.4730 N.am   71  LYS71      -0.1977
     21  CA        78.2250   26.7240   38.1660 C.3    71  LYS71       0.1596
     22  C         78.3790   26.4250   36.6780 C.2    71  LYS71       0.2287
     23  O         79.4800   26.5730   36.1190 O.2    71  LYS71      -0.2864
     24  CB        78.4740   25.4470   38.9550 C.3    71  LYS71       0.0298
     25  CG        79.9000   24.9140   38.7670 C.3    71  LYS71       0.0038
     26  CD        80.1340   23.7220   39.6820 C.3    71  LYS71       0.0206
     27  CE        81.5460   23.1470   39.6020 C.3    71  LYS71       0.1093
     28  NZ        81.5330   21.7720   40.2390 N.3    71  LYS71      -0.1314
     29  N         77.0490   28.0410   34.1310 N.3    73  LEU73      -0.1231
     30  CA        77.1550   29.2040   33.2490 C.3    73  LEU73       0.1693
     31  C         78.4150   30.0320   33.5100 C.2    73  LEU73       0.2593
     32  O         79.1280   30.4000   32.5540 O.2    73  LEU73      -0.2718
     33  CB        75.9050   30.0770   33.4050 C.3    73  LEU73       0.0284
     34  CG        74.6110   29.4710   32.8400 C.3    73  LEU73       0.0019
     35  CD1       73.3780   30.1750   33.4070 C.3    73  LEU73       0.0001
     36  CD2       74.5730   29.4990   31.2900 C.3    73  LEU73       0.0001
     37  N         78.7030   30.3190   34.7990 N.am   74  GLY74      -0.1943
     38  CA        79.7610   31.2400   35.2130 C.3    74  GLY74       0.1998
     39  C         79.4540   32.6950   34.8940 C.2    74  GLY74       0.2481
     40  O         78.3730   33.0190   34.3890 O.2    74  GLY74      -0.2729
     41  N         80.4130   33.5920   35.1170 N.am   75  PRO75      -0.2715
     42  CA        80.1700   35.0070   34.7840 C.3    75  PRO75       0.1536
     43  C         79.8730   35.2230   33.2950 C.2    75  PRO75       0.2598
     44  O         80.5320   34.6670   32.4090 O.2    75  PRO75      -0.2715
     45  CB        81.4590   35.7130   35.2440 C.3    75  PRO75       0.0310
     46  CG        82.1970   34.7010   36.1230 C.3    75  PRO75       0.0237
     47  CD        81.7800   33.3450   35.6020 C.3    75  PRO75       0.0939
     48  N         78.8250   36.0140   33.0290 N.am   76  ARG76      -0.1964
     49  CA        78.3550   36.3380   31.6700 C.3    76  ARG76       0.1729
     50  C         78.1930   35.0980   30.7990 C.2    76  ARG76       0.2616
     51  O         78.1380   35.1830   29.5430 O.2    76  ARG76      -0.2715
     52  CB        79.2740   37.3530   30.9950 C.3    76  ARG76       0.0348
     53  CG        79.6050   38.5330   31.8680 C.3    76  ARG76       0.0492
     54  CD        80.9090   39.2120   31.4480 C.3    76  ARG76       0.2205
     55  NE        82.0680   38.3730   31.7810 N.pl3  76  ARG76      -0.0865
     56  CZ        82.8440   38.5390   32.8640 C.cat  76  ARG76       0.5346
     57  NH1       82.6000   39.5150   33.7340 N.pl3  76  ARG76       0.1354
     58  NH2       83.8600   37.7110   33.0760 N.pl3  76  ARG76       0.1354
     59  N         78.1040   33.9380   31.4490 N.am   77  GLY77      -0.1955
     60  CA        77.9130   32.6940   30.7270 C.3    77  GLY77       0.1869
     61  C         79.1760   32.1220   30.1330 C.2    77  GLY77       0.2309
     62  O         79.0970   31.1870   29.3450 O.2    77  GLY77      -0.2863
     63  N         80.0290   28.0580   30.3590 N.3    80  LEU80      -0.1231
     64  CA        79.3200   27.1660   29.4560 C.3    80  LEU80       0.1693
     65  C         79.7850   27.3790   28.0080 C.2    80  LEU80       0.2591
     66  O         79.8970   26.4140   27.2480 O.2    80  LEU80      -0.2718
     67  CB        77.7920   27.3350   29.6180 C.3    80  LEU80       0.0284
     68  CG        76.9320   26.2940   28.8410 C.3    80  LEU80       0.0019
     69  CD1       77.0560   24.8830   29.4060 C.3    80  LEU80       0.0001
     70  CD2       75.4620   26.6500   28.6970 C.3    80  LEU80       0.0001
     71  N         80.1160   28.6120   27.6290 N.am   81  LYS81      -0.1980
     72  CA        80.6650   28.8560   26.3000 C.3    81  LYS81       0.1596
     73  C         81.9720   28.0980   26.0800 C.2    81  LYS81       0.2287
     74  O         82.1620   27.4770   25.0250 O.2    81  LYS81      -0.2864
     75  CB        80.8890   30.3470   26.0760 C.3    81  LYS81       0.0298
     76  CG        79.6480   31.1950   26.1390 C.3    81  LYS81       0.0038
     77  CD        79.9760   32.6660   25.7870 C.3    81  LYS81       0.0206
     78  CE        79.2630   33.6450   26.7600 C.3    81  LYS81       0.1093
     79  NZ        77.7890   33.8200   26.4590 N.3    81  LYS81      -0.1314
     80  N         80.9510   24.2640   25.4910 N.3    84  GLN84      -0.1245
     81  CA        80.4360   24.0200   24.1460 C.3    84  GLN84       0.1566
     82  C         81.5600   24.0760   23.1200 C.2    84  GLN84       0.2260
     83  O         81.7100   23.1650   22.3030 O.2    84  GLN84      -0.2867
     84  CB        79.3550   25.0410   23.7950 C.3    84  GLN84       0.0367
     85  CG        78.1040   24.8880   24.6190 C.3    84  GLN84       0.0905
     86  CD        77.1860   26.0780   24.4310 C.2    84  GLN84       0.2608
     87  OE1       76.2090   26.0080   23.6860 O.2    84  GLN84      -0.2717
     88  NE2       77.5120   27.1890   25.0890 N.am   84  GLN84      -0.0878
     89  N         76.2350   22.1610   21.1170 N.3    90  LYS90      -0.1231
     90  CA        75.3470   23.1610   21.7040 C.3    90  LYS90       0.1693
     91  C         74.7140   22.6110   22.9780 C.2    90  LYS90       0.2592
     92  O         74.3460   21.4370   23.0340 O.2    90  LYS90      -0.2718
     93  CB        74.2570   23.5840   20.7270 C.3    90  LYS90       0.0285
     94  CG        73.8500   25.0530   20.8930 C.3    90  LYS90       0.0035
     95  CD        72.6670   25.4390   20.0130 C.3    90  LYS90       0.0206
     96  CE        71.4560   24.5780   20.3230 C.3    90  LYS90       0.1093
     97  NZ        70.7160   25.1430   21.4890 N.3    90  LYS90      -0.1314
     98  N         74.5740   23.4570   23.9910 N.am   91  MET91      -0.1965
     99  CA        74.0920   23.0350   25.3100 C.3    91  MET91       0.1736
    100  C         73.0970   24.0470   25.8330 C.2    91  MET91       0.2617
    101  O         73.4040   25.2360   25.8950 O.2    91  MET91      -0.2715
    102  CB        75.2180   22.9140   26.3210 C.3    91  MET91       0.0427
    103  CG        76.1120   21.7260   26.0450 C.3    91  MET91       0.0599
    104  SD        77.4230   21.6330   27.2800 S.3    91  MET91      -0.1393
    105  CE        78.0570   19.9820   26.9260 C.3    91  MET91       0.0692
    106  N         71.9180   23.5810   26.2240 N.am   92  SER92      -0.1936
    107  CA        70.8320   24.4700   26.6150 C.3    92  SER92       0.2055
    108  C         70.3370   24.0420   27.9830 C.2    92  SER92       0.2643
    109  O         69.9730   22.8800   28.1540 O.2    92  SER92      -0.2714
    110  CB        69.6830   24.4160   25.6030 C.3    92  SER92       0.2130
    111  OG        70.0610   24.9670   24.3560 O.3    92  SER92      -0.2179
    112  N         70.3270   24.9620   28.9460 N.am   93  ILE93      -0.1963
    113  CA        69.7760   24.6760   30.2670 C.3    93  ILE93       0.1727
    114  C         68.2820   24.9420   30.2380 C.2    93  ILE93       0.2616
    115  O         67.8450   26.0540   29.9240 O.2    93  ILE93      -0.2715
    116  CB        70.4610   25.5080   31.3400 C.3    93  ILE93       0.0290
    117  CG1       71.9570   25.3560   31.1250 C.3    93  ILE93       0.0022
    118  CG2       70.0790   24.9730   32.7610 C.3    93  ILE93       0.0023
    119  CD1       72.7720   26.1210   32.1180 C.3    93  ILE93       0.0001
    120  N         67.5050   23.9110   30.5560 N.am   94  LEU94      -0.1977
    121  CA        66.0620   23.9020   30.3760 C.3    94  LEU94       0.1596
    122  C         65.4590   23.1420   31.5500 C.2    94  LEU94       0.2287
    123  O         66.1810   22.6480   32.4230 O.2    94  LEU94      -0.2864
    124  CB        65.6880   23.2720   29.0240 C.3    94  LEU94       0.0297
    125  CG        66.5080   23.6220   27.7530 C.3    94  LEU94       0.0022
    126  CD1       66.2490   22.6290   26.6390 C.3    94  LEU94       0.0001
    127  CD2       66.2170   25.0070   27.2290 C.3    94  LEU94       0.0001
    128  N         63.5700   25.6640   37.1300 N.3    97  GLY97      -0.1210
    129  CA        64.8050   26.1170   37.7070 C.3    97  GLY97       0.1956
    130  C         65.7220   26.7450   36.7020 C.2    97  GLY97       0.2613
    131  O         66.7390   27.3110   37.1070 O.2    97  GLY97      -0.2717
    132  N         65.3750   26.7090   35.4090 N.am   98  SER98      -0.1938
    133  CA        66.2940   27.1700   34.3660 C.3    98  SER98       0.2055
    134  C         66.4500   28.6800   34.3310 C.2    98  SER98       0.2643
    135  O         67.5340   29.1740   34.0090 O.2    98  SER98      -0.2714
    136  CB        65.8310   26.7340   32.9800 C.3    98  SER98       0.2130
    137  OG        65.2660   25.5000   33.0090 O.3    98  SER98      -0.2179
    138  N         65.3870   29.4240   34.5970 N.am   99  MET99      -0.1962
    139  CA        65.4250   30.8700   34.4690 C.3    99  MET99       0.1736
    140  C         65.7810   31.5130   35.8000 C.2    99  MET99       0.2616
    141  O         65.6000   30.9280   36.8740 O.2    99  MET99      -0.2715
    142  CB        64.0890   31.4040   33.9540 C.3    99  MET99       0.0427
    143  CG        63.7790   30.9200   32.5500 C.3    99  MET99       0.0599
    144  SD        62.1560   31.3840   31.9150 S.3    99  MET99      -0.1393
    145  CE        62.2910   30.7100   30.2550 C.3    99  MET99       0.0692
    146  N         66.3050   32.7380   35.7110 N.am  100  ARG100     -0.1977
    147  CA        66.8510   33.3820   36.8980 C.3   100  ARG100      0.1597
    148  C         65.7610   33.6960   37.9090 C.2   100  ARG100      0.2287
    149  O         65.9440   33.4720   39.1110 O.2   100  ARG100     -0.2864
    150  CB        67.5990   34.6510   36.5140 C.3   100  ARG100      0.0334
    151  CG        68.0220   35.4630   37.7170 C.3   100  ARG100      0.0492
    152  CD        69.1660   34.8000   38.4850 C.3   100  ARG100      0.2205
    153  NE        70.4640   35.1110   37.8870 N.pl3 100  ARG100     -0.0865
    154  CZ        71.0910   36.2780   38.0260 C.cat 100  ARG100      0.5346
    155  NH1       70.5410   37.2610   38.7410 N.pl3 100  ARG100      0.1354
    156  NH2       72.2670   36.4720   37.4480 N.pl3 100  ARG100      0.1354
    157  N         62.1050   33.0810   39.5180 N.3   102  LYS102     -0.1245
    158  CA        61.1230   32.0020   39.6200 C.3   102  LYS102      0.1561
    159  C         59.6910   32.4990   39.4290 C.2   102  LYS102      0.2260
    160  O         58.8290   31.7340   38.9750 O.2   102  LYS102     -0.2867
    161  CB        61.2590   31.2860   40.9720 C.3   102  LYS102      0.0271
    162  CG        62.6690   30.7870   41.2850 C.3   102  LYS102      0.0035
    163  CD        63.1350   29.7460   40.2510 C.3   102  LYS102      0.0206
    164  CE        64.6210   29.4410   40.3690 C.3   102  LYS102      0.1093
    165  NZ        65.3030   29.4710   39.0520 N.3   102  LYS102     -0.1314
@<TRIPOS>BOND
     1    95    96    1
     2    95    94    1
     3    96    97    1
     4    93    94    1
     5    93    90    1
     6    89    90    1
     7    90    91    1
     8    83    82    2
     9    91    92    2
    10    91    98   am
    11    82    81    1
    12    87    86    2
    13    84    81    1
    14    84    85    1
    15    98    99    1
    16    81    80    1
    17   111   110    1
    18    86    85    1
    19    86    88   am
    20    74    73    2
    21    99   100    1
    22    99   102    1
    23   110   107    1
    24    77    76    1
    25    77    78    1
    26   100   101    2
    27   100   106   am
    28   103   102    1
    29   103   104    1
    30    75    76    1
    31    75    72    1
    32    73    72    1
    33   106   107    1
    34    72    71    1
    35    79    78    1
    36   107   108    1
    37   126   125    1
    38   105   104    1
    39   127   125    1
    40    66    65    2
    41    71    65   am
    42   125   124    1
    43   108   109    2
    44   108   112   am
    45    65    64    1
    46    70    68    1
    47    68    69    1
    48    68    67    1
    49   112   113    1
    50   124   121    1
    51    62    61    2
    52    64    67    1
    53    64    63    1
    54    51    50    2
    55   115   114    2
    56    61    60    1
    57   114   113    1
    58   114   120   am
    59   145   144    1
    60   113   116    1
    61   121   120    1
    62   121   122    1
    63    60    59    1
    64    50    59   am
    65    50    49    1
    66    52    49    1
    67    52    53    1
    68   117   116    1
    69   117   119    1
    70    36    34    1
    71   116   118    1
    72    54    55    1
    73    54    53    1
    74   122   123    2
    75    49    48    1
    76    55    56    2
    77   144   143    1
    78    44    43    2
    79   143   142    1
    80    32    31    2
    81    34    33    1
    82    34    35    1
    83    56    58    1
    84    56    57    1
    85   136   137    1
    86   136   133    1
    87    48    43   am
    88    30    33    1
    89    30    31    1
    90    30    29    1
    91    43    42    1
    92    31    37   am
    93   142   139    1
    94   135   134    2
    95   134   133    1
    96   134   138   am
    97   133   132    1
    98    40    39    2
    99   139   138    1
   100   139   140    1
   101    42    41    1
   102    42    45    1
   103    37    38    1
   104    39    41   am
   105    39    38    1
   106    41    47    1
   107    45    46    1
   108   132   130   am
   109    47    46    1
   110   146   140   am
   111   146   147    1
   112    14    13    1
   113   140   141    2
   114    12    11    2
   115    23    22    2
   116   150   147    1
   117   150   151    1
   118    22    21    1
   119   130   131    2
   120   130   129    1
   121   147   148    1
   122    10    11    1
   123    10    13    1
   124    10     9    1
   125    11    16   am
   126    13    15    1
   127   128   129    1
   128    19    18    2
   129   156   154    1
   130   151   152    1
   131   153   154    2
   132   153   152    1
   133   148   149    2
   134    18    17    1
   135    18    20   am
   136   154   155    1
   137    16    17    1
   138    21    20    1
   139    21    24    1
   140    25    24    1
   141    25    26    1
   142   160   159    2
   143   165   164    1
   144   159   158    1
   145   157   158    1
   146    27    26    1
   147    27    28    1
   148   158   161    1
   149   163   164    1
   150   163   162    1
   151     7     6    2
   152     4     3    2
   153   161   162    1
   154     3     2    1
   155     6     8   am
   156     6     5    1
   157     2     5    1
   158     2     1    1
