@<TRIPOS>MOLECULE
tmp/5elzA01.pdb
 112 104 0 0 0
SMALL
GASTEIGER

@<TRIPOS>ATOM
      1  N         17.0480   26.8480    3.4090 N.3     5  ASP5       -0.1239
      2  CA        16.8880   25.4590    3.7850 C.3     5  ASP5        0.1674
      3  C         18.2710   24.9430    4.1710 C.2     5  ASP5        0.2266
      4  O         19.1100   24.6590    3.3140 O.2     5  ASP5       -0.2867
      5  CB        16.2870   24.6710    2.6160 C.3     5  ASP5        0.1410
      6  CG        16.0730   23.2160    2.9310 C.2     5  ASP5        0.3668
      7  OD1       16.5090   22.7450    3.9960 O.co2   5  ASP5       -0.2456
      8  OD2       15.4610   22.5310    2.0860 O.co2   5  ASP5       -0.2456
      9  N         20.1670   22.2090    5.3050 N.3     7  GLY7       -0.1210
     10  CA        20.0660   20.7670    5.4070 C.3     7  GLY7        0.1956
     11  C         21.2960   20.1160    5.9960 C.2     7  GLY7        0.2612
     12  O         22.2090   20.7920    6.4640 O.2     7  GLY7       -0.2717
     13  N         21.3060   18.7890    5.9710 N.am    8  GLY8       -0.1956
     14  CA        22.4270   18.0040    6.4930 C.3     8  GLY8        0.1869
     15  C         23.7560   18.2000    5.7680 C.2     8  GLY8        0.2309
     16  O         24.8140   18.0690    6.3720 O.2     8  GLY8       -0.2863
     17  N         20.6900   25.7490    1.1790 N.3    12  LYS12      -0.1245
     18  CA        20.0850   26.2830   -0.0300 C.3    12  LYS12       0.1561
     19  C         19.4850   27.6170    0.2880 C.2    12  LYS12       0.2260
     20  O         18.6630   27.7290    1.2300 O.2    12  LYS12      -0.2867
     21  CB        18.9890   25.3510   -0.5680 C.3    12  LYS12       0.0271
     22  CG        19.5090   24.1620   -1.3590 C.3    12  LYS12       0.0035
     23  CD        20.1600   23.0880   -0.4930 C.3    12  LYS12       0.0206
     24  CE        19.1680   22.4790    0.4930 C.3    12  LYS12       0.1093
     25  NZ        19.7230   21.3210    1.2430 N.3    12  LYS12      -0.1314
     26  N         17.2500   21.0180    9.0630 N.3    51  GLY51      -0.1225
     27  CA        17.8240   20.6290   10.3610 C.3    51  GLY51       0.1811
     28  C         18.7220   21.6350   11.0290 C.2    51  GLY51       0.2280
     29  O         18.7660   21.7020   12.2540 O.2    51  GLY51      -0.2866
     30  N         10.4120   21.2420    7.4800 N.3    69  GLU69      -0.1231
     31  CA        10.8990   21.0210    6.1300 C.3    69  GLU69       0.1699
     32  C          9.9670   20.2360    5.2400 C.2    69  GLU69       0.2592
     33  O          9.9980   20.4260    4.0420 O.2    69  GLU69      -0.2718
     34  CB        12.3210   20.4110    6.1020 C.3    69  GLU69       0.0402
     35  CG        12.4250   18.9590    6.5470 C.3    69  GLU69       0.1161
     36  CD        13.8160   18.4110    6.3840 C.2    69  GLU69       0.3649
     37  OE1       14.1460   17.9380    5.2810 O.co2  69  GLU69      -0.2457
     38  OE2       14.5880   18.4420    7.3580 O.co2  69  GLU69      -0.2457
     39  N          9.1460   19.3480    5.8040 N.am   70  PHE70      -0.1976
     40  CA         8.2860   18.4980    4.9460 C.3    70  PHE70       0.1639
     41  C          7.2150   19.3410    4.2850 C.2    70  PHE70       0.2290
     42  O          6.9700   19.2010    3.0900 O.2    70  PHE70      -0.2864
     43  CB         7.6600   17.3340    5.7200 C.3    70  PHE70       0.0560
     44  CG         8.6770   16.4130    6.3820 C.ar   70  PHE70      -0.0200
     45  CD1        9.9320   16.1980    5.8200 C.ar   70  PHE70      -0.0042
     46  CD2        8.3560   15.7380    7.5580 C.ar   70  PHE70      -0.0042
     47  CE1       10.8480   15.3500    6.4350 C.ar   70  PHE70      -0.0003
     48  CE2        9.2740   14.8860    8.1610 C.ar   70  PHE70      -0.0003
     49  CZ        10.5110   14.7050    7.6110 C.ar   70  PHE70      -0.0000
     50  N         12.4380   13.0900   -1.7950 N.3    95  ASN95      -0.1240
     51  CA        13.4140   14.1040   -1.5130 C.3    95  ASN95       0.1653
     52  C         14.7220   13.3890   -1.2360 C.2    95  ASN95       0.2266
     53  O         14.9340   12.8860   -0.1310 O.2    95  ASN95      -0.2867
     54  CB        12.9440   14.9200   -0.2980 C.3    95  ASN95       0.1155
     55  CG        13.7660   16.1540   -0.0560 C.2    95  ASN95       0.2627
     56  OD1       14.8210   16.3600   -0.6740 O.2    95  ASN95      -0.2716
     57  ND2       13.2910   16.9950    0.8630 N.am   95  ASN95      -0.0877
     58  N         17.9560   13.8190   -0.4330 N.3    97  GLY97      -0.1210
     59  CA        18.9330   14.6990    0.1880 C.3    97  GLY97       0.1956
     60  C         20.1010   13.9070    0.7420 C.2    97  GLY97       0.2613
     61  O         20.5320   12.9280    0.1460 O.2    97  GLY97      -0.2717
     62  N         20.6030   14.3260    1.9000 N.am   98  THR98      -0.1938
     63  CA        21.6540   13.5920    2.5750 C.3    98  THR98       0.2028
     64  C         21.1180   12.1880    2.7970 C.2    98  THR98       0.2643
     65  O         21.8230   11.2190    2.6070 O.2    98  THR98      -0.2714
     66  CB        22.0490   14.2590    3.9130 C.3    98  THR98       0.1808
     67  OG1       22.4910   15.6050    3.6710 O.3    98  THR98      -0.2208
     68  CG2       23.1690   13.4710    4.5950 C.3    98  THR98       0.0379
     69  N         19.8430   12.1230    3.2010 N.am   99  GLY99      -0.1939
     70  CA        19.0640   10.8920    3.2240 C.3    99  GLY99       0.2014
     71  C         17.7800   11.1090    2.4200 C.2    99  GLY99       0.2640
     72  O         17.5060   12.2210    1.9540 O.2    99  GLY99      -0.2714
     73  N         16.9760   10.0630    2.2880 N.am  100  THR100     -0.1936
     74  CA        15.8100   10.1230    1.4370 C.3   100  THR100      0.2028
     75  C         14.5000   10.0370    2.1940 C.2   100  THR100      0.2642
     76  O         14.2430    9.0540    2.9000 O.2   100  THR100     -0.2714
     77  CB        15.8530    8.9970    0.3970 C.3   100  THR100      0.1808
     78  OG1       17.0450    9.1500   -0.4170 O.3   100  THR100     -0.2208
     79  CG2       14.5940    9.0510   -0.4740 C.3   100  THR100      0.0379
     80  N         13.6480   11.0410    1.9820 N.am  101  SER101     -0.1949
     81  CA        12.3170   11.1340    2.6140 C.3   101  SER101      0.1924
     82  C         11.2510   11.0470    1.5120 C.2   101  SER101      0.2314
     83  O         11.3690   11.7310    0.4690 O.2   101  SER101     -0.2863
     84  CB        12.2040   12.4640    3.3940 C.3   101  SER101      0.2116
     85  OG        11.0400   12.5320    4.2290 O.3   101  SER101     -0.2180
     86  N          4.2530   12.2010    5.0590 N.3   112  ARG112     -0.1245
     87  CA         5.4210   11.3520    4.8860 C.3   112  ARG112      0.1563
     88  C          4.9580    9.9070    4.9820 C.2   112  ARG112      0.2260
     89  O          4.2710    9.5250    5.9540 O.2   112  ARG112     -0.2867
     90  CB         6.4630   11.6580    5.9560 C.3   112  ARG112      0.0307
     91  CG         7.8220   11.0650    5.7040 C.3   112  ARG112      0.0489
     92  CD         8.7920   11.5670    6.7480 C.3   112  ARG112      0.2205
     93  NE        10.1700   11.1660    6.4910 N.pl3 112  ARG112     -0.0865
     94  CZ        10.7150   10.0200    6.8860 C.cat 112  ARG112      0.5346
     95  NH1       10.0020    9.1210    7.5690 N.pl3 112  ARG112      0.1354
     96  NH2       11.9820    9.7680    6.5910 N.pl3 112  ARG112      0.1354
     97  N         10.8510    6.5560    4.4360 N.3   115  GLY115     -0.1210
     98  CA        12.1570    7.1130    4.2630 C.3   115  GLY115      0.1956
     99  C         13.1910    6.0180    4.2470 C.2   115  GLY115      0.2612
    100  O         12.9010    4.8840    4.6310 O.2   115  GLY115     -0.2717
    101  N         14.3970    6.3560    3.8080 N.am  116  ILE116     -0.1965
    102  CA        15.5220    5.4050    3.7950 C.3   116  ILE116      0.1727
    103  C         16.8530    6.1670    3.8190 C.2   116  ILE116      0.2616
    104  O         16.9450    7.2760    3.3140 O.2   116  ILE116     -0.2715
    105  CB        15.3820    4.4230    2.6010 C.3   116  ILE116      0.0290
    106  CG1       16.3780    3.2550    2.7050 C.3   116  ILE116      0.0022
    107  CG2       15.4360    5.1500    1.2720 C.3   116  ILE116      0.0023
    108  CD1       16.1550    2.3700    3.9100 C.3   116  ILE116      0.0001
    109  N         17.8750    5.5720    4.4210 N.am  117  GLY117     -0.1955
    110  CA        19.1710    6.2370    4.5520 C.3   117  GLY117      0.1869
    111  C         20.0660    6.1320    3.3270 C.2   117  GLY117      0.2309
    112  O         21.2560    6.4820    3.3810 O.2   117  GLY117     -0.2863
@<TRIPOS>BOND
     1    50    51    1
     2    51    52    1
     3    51    54    1
     4    22    21    1
     5    22    23    1
     6    52    53    2
     7    56    55    2
     8    21    18    1
     9    23    24    1
    10    79    77    1
    11    58    59    1
    12    78    77    1
    13    54    55    1
    14    55    57   am
    15    18    19    1
    16    18    17    1
    17    61    60    2
    18    59    60    1
    19    19    20    2
    20    77    74    1
    21    83    82    2
    22    24    25    1
    23    60    62   am
    24   107   105    1
    25    74    75    1
    26    74    73    1
    27    82    81    1
    28    62    63    1
    29    72    71    2
    30    80    75   am
    31    80    81    1
    32     8     6   ar
    33    75    76    2
    34    73    71   am
    35    71    70    1
    36    63    64    1
    37    63    66    1
    38   105   106    1
    39   105   102    1
    40    65    64    2
    41    81    84    1
    42     5     6    1
    43     5     2    1
    44   106   108    1
    45    64    69   am
    46     6     7   ar
    47    42    41    2
    48    69    70    1
    49   104   103    2
    50     4     3    2
    51   111   112    2
    52   111   110    1
    53    84    85    1
    54     1     2    1
    55    67    66    1
    56     2     3    1
    57   102   101    1
    58   102   103    1
    59   101    99   am
    60   103   109   am
    61    66    68    1
    62    33    32    2
    63    99    98    1
    64    99   100    2
    65    98    97    1
    66    41    40    1
    67   109   110    1
    68    87    88    1
    69    87    86    1
    70    87    90    1
    71    40    43    1
    72    40    39    1
    73    88    89    2
    74    32    39   am
    75    32    31    1
    76    37    36   ar
    77     9    10    1
    78    10    11    1
    79    91    90    1
    80    91    92    1
    81    43    44    1
    82    15    16    2
    83    15    14    1
    84    45    44   ar
    85    45    47   ar
    86    13    11   am
    87    13    14    1
    88    11    12    2
    89    34    31    1
    90    34    35    1
    91    31    30    1
    92    44    46   ar
    93    36    35    1
    94    36    38   ar
    95    47    49   ar
    96    93    92    1
    97    93    94    2
    98    96    94    1
    99    94    95    1
   100    46    48   ar
   101    49    48   ar
   102    26    27    1
   103    27    28    1
   104    28    29    2
