@<TRIPOS>MOLECULE
tmp/5em3A00.pdb
 98 95 0 0 0
SMALL
GASTEIGER

@<TRIPOS>ATOM
      1  N         18.6480    6.8250   -4.9950 N.3    28  ILE28      -0.1231
      2  CA        17.8370    5.6170   -5.1120 C.3    28  ILE28       0.1692
      3  C         18.6920    4.3660   -5.2450 C.2    28  ILE28       0.2592
      4  O         18.2050    3.2630   -4.9700 O.2    28  ILE28      -0.2718
      5  CB        16.7440    5.7130   -6.1930 C.3    28  ILE28       0.0266
      6  CG1       17.3540    5.7260   -7.5870 C.3    28  ILE28       0.0019
      7  CG2       15.8710    6.9510   -5.9710 C.3    28  ILE28       0.0020
      8  CD1       16.3160    5.5550   -8.6800 C.3    28  ILE28       0.0001
      9  N         19.9630    4.5070   -5.6400 N.am   29  PHE29      -0.1976
     10  CA        20.8790    3.3800   -5.7850 C.3    29  PHE29       0.1639
     11  C         21.8860    3.3030   -4.6480 C.2    29  PHE29       0.2290
     12  O         22.8390    2.5230   -4.7300 O.2    29  PHE29      -0.2864
     13  CB        21.5950    3.4700   -7.1300 C.3    29  PHE29       0.0560
     14  CG        20.6600    3.6170   -8.3030 C.ar   29  PHE29      -0.0200
     15  CD1       19.7690    2.6130   -8.6340 C.ar   29  PHE29      -0.0042
     16  CD2       20.6790    4.7760   -9.0680 C.ar   29  PHE29      -0.0042
     17  CE1       18.9110    2.7690   -9.7190 C.ar   29  PHE29      -0.0003
     18  CE2       19.8280    4.9390  -10.1390 C.ar   29  PHE29      -0.0003
     19  CZ        18.9440    3.9360  -10.4670 C.ar   29  PHE29      -0.0000
     20  N         21.6500    2.1450   -1.5780 N.3    31  GLU31      -0.1245
     21  CA        21.5610    0.9560   -0.7450 C.3    31  GLU31       0.1567
     22  C         20.8030   -0.1070   -1.5270 C.2    31  GLU31       0.2260
     23  O         20.1480    0.2060   -2.5270 O.2    31  GLU31      -0.2867
     24  CB        20.8320    1.2920    0.5660 C.3    31  GLU31       0.0388
     25  CG        21.5780    2.3210    1.4130 C.3    31  GLU31       0.1160
     26  CD        20.8490    2.7050    2.6890 C.2    31  GLU31       0.3649
     27  OE1       19.6700    2.3320    2.8440 O.co2  31  GLU31      -0.2457
     28  OE2       21.4660    3.3830    3.5380 O.co2  31  GLU31      -0.2457
     29  N         18.1370   -2.4810   -3.1360 N.3    33  VAL33      -0.1231
     30  CA        16.6870   -2.4620   -3.3180 C.3    33  VAL33       0.1678
     31  C         16.0650   -3.1720   -2.1200 C.2    33  VAL33       0.2434
     32  O         16.4940   -4.2830   -1.7630 O.2    33  VAL33      -0.2733
     33  CB        16.2810   -3.1200   -4.6490 C.3    33  VAL33       0.0265
     34  CG1       14.7720   -3.2950   -4.7260 C.3    33  VAL33       0.0020
     35  CG2       16.7830   -2.2860   -5.8410 C.3    33  VAL33       0.0020
     36  N         15.1030   -2.5600   -1.4380 N.am   34  PRO34      -0.2729
     37  CA        14.5480   -3.1800   -0.2280 C.3    34  PRO34       0.1401
     38  C         13.6530   -4.3700   -0.5400 C.2    34  PRO34       0.2269
     39  O         12.4850   -4.2040   -0.9100 O.2    34  PRO34      -0.2865
     40  CB        13.7640   -2.0360    0.4290 C.3    34  PRO34       0.0296
     41  CG        13.3940   -1.1330   -0.7160 C.3    34  PRO34       0.0237
     42  CD        14.5340   -1.2230   -1.6960 C.3    34  PRO34       0.0939
     43  N          9.6760   -5.3480   -2.0800 N.3    38  VAL38      -0.1245
     44  CA         9.6140   -5.8040   -3.4660 C.3    38  VAL38       0.1561
     45  C          9.8300   -7.3140   -3.5000 C.2    38  VAL38       0.2260
     46  O         10.8560   -7.7800   -4.0170 O.2    38  VAL38      -0.2867
     47  CB        10.6620   -5.0720   -4.3240 C.3    38  VAL38       0.0252
     48  CG1       10.2940   -5.1480   -5.7740 C.3    38  VAL38       0.0019
     49  CG2       10.8140   -3.6150   -3.8950 C.3    38  VAL38       0.0019
     50  N         11.2060   -9.0270   -6.6460 N.3    41  TYR41      -0.1241
     51  CA        12.4020   -8.4830   -7.2860 C.3    41  TYR41       0.1605
     52  C         13.3360   -9.5940   -7.7450 C.2    41  TYR41       0.2264
     53  O         13.8420   -9.5700   -8.8740 O.2    41  TYR41      -0.2867
     54  CB        13.1220   -7.5450   -6.3150 C.3    41  TYR41       0.0534
     55  CG        14.2050   -6.7140   -6.9700 C.ar   41  TYR41      -0.0201
     56  CD1       13.8780   -5.6980   -7.8650 C.ar   41  TYR41      -0.0009
     57  CD2       15.5490   -6.9330   -6.6960 C.ar   41  TYR41      -0.0009
     58  CE1       14.8600   -4.9250   -8.4700 C.ar   41  TYR41       0.0417
     59  CE2       16.5390   -6.1650   -7.3000 C.ar   41  TYR41       0.0417
     60  CZ        16.1870   -5.1670   -8.1870 C.ar   41  TYR41       0.1957
     61  OH        17.1640   -4.4100   -8.7910 O.3    41  TYR41      -0.2866
     62  N         17.7230   -1.9220  -12.8890 N.3    80  CYS80      -0.1235
     63  CA        16.6870   -0.9110  -12.7300 C.3    80  CYS80       0.1677
     64  C         15.8770   -0.7300  -14.0110 C.2    80  CYS80       0.2270
     65  O         14.6430   -0.6150  -13.9600 O.2    80  CYS80      -0.2867
     66  CB        17.3350    0.3990  -12.2800 C.3    80  CYS80       0.0956
     67  SG        16.1680    1.7120  -11.8580 S.3    80  CYS80      -0.0801
     68  N         13.6160   -3.9900  -14.1800 N.3    83  TYR83      -0.1227
     69  CA        12.5190   -4.1830  -13.2420 C.3    83  TYR83       0.1736
     70  C         11.4060   -3.1570  -13.4260 C.2    83  TYR83       0.2595
     71  O         10.2270   -3.4980  -13.3090 O.2    83  TYR83      -0.2718
     72  CB        13.0150   -4.1680  -11.7950 C.3    83  TYR83       0.0548
     73  CG        11.8910   -4.4850  -10.8430 C.ar   83  TYR83      -0.0200
     74  CD1       11.5220   -5.7960  -10.5900 C.ar   83  TYR83      -0.0009
     75  CD2       11.1530   -3.4730  -10.2500 C.ar   83  TYR83      -0.0009
     76  CE1       10.4710   -6.0910   -9.7430 C.ar   83  TYR83       0.0417
     77  CE2       10.1070   -3.7560   -9.4000 C.ar   83  TYR83       0.0417
     78  CZ         9.7680   -5.0670   -9.1530 C.ar   83  TYR83       0.1957
     79  OH         8.7110   -5.3590   -8.3120 O.3    83  TYR83      -0.2866
     80  N         11.7570   -1.9000  -13.6910 N.am   84  ASN84      -0.1974
     81  CA        10.8120   -0.7930  -13.6410 C.3    84  ASN84       0.1688
     82  C         10.2650   -0.4720  -15.0190 C.2    84  ASN84       0.2292
     83  O         10.9740   -0.5810  -16.0240 O.2    84  ASN84      -0.2864
     84  CB        11.4920    0.4420  -13.0560 C.3    84  ASN84       0.1181
     85  CG        11.9340    0.2170  -11.6310 C.2    84  ASN84       0.2629
     86  OD1       11.1030    0.1490  -10.7260 O.2    84  ASN84      -0.2716
     87  ND2       13.2380    0.0440  -11.4230 N.am   84  ASN84      -0.0877
     88  N         11.9860    5.8880  -11.7060 N.3    90  PHE90      -0.1241
     89  CA        13.0830    4.9580  -11.4500 C.3    90  PHE90       0.1605
     90  C         13.7450    4.5200  -12.7540 C.2    90  PHE90       0.2264
     91  O         14.9770    4.5030  -12.8620 O.2    90  PHE90      -0.2867
     92  CB        12.5830    3.7350  -10.6720 C.3    90  PHE90       0.0534
     93  CG        12.4540    3.9550   -9.1870 C.ar   90  PHE90      -0.0203
     94  CD1       12.6610    5.2050   -8.6240 C.ar   90  PHE90      -0.0042
     95  CD2       12.1320    2.8970   -8.3510 C.ar   90  PHE90      -0.0042
     96  CE1       12.5390    5.3920   -7.2570 C.ar   90  PHE90      -0.0003
     97  CE2       12.0090    3.0860   -6.9790 C.ar   90  PHE90      -0.0003
     98  CZ        12.2180    4.3300   -6.4400 C.ar   90  PHE90      -0.0000
@<TRIPOS>BOND
     1    83    82    2
     2    82    81    1
     3    68    69    1
     4    64    65    2
     5    64    63    1
     6    80    81    1
     7    80    70   am
     8    81    84    1
     9    70    71    2
    10    70    69    1
    11    69    72    1
    12    84    85    1
    13    62    63    1
    14    91    90    2
    15    90    89    1
    16    63    66    1
    17    66    67    1
    18    72    73    1
    19    88    89    1
    20    85    87   am
    21    85    86    2
    22    89    92    1
    23    73    74   ar
    24    73    75   ar
    25    92    93    1
    26    74    76   ar
    27    19    18   ar
    28    19    17   ar
    29    75    77   ar
    30    18    16   ar
    31    76    78   ar
    32    17    15   ar
    33    77    78   ar
    34    93    94   ar
    35    93    95   ar
    36    78    79    1
    37    16    14   ar
    38    53    52    2
    39    61    60    1
    40     8     6    1
    41    15    14   ar
    42    94    96   ar
    43    58    60   ar
    44    58    56   ar
    45    95    97   ar
    46    14    13    1
    47    60    59   ar
    48    56    55   ar
    49    52    51    1
    50     6     5    1
    51    59    57   ar
    52    51    50    1
    53    51    54    1
    54    96    98   ar
    55    13    10    1
    56    97    98   ar
    57    55    57   ar
    58    55    54    1
    59     5     7    1
    60     5     2    1
    61    35    33    1
    62    10     9    1
    63    10    11    1
    64    48    47    1
    65     9     3   am
    66     3     2    1
    67     3     4    2
    68     2     1    1
    69    12    11    2
    70    34    33    1
    71    33    30    1
    72    47    49    1
    73    47    44    1
    74    46    45    2
    75    45    44    1
    76    44    43    1
    77    30    29    1
    78    30    31    1
    79    23    22    2
    80    31    32    2
    81    31    36   am
    82    42    36    1
    83    42    41    1
    84    20    21    1
    85    22    21    1
    86    36    37    1
    87    39    38    2
    88    21    24    1
    89    41    40    1
    90    38    37    1
    91    37    40    1
    92    24    25    1
    93    25    26    1
    94    26    27   ar
    95    26    28   ar
