@<TRIPOS>MOLECULE
tmp/5em5A00.pdb
 185 173 0 0 0
SMALL
GASTEIGER

@<TRIPOS>ATOM
      1  N        -48.5430   11.2740  -19.3950 N.3    20  LYS20      -0.1245
      2  CA       -47.6020   10.3200  -18.7920 C.3    20  LYS20       0.1561
      3  C        -47.4670    9.0340  -19.6160 C.2    20  LYS20       0.2260
      4  O        -48.2890    8.7910  -20.4930 O.2    20  LYS20      -0.2867
      5  CB       -47.9910   10.0060  -17.3260 C.3    20  LYS20       0.0271
      6  CG       -49.3140    9.2530  -17.1380 C.3    20  LYS20       0.0035
      7  CD       -49.6530    8.9970  -15.6590 C.3    20  LYS20       0.0206
      8  CE       -48.8750    7.8680  -15.0070 C.3    20  LYS20       0.1093
      9  NZ       -49.2540    6.5320  -15.5420 N.3    20  LYS20      -0.1314
     10  N        -47.9680    5.1810  -20.0500 N.3    22  LEU22      -0.1231
     11  CA       -48.8090    4.0950  -19.5290 C.3    22  LEU22       0.1693
     12  C        -48.0470    2.7730  -19.5250 C.2    22  LEU22       0.2592
     13  O        -48.2340    1.9570  -18.6210 O.2    22  LEU22      -0.2718
     14  CB       -50.1070    3.9330  -20.3400 C.3    22  LEU22       0.0284
     15  CG       -51.1990    4.9810  -20.1550 C.3    22  LEU22       0.0019
     16  CD1      -52.2250    4.8780  -21.2610 C.3    22  LEU22       0.0001
     17  CD2      -51.8760    4.8580  -18.7960 C.3    22  LEU22       0.0001
     18  N        -47.2190    2.5710  -20.5480 N.am   23  GLY23      -0.1957
     19  CA       -46.4150    1.3690  -20.7160 C.3    23  GLY23       0.1869
     20  C        -45.4230    1.4940  -21.8460 C.2    23  GLY23       0.2309
     21  O        -45.7440    2.0460  -22.9000 O.2    23  GLY23      -0.2863
     22  N        -42.0420   -2.6660  -28.6990 N.3    27  PHE27      -0.1241
     23  CA       -42.5790   -1.8510  -29.7950 C.3    27  PHE27       0.1605
     24  C        -42.1780   -0.3740  -29.7080 C.2    27  PHE27       0.2264
     25  O        -41.7770    0.2170  -30.7140 O.2    27  PHE27      -0.2867
     26  CB       -44.1130   -2.0030  -29.9090 C.3    27  PHE27       0.0534
     27  CG       -44.9140   -1.6740  -28.6650 C.ar   27  PHE27      -0.0203
     28  CD1      -45.3510   -0.3770  -28.4200 C.ar   27  PHE27      -0.0042
     29  CD2      -45.2820   -2.6730  -27.7710 C.ar   27  PHE27      -0.0042
     30  CE1      -46.0810   -0.0720  -27.2680 C.ar   27  PHE27      -0.0003
     31  CE2      -46.0210   -2.3690  -26.6200 C.ar   27  PHE27      -0.0003
     32  CZ       -46.4240   -1.0710  -26.3820 C.ar   27  PHE27      -0.0000
     33  N        -46.4600    3.7860  -24.9910 N.3    30  VAL30      -0.1245
     34  CA       -47.8770    4.1620  -24.9500 C.3    30  VAL30       0.1561
     35  C        -48.0330    5.2530  -23.8910 C.2    30  VAL30       0.2260
     36  O        -47.5320    5.1000  -22.7750 O.2    30  VAL30      -0.2867
     37  CB       -48.8000    2.9430  -24.6710 C.3    30  VAL30       0.0252
     38  CG1      -50.2670    3.3590  -24.5490 C.3    30  VAL30       0.0019
     39  CG2      -48.6330    1.8770  -25.7460 C.3    30  VAL30       0.0019
     40  N        -55.1810    7.3930  -25.5780 N.3    47  ALA47      -0.1245
     41  CA       -53.9600    6.6050  -25.4790 C.3    47  ALA47       0.1562
     42  C        -53.2090    6.8390  -26.7920 C.2    47  ALA47       0.2260
     43  O        -53.7910    6.6750  -27.8700 O.2    47  ALA47      -0.2867
     44  CB       -54.2820    5.1360  -25.3100 C.3    47  ALA47       0.0290
     45  N        -49.8110    5.9200  -29.1110 N.3    49  LYS49      -0.1245
     46  CA       -48.7380    4.9600  -29.3930 C.3    49  LYS49       0.1561
     47  C        -47.7760    5.5780  -30.4080 C.2    49  LYS49       0.2260
     48  O        -48.2130    6.0070  -31.4750 O.2    49  LYS49      -0.2867
     49  CB       -49.3420    3.6620  -29.9520 C.3    49  LYS49       0.0271
     50  CG       -48.3860    2.4870  -30.1050 C.3    49  LYS49       0.0035
     51  CD       -49.1380    1.2830  -30.6580 C.3    49  LYS49       0.0206
     52  CE       -48.2250    0.2040  -31.1720 C.3    49  LYS49       0.1093
     53  NZ       -48.9980   -0.9420  -31.7140 N.3    49  LYS49      -0.1314
     54  N        -52.2270   -1.5980  -39.2490 N.3    62  GLU62      -0.1196
     55  CA       -52.9020   -1.6600  -37.9560 C.3    62  GLU62       0.1783
     56  C        -54.0030   -0.5970  -37.9420 C.2    62  GLU62       0.2306
     57  O        -55.1490   -0.9260  -37.6420 O.2    62  GLU62      -0.2863
     58  CB       -51.8830   -1.4180  -36.8220 C.2    62  GLU62       0.0071
     59  CG       -52.4220   -1.5930  -35.4080 C.2    62  GLU62       0.0834
     60  CD       -51.4270   -1.3600  -34.2830 C.2    62  GLU62       0.3877
     61  OE1      -50.2150   -1.6040  -34.4880 O.co2  62  GLU62      -0.2406
     62  OE2      -51.8680   -0.9650  -33.1790 O.co2  62  GLU62      -0.2406
     63  N        -58.2180   -0.9440  -37.4820 N.3    66  MET66      -0.1245
     64  CA       -58.8120   -0.2360  -36.3500 C.3    66  MET66       0.1570
     65  C        -59.8250    0.8380  -36.7680 C.2    66  MET66       0.2261
     66  O        -60.8020    1.0540  -36.0530 O.2    66  MET66      -0.2867
     67  CB       -57.7210    0.3690  -35.4700 C.3    66  MET66       0.0387
     68  CG       -57.0490   -0.6260  -34.5700 C.3    66  MET66       0.0595
     69  SD       -55.6560    0.1510  -33.7190 S.3    66  MET66      -0.1393
     70  CE       -55.1780   -1.1910  -32.5860 C.3    66  MET66       0.0692
     71  N        -62.3070   -1.9960  -29.6700 N.3    75  CYS75      -0.1235
     72  CA       -61.4720   -0.7870  -29.6130 C.3    75  CYS75       0.1677
     73  C        -61.3050   -0.1970  -31.0070 C.2    75  CYS75       0.2270
     74  O        -60.8870   -0.8930  -31.9360 O.2    75  CYS75      -0.2867
     75  CB       -60.1210   -1.0690  -28.9640 C.3    75  CYS75       0.0956
     76  SG       -60.1990   -1.3430  -27.1780 S.3    75  CYS75      -0.0801
     77  N        -50.4560    6.5870  -33.3600 N.3    88  LEU88      -0.1245
     78  CA       -51.8570    6.1460  -33.3270 C.3    88  LEU88       0.1561
     79  C        -52.5410    6.7560  -32.1100 C.2    88  LEU88       0.2260
     80  O        -51.9890    6.7300  -31.0070 O.2    88  LEU88      -0.2867
     81  CB       -52.0060    4.6100  -33.2610 C.3    88  LEU88       0.0270
     82  CG       -51.3400    3.7390  -34.3260 C.3    88  LEU88       0.0019
     83  CD1      -51.4470    2.2870  -33.9450 C.3    88  LEU88       0.0001
     84  CD2      -51.9750    3.9270  -35.6880 C.3    88  LEU88       0.0001
     85  N        -55.9440    6.5400  -29.8560 N.3    90  MET90      -0.1230
     86  CA       -57.0690    5.6870  -29.4970 C.3    90  MET90       0.1702
     87  C        -57.7230    6.1620  -28.2230 C.2    90  MET90       0.2592
     88  O        -57.1500    6.9760  -27.5090 O.2    90  MET90      -0.2718
     89  CB       -56.5960    4.2410  -29.3400 C.3    90  MET90       0.0401
     90  CG       -56.4050    3.5450  -30.6570 C.3    90  MET90       0.0596
     91  SD       -55.7390    1.8900  -30.4510 S.3    90  MET90      -0.1393
     92  CE       -57.1510    1.0340  -29.7490 C.3    90  MET90       0.0692
     93  N        -58.9270    5.6520  -27.9400 N.am   91  GLN91      -0.1966
     94  CA       -59.6960    5.9590  -26.7390 C.3    91  GLN91       0.1733
     95  C        -58.9280    5.4450  -25.5220 C.2    91  GLN91       0.2616
     96  O        -58.2980    4.3860  -25.6020 O.2    91  GLN91      -0.2715
     97  CB       -61.0650    5.2660  -26.8270 C.3    91  GLN91       0.0408
     98  CG       -61.9970    5.5390  -25.6530 C.3    91  GLN91       0.0908
     99  CD       -63.2120    4.6530  -25.6310 C.2    91  GLN91       0.2608
    100  OE1      -63.3270    3.6600  -26.3620 O.2    91  GLN91      -0.2717
    101  NE2      -64.1380    4.9760  -24.7580 N.am   91  GLN91      -0.0878
    102  N        -58.9630    6.2000  -24.4080 N.am   92  LEU92      -0.1963
    103  CA       -58.3150    5.7650  -23.1780 C.3    92  LEU92       0.1728
    104  C        -59.2010    4.7240  -22.5070 C.2    92  LEU92       0.2616
    105  O        -60.4190    4.9030  -22.4000 O.2    92  LEU92      -0.2715
    106  CB       -58.0290    6.9480  -22.2280 C.3    92  LEU92       0.0311
    107  CG       -57.2080    6.6610  -20.9470 C.3    92  LEU92       0.0022
    108  CD1      -55.7810    6.2350  -21.2720 C.3    92  LEU92       0.0001
    109  CD2      -57.1580    7.8740  -20.0490 C.3    92  LEU92       0.0001
    110  N        -58.5770    3.6160  -22.1050 N.am   93  MET93      -0.1964
    111  CA       -59.1770    2.4980  -21.3780 C.3    93  MET93       0.1722
    112  C        -58.3980    2.5820  -20.0700 C.2    93  MET93       0.2458
    113  O        -57.2980    2.0410  -19.9910 O.2    93  MET93      -0.2730
    114  CB       -58.9330    1.1840  -22.1450 C.3    93  MET93       0.0427
    115  CG       -59.4500    1.2170  -23.5900 C.3    93  MET93       0.0599
    116  SD       -61.2540    1.3560  -23.7450 S.3    93  MET93      -0.1393
    117  CE       -61.7190   -0.3220  -23.4350 C.3    93  MET93       0.0692
    118  N        -58.8710    3.4150  -19.1040 N.am   94  PRO94      -0.2716
    119  CA       -58.0490    3.7270  -17.9140 C.3    94  PRO94       0.1536
    120  C        -57.5840    2.5810  -17.0220 C.2    94  PRO94       0.2599
    121  O        -56.5630    2.7390  -16.3460 O.2    94  PRO94      -0.2715
    122  CB       -58.9350    4.6840  -17.1100 C.3    94  PRO94       0.0310
    123  CG       -59.8760    5.2610  -18.0860 C.3    94  PRO94       0.0237
    124  CD       -60.1270    4.1950  -19.1000 C.3    94  PRO94       0.0939
    125  N        -58.3180    1.4620  -16.9840 N.am   95  PHE95      -0.1960
    126  CA       -57.9880    0.3610  -16.0780 C.3    95  PHE95       0.1771
    127  C        -57.0380   -0.6910  -16.6930 C.2    95  PHE95       0.2620
    128  O        -56.6400   -1.6340  -16.0010 O.2    95  PHE95      -0.2715
    129  CB       -59.2710   -0.2610  -15.5100 C.3    95  PHE95       0.0574
    130  CG       -60.1590    0.7370  -14.7910 C.ar   95  PHE95      -0.0200
    131  CD1      -61.1150    1.4740  -15.4880 C.ar   95  PHE95      -0.0042
    132  CD2      -60.0380    0.9410  -13.4200 C.ar   95  PHE95      -0.0042
    133  CE1      -61.9210    2.4090  -14.8280 C.ar   95  PHE95      -0.0003
    134  CE2      -60.8530    1.8680  -12.7600 C.ar   95  PHE95      -0.0003
    135  CZ       -61.7880    2.5950  -13.4670 C.ar   95  PHE95      -0.0000
    136  N        -56.6180   -0.4640  -17.9430 N.am   96  GLY96      -0.1940
    137  CA       -55.6790   -1.3240  -18.6580 C.3    96  GLY96       0.2014
    138  C        -56.2850   -2.6060  -19.1830 C.2    96  GLY96       0.2639
    139  O        -57.4920   -2.6590  -19.4220 O.2    96  GLY96      -0.2714
    140  N        -55.4520   -3.6480  -19.3790 N.am   97  CYS97      -0.1967
    141  CA       -55.9160   -4.9450  -19.8790 C.3    97  CYS97       0.1712
    142  C        -56.5900   -5.7590  -18.7880 C.2    97  CYS97       0.2296
    143  O        -56.2330   -5.6360  -17.6120 O.2    97  CYS97      -0.2864
    144  CB       -54.7990   -5.7290  -20.5660 C.3    97  CYS97       0.0983
    145  SG       -53.5310   -6.3720  -19.4400 S.3    97  CYS97      -0.0798
    146  N        -54.4070   -8.3280  -16.3970 N.3   100  ASP100     -0.1239
    147  CA       -53.8050   -7.6790  -15.2350 C.3   100  ASP100      0.1674
    148  C        -54.8620   -7.2280  -14.2440 C.2   100  ASP100      0.2266
    149  O        -54.6050   -7.2590  -13.0440 O.2   100  ASP100     -0.2867
    150  CB       -52.9460   -6.4810  -15.6600 C.3   100  ASP100      0.1410
    151  CG       -51.6330   -6.8350  -16.3280 C.2   100  ASP100      0.3668
    152  OD1      -51.1140   -5.9930  -17.0850 O.co2 100  ASP100     -0.2456
    153  OD2      -51.1050   -7.9410  -16.0620 O.co2 100  ASP100     -0.2456
    154  N        -55.0020   -8.2890  -10.2470 N.3   104  GLU104     -0.1245
    155  CA       -54.8940   -7.2070   -9.2720 C.3   104  GLU104      0.1567
    156  C        -56.1430   -6.9810   -8.4220 C.2   104  GLU104      0.2260
    157  O        -56.0220   -6.4130   -7.3350 O.2   104  GLU104     -0.2867
    158  CB       -54.4780   -5.9030   -9.9670 C.3   104  GLU104      0.0388
    159  CG       -53.0190   -5.8800  -10.3960 C.3   104  GLU104      0.1160
    160  CD       -52.6800   -4.9270  -11.5250 C.2   104  GLU104      0.3649
    161  OE1      -51.9710   -5.3560  -12.4640 O.co2 104  GLU104     -0.2457
    162  OE2      -53.1200   -3.7560  -11.4760 O.co2 104  GLU104     -0.2457
    163  N        -59.4260   -4.8080  -23.1700 N.3   144  LEU144     -0.1245
    164  CA       -59.1530   -3.6130  -22.3690 C.3   144  LEU144      0.1561
    165  C        -60.3500   -3.1830  -21.5410 C.2   144  LEU144      0.2260
    166  O        -61.4950   -3.4230  -21.9290 O.2   144  LEU144     -0.2867
    167  CB       -58.6320   -2.4570  -23.2340 C.3   144  LEU144      0.0270
    168  CG       -57.3910   -2.7210  -24.0700 C.3   144  LEU144      0.0019
    169  CD1      -57.2380   -1.6630  -25.1120 C.3   144  LEU144      0.0001
    170  CD2      -56.1350   -2.8100  -23.2080 C.3   144  LEU144      0.0001
    171  N        -59.2850   -5.6690  -28.3570 N.3   154  THR154     -0.1203
    172  CA       -58.2130   -4.9960  -29.0910 C.3   154  THR154      0.1994
    173  C        -57.2410   -6.0190  -29.7190 C.2   154  THR154      0.2617
    174  O        -57.4570   -7.2270  -29.5900 O.2   154  THR154     -0.2717
    175  CB       -57.5120   -3.9560  -28.1970 C.3   154  THR154      0.1784
    176  OG1      -56.8140   -3.0420  -29.0410 O.3   154  THR154     -0.2211
    177  CG2      -56.5440   -4.5870  -27.1940 C.3   154  THR154      0.0376
    178  N        -56.1640   -5.5200  -30.3700 N.am  155  ASP155     -0.1973
    179  CA       -55.0760   -6.2820  -30.9880 C.3   155  ASP155      0.1709
    180  C        -55.5300   -7.2700  -32.0710 C.2   155  ASP155      0.2293
    181  O        -54.9320   -8.3360  -32.2550 O.2   155  ASP155     -0.2864
    182  CB       -54.2090   -6.9750  -29.9290 C.3   155  ASP155      0.1436
    183  CG       -52.7460   -6.6160  -30.0200 C.2   155  ASP155      0.3671
    184  OD1      -52.0970   -7.0310  -31.0010 O.co2 155  ASP155     -0.2456
    185  OD2      -52.2460   -5.9240  -29.1030 O.co2 155  ASP155     -0.2456
@<TRIPOS>BOND
     1    54    55    1
     2    55    56    1
     3    55    58    1
     4    56    57    2
     5    63    64    1
     6    58    59    2
     7    65    64    1
     8    65    66    2
     9    64    67    1
    10    84    82    1
    11    67    68    1
    12    59    60    1
    13    68    69    1
    14    61    60   ar
    15    82    83    1
    16    82    81    1
    17    60    62   ar
    18    69    70    1
    19    77    78    1
    20    78    81    1
    21    78    79    1
    22   181   180    2
    23    79    80    2
    24   180   179    1
    25    74    73    2
    26    53    52    1
    27    48    47    2
    28    52    51    1
    29    73    72    1
    30   184   183   ar
    31   179   178    1
    32   179   182    1
    33    25    24    2
    34    51    50    1
    35    90    91    1
    36    90    89    1
    37    91    92    1
    38    47    46    1
    39   178   173   am
    40    50    49    1
    41   183   182    1
    42   183   185   ar
    43    49    46    1
    44    26    23    1
    45    26    27    1
    46    85    86    1
    47    23    24    1
    48    23    22    1
    49   173   174    2
    50   173   172    1
    51    71    72    1
    52    72    75    1
    53    86    89    1
    54    86    87    1
    55    46    45    1
    56   172   171    1
    57   172   175    1
    58   176   175    1
    59    75    76    1
    60    27    28   ar
    61    27    29   ar
    62    28    30   ar
    63    87    93   am
    64    87    88    2
    65   175   177    1
    66    93    94    1
    67    43    42    2
    68    29    31   ar
    69    30    32   ar
    70    97    94    1
    71    97    98    1
    72    42    41    1
    73    94    95    1
    74    31    32   ar
    75   100    99    2
    76    39    37    1
    77    98    99    1
    78    99   101   am
    79    96    95    2
    80    40    41    1
    81    95   102   am
    82    41    44    1
    83   169   168    1
    84    33    34    1
    85    34    37    1
    86    34    35    1
    87    37    38    1
    88   102   103    1
    89   168   167    1
    90   168   170    1
    91    35    36    2
    92   116   115    1
    93   116   117    1
    94   115   114    1
    95   167   164    1
    96   103   104    1
    97   103   106    1
    98   163   164    1
    99    21    20    2
   100   104   105    2
   101   104   110   am
   102   164   165    1
   103   106   107    1
   104   114   111    1
   105   110   111    1
   106   166   165    2
   107    20    19    1
   108   111   112    1
   109   108   107    1
   110    16    15    1
   111   107   109    1
   112    19    18    1
   113   144   141    1
   114   144   145    1
   115    18    12   am
   116     4     3    2
   117    14    15    1
   118    14    11    1
   119    15    17    1
   120   112   113    2
   121   112   118   am
   122    10    11    1
   123   141   140    1
   124   141   142    1
   125     3     2    1
   126    11    12    1
   127    12    13    2
   128   139   138    2
   129     1     2    1
   130   140   138   am
   131   138   137    1
   132   118   124    1
   133   118   119    1
   134   124   123    1
   135     2     5    1
   136   142   143    2
   137   137   136    1
   138   123   122    1
   139   136   127   am
   140   119   122    1
   141   119   120    1
   142     5     6    1
   143     6     7    1
   144   152   151   ar
   145   120   125   am
   146   120   121    2
   147   125   126    1
   148   127   126    1
   149   127   128    2
   150   146   147    1
   151   151   153   ar
   152   151   150    1
   153   126   129    1
   154   150   147    1
   155     7     8    1
   156     9     8    1
   157   129   130    1
   158   131   133   ar
   159   131   130   ar
   160   147   148    1
   161   133   135   ar
   162   130   132   ar
   163   148   149    2
   164   135   134   ar
   165   132   134   ar
   166   161   160   ar
   167   160   162   ar
   168   160   159    1
   169   159   158    1
   170   154   155    1
   171   158   155    1
   172   155   156    1
   173   156   157    2
