@<TRIPOS>MOLECULE
tmp/5em6A00.pdb
 184 172 0 0 0
SMALL
GASTEIGER

@<TRIPOS>ATOM
      1  N        -46.3710    4.1530  -19.0510 N.3    22  LEU22      -0.1231
      2  CA       -47.1610    3.1520  -18.3240 C.3    22  LEU22       0.1693
      3  C        -46.4600    1.7920  -18.3510 C.2    22  LEU22       0.2592
      4  O        -46.3620    1.1320  -17.3190 O.2    22  LEU22      -0.2718
      5  CB       -48.5800    3.0070  -18.9020 C.3    22  LEU22       0.0284
      6  CG       -49.5250    4.1850  -18.7640 C.3    22  LEU22       0.0019
      7  CD1      -50.6500    4.0790  -19.7630 C.3    22  LEU22       0.0001
      8  CD2      -50.0730    4.2970  -17.3590 C.3    22  LEU22       0.0001
      9  N        -46.0030    1.3870  -19.5350 N.am   23  GLY23      -0.1957
     10  CA       -45.3230    0.1160  -19.7460 C.3    23  GLY23       0.1869
     11  C        -44.4600    0.0840  -20.9890 C.2    23  GLY23       0.2309
     12  O        -44.7960    0.6990  -22.0020 O.2    23  GLY23      -0.2863
     13  N        -42.1820   -4.9560  -28.1080 N.3    27  PHE27      -0.1241
     14  CA       -42.4670   -4.0920  -29.2510 C.3    27  PHE27       0.1605
     15  C        -41.7980   -2.7170  -29.1070 C.2    27  PHE27       0.2264
     16  O        -40.9400   -2.3610  -29.9230 O.2    27  PHE27      -0.2867
     17  CB       -43.9900   -3.9830  -29.5010 C.3    27  PHE27       0.0534
     18  CG       -44.8680   -3.6280  -28.3160 C.ar   27  PHE27      -0.0203
     19  CD1      -45.2790   -2.3160  -28.1020 C.ar   27  PHE27      -0.0042
     20  CD2      -45.3310   -4.6130  -27.4510 C.ar   27  PHE27      -0.0042
     21  CE1      -46.0990   -1.9900  -27.0170 C.ar   27  PHE27      -0.0003
     22  CE2      -46.1530   -4.2870  -26.3670 C.ar   27  PHE27      -0.0003
     23  CZ       -46.5350   -2.9790  -26.1610 C.ar   27  PHE27      -0.0000
     24  N        -45.9300    1.9420  -24.2300 N.3    30  VAL30      -0.1245
     25  CA       -47.2940    2.4690  -24.1200 C.3    30  VAL30       0.1561
     26  C        -47.2410    3.6130  -23.0930 C.2    30  VAL30       0.2260
     27  O        -46.8000    3.4050  -21.9570 O.2    30  VAL30      -0.2867
     28  CB       -48.3480    1.3780  -23.7530 C.3    30  VAL30       0.0252
     29  CG1      -49.7290    1.9870  -23.5250 C.3    30  VAL30       0.0019
     30  CG2      -48.4250    0.2980  -24.8270 C.3    30  VAL30       0.0019
     31  N        -54.0570    6.8070  -24.1940 N.3    47  ALA47      -0.1245
     32  CA       -52.9570    5.8620  -24.2160 C.3    47  ALA47       0.1562
     33  C        -52.3130    6.0030  -25.5950 C.2    47  ALA47       0.2260
     34  O        -53.0150    6.0190  -26.6140 O.2    47  ALA47      -0.2867
     35  CB       -53.4640    4.4560  -24.0110 C.3    47  ALA47       0.0290
     36  N        -49.5010    4.3470  -28.0640 N.3    49  LYS49      -0.1245
     37  CA       -48.6910    3.1540  -28.3510 C.3    49  LYS49       0.1561
     38  C        -47.7270    3.3480  -29.5220 C.2    49  LYS49       0.2260
     39  O        -48.1270    3.8660  -30.5650 O.2    49  LYS49      -0.2867
     40  CB       -49.5980    1.9360  -28.6290 C.3    49  LYS49       0.0271
     41  CG       -48.8640    0.6160  -28.8510 C.3    49  LYS49       0.0035
     42  CD       -49.7280   -0.4020  -29.5680 C.3    49  LYS49       0.0206
     43  CE       -48.9340   -1.6430  -29.8930 C.3    49  LYS49       0.1093
     44  NZ       -49.8130   -2.7640  -30.3040 N.3    49  LYS49      -0.1314
     45  N        -52.7530   -2.1660  -37.5440 N.3    63  GLU63      -0.1245
     46  CA       -53.5520   -2.1620  -36.3230 C.3    63  GLU63       0.1567
     47  C        -54.4640   -0.9400  -36.3350 C.2    63  GLU63       0.2260
     48  O        -55.6190   -1.0630  -35.9260 O.2    63  GLU63      -0.2867
     49  CB       -52.6460   -2.1520  -35.0850 C.3    63  GLU63       0.0388
     50  CG       -53.3900   -2.3930  -33.7860 C.3    63  GLU63       0.1160
     51  CD       -52.5490   -2.6690  -32.5560 C.2    63  GLU63       0.3649
     52  OE1      -51.3130   -2.4750  -32.6130 O.co2  63  GLU63      -0.2457
     53  OE2      -53.1370   -3.0740  -31.5270 O.co2  63  GLU63      -0.2457
     54  N        -58.4570   -1.0670  -35.8000 N.3    67  MET67      -0.1245
     55  CA       -58.9930   -0.2970  -34.6700 C.3    67  MET67       0.1570
     56  C        -59.9110    0.8570  -35.0740 C.2    67  MET67       0.2261
     57  O        -60.8380    1.1800  -34.3300 O.2    67  MET67      -0.2867
     58  CB       -57.8680    0.2140  -33.7730 C.3    67  MET67       0.0387
     59  CG       -57.3360   -0.8120  -32.8270 C.3    67  MET67       0.0595
     60  SD       -56.2450   -0.0470  -31.6080 S.3    67  MET67      -0.1393
     61  CE       -56.7150   -0.9800  -30.1470 C.3    67  MET67       0.0692
     62  N        -61.6580   -1.9140  -27.7610 N.3    76  CYS76      -0.1235
     63  CA       -60.8930   -0.6840  -27.6250 C.3    76  CYS76       0.1677
     64  C        -60.7210   -0.0260  -29.0020 C.2    76  CYS76       0.2270
     65  O        -60.0380   -0.5730  -29.8670 O.2    76  CYS76      -0.2867
     66  CB       -59.5550   -0.9660  -26.9450 C.3    76  CYS76       0.0956
     67  SG       -58.4420    0.4570  -26.8820 S.3    76  CYS76      -0.0801
     68  N        -50.1200    5.1520  -32.1660 N.3    89  LEU89      -0.1245
     69  CA       -51.5730    4.9990  -32.0440 C.3    89  LEU89       0.1561
     70  C        -52.0730    5.7540  -30.8230 C.2    89  LEU89       0.2260
     71  O        -51.4460    5.6880  -29.7620 O.2    89  LEU89      -0.2867
     72  CB       -52.0070    3.5210  -31.8890 C.3    89  LEU89       0.0270
     73  CG       -51.6380    2.4970  -32.9530 C.3    89  LEU89       0.0019
     74  CD1      -52.2340    1.1320  -32.6170 C.3    89  LEU89       0.0001
     75  CD2      -52.0950    2.9150  -34.3260 C.3    89  LEU89       0.0001
     76  N        -55.3180    5.8610  -28.3890 N.3    91  MET91      -0.1230
     77  CA       -56.5180    5.1700  -27.9410 C.3    91  MET91       0.1702
     78  C        -56.9430    5.7210  -26.6000 C.2    91  MET91       0.2592
     79  O        -56.2010    6.4770  -25.9780 O.2    91  MET91      -0.2718
     80  CB       -56.2490    3.6660  -27.7770 C.3    91  MET91       0.0401
     81  CG       -55.7000    2.9840  -29.0090 C.3    91  MET91       0.0596
     82  SD       -54.4750    1.7680  -28.5160 S.3    91  MET91      -0.1393
     83  CE       -53.0780    2.8140  -28.2630 C.3    91  MET91       0.0692
     84  N        -58.1500    5.3340  -26.1590 N.am   92  GLN92      -0.1966
     85  CA       -58.7580    5.6800  -24.8770 C.3    92  GLN92       0.1733
     86  C        -57.9000    5.1130  -23.7430 C.2    92  GLN92       0.2616
     87  O        -57.4370    3.9800  -23.8480 O.2    92  GLN92      -0.2715
     88  CB       -60.1630    5.0490  -24.8230 C.3    92  GLN92       0.0408
     89  CG       -60.9160    5.2500  -23.5130 C.3    92  GLN92       0.0908
     90  CD       -62.1030    4.3390  -23.3680 C.2    92  GLN92       0.2608
     91  OE1      -62.2290    3.3040  -24.0350 O.2    92  GLN92      -0.2717
     92  NE2      -62.9740    4.6730  -22.4350 N.am   92  GLN92      -0.0878
     93  N        -57.7100    5.8750  -22.6550 N.am   93  LEU93      -0.1963
     94  CA       -56.9650    5.3670  -21.5050 C.3    93  LEU93       0.1728
     95  C        -57.8620    4.4670  -20.6560 C.2    93  LEU93       0.2616
     96  O        -58.9760    4.8560  -20.2970 O.2    93  LEU93      -0.2715
     97  CB       -56.3700    6.5060  -20.6600 C.3    93  LEU93       0.0311
     98  CG       -55.5480    6.1020  -19.4320 C.3    93  LEU93       0.0022
     99  CD1      -54.2040    5.5180  -19.8210 C.3    93  LEU93       0.0001
    100  CD2      -55.3650    7.2710  -18.5030 C.3    93  LEU93       0.0001
    101  N        -57.3710    3.2490  -20.3800 N.am   94  MET94      -0.1964
    102  CA       -57.9760    2.2060  -19.5380 C.3    94  MET94       0.1722
    103  C        -57.0540    2.2400  -18.3200 C.2    94  MET94       0.2458
    104  O        -55.9750    1.6450  -18.3670 O.2    94  MET94      -0.2730
    105  CB       -57.8940    0.8580  -20.2640 C.3    94  MET94       0.0427
    106  CG       -58.4500    0.8980  -21.6850 C.3    94  MET94       0.0599
    107  SD       -60.2450    0.9850  -21.7800 S.3    94  MET94      -0.1393
    108  CE       -60.6330   -0.6310  -21.4050 C.3    94  MET94       0.0692
    109  N        -57.3660    3.0950  -17.3100 N.am   95  PRO95      -0.2716
    110  CA       -56.3870    3.3570  -16.2340 C.3    95  PRO95       0.1536
    111  C        -55.8580    2.1710  -15.4460 C.2    95  PRO95       0.2599
    112  O        -54.7330    2.2390  -14.9660 O.2    95  PRO95      -0.2715
    113  CB       -57.1180    4.3280  -15.3000 C.3    95  PRO95       0.0310
    114  CG       -58.2340    4.8870  -16.0820 C.3    95  PRO95       0.0237
    115  CD       -58.5870    3.9180  -17.1500 C.3    95  PRO95       0.0939
    116  N        -56.6600    1.1110  -15.3060 N.am   96  PHE96      -0.1960
    117  CA       -56.3570   -0.0620  -14.4900 C.3    96  PHE96       0.1771
    118  C        -55.4750   -1.1290  -15.1790 C.2    96  PHE96       0.2620
    119  O        -55.0860   -2.1090  -14.5280 O.2    96  PHE96      -0.2715
    120  CB       -57.6730   -0.6670  -13.9650 C.3    96  PHE96       0.0574
    121  CG       -58.4580    0.2790  -13.0840 C.ar   96  PHE96      -0.0200
    122  CD1      -59.3760    1.1650  -13.6330 C.ar   96  PHE96      -0.0042
    123  CD2      -58.2540    0.3050  -11.7100 C.ar   96  PHE96      -0.0042
    124  CE1      -60.0770    2.0620  -12.8230 C.ar   96  PHE96      -0.0003
    125  CE2      -58.9580    1.1990  -10.8990 C.ar   96  PHE96      -0.0003
    126  CZ       -59.8620    2.0740  -11.4620 C.ar   96  PHE96      -0.0000
    127  N        -55.1490   -0.9130  -16.4590 N.am   97  GLY97      -0.1940
    128  CA       -54.2950   -1.7980  -17.2440 C.3    97  GLY97       0.2014
    129  C        -54.9440   -3.1100  -17.6050 C.2    97  GLY97       0.2639
    130  O        -56.1680   -3.2270  -17.5360 O.2    97  GLY97      -0.2714
    131  N        -54.1210   -4.1160  -17.9790 N.am   98  CYS98      -0.1967
    132  CA       -54.5980   -5.4390  -18.3890 C.3    98  CYS98       0.1712
    133  C        -55.2640   -6.2150  -17.2560 C.2    98  CYS98       0.2296
    134  O        -54.8590   -6.1060  -16.0970 O.2    98  CYS98      -0.2864
    135  CB       -53.4990   -6.2570  -19.0670 C.3    98  CYS98       0.0983
    136  SG       -52.2250   -6.9010  -17.9450 S.3    98  CYS98      -0.0798
    137  N        -52.9680   -8.8500  -15.0050 N.3   101  ASP101     -0.1239
    138  CA       -52.3010   -8.2870  -13.8380 C.3   101  ASP101      0.1674
    139  C        -53.3100   -7.8280  -12.7820 C.2   101  ASP101      0.2266
    140  O        -52.9960   -7.8790  -11.5930 O.2   101  ASP101     -0.2867
    141  CB       -51.3600   -7.1440  -14.2370 C.3   101  ASP101      0.1410
    142  CG       -50.1760   -7.5450  -15.1030 C.2   101  ASP101      0.3668
    143  OD1      -49.6550   -6.6710  -15.8320 O.co2 101  ASP101     -0.2456
    144  OD2      -49.7490   -8.7250  -15.0290 O.co2 101  ASP101     -0.2456
    145  N        -53.3060   -8.9270   -8.8760 N.3   105  GLU105     -0.1245
    146  CA       -53.1170   -7.9020   -7.8470 C.3   105  GLU105      0.1567
    147  C        -54.3440   -7.6220   -6.9800 C.2   105  GLU105      0.2260
    148  O        -54.1800   -7.0670   -5.8960 O.2   105  GLU105     -0.2867
    149  CB       -52.5880   -6.5920   -8.4680 C.3   105  GLU105      0.0388
    150  CG       -51.1210   -6.6630   -8.8720 C.3   105  GLU105      0.1160
    151  CD       -50.7500   -6.0060  -10.1890 C.2   105  GLU105      0.3649
    152  OE1      -50.1970   -6.7120  -11.0630 O.co2 105  GLU105     -0.2457
    153  OE2      -50.9810   -4.7840  -10.3410 O.co2 105  GLU105     -0.2457
    154  N        -54.6110   -9.1390  -23.0940 N.3   143  ASN143     -0.1240
    155  CA       -55.1570   -8.3140  -24.1760 C.3   143  ASN143      0.1653
    156  C        -56.6070   -7.8530  -23.9280 C.2   143  ASN143      0.2266
    157  O        -57.3290   -7.5180  -24.8740 O.2   143  ASN143     -0.2867
    158  CB       -55.0010   -9.0280  -25.5200 C.3   143  ASN143      0.1155
    159  CG       -53.5660   -9.0920  -25.9840 C.2   143  ASN143      0.2627
    160  OD1      -52.7000   -8.3140  -25.5570 O.2   143  ASN143     -0.2716
    161  ND2      -53.2820   -9.9940  -26.9040 N.am  143  ASN143     -0.0877
    162  N        -58.3230   -4.9960  -21.4380 N.3   145  LEU145     -0.1245
    163  CA       -58.0290   -3.8740  -20.5420 C.3   145  LEU145      0.1561
    164  C        -59.1940   -3.4960  -19.6620 C.2   145  LEU145      0.2260
    165  O        -60.3530   -3.7360  -20.0200 O.2   145  LEU145     -0.2867
    166  CB       -57.5830   -2.6420  -21.3150 C.3   145  LEU145      0.0270
    167  CG       -56.3770   -2.7570  -22.2020 C.3   145  LEU145      0.0019
    168  CD1      -56.4840   -1.7570  -23.2760 C.3   145  LEU145      0.0001
    169  CD2      -55.0880   -2.5750  -21.4220 C.3   145  LEU145      0.0001
    170  N        -58.3640   -5.5450  -26.5570 N.3   155  THR155     -0.1203
    171  CA       -57.3010   -4.7540  -27.1660 C.3   155  THR155      0.1994
    172  C        -56.3110   -5.6220  -27.9550 C.2   155  THR155      0.2617
    173  O        -56.4870   -6.8400  -28.0510 O.2   155  THR155     -0.2717
    174  CB       -56.6330   -3.8810  -26.0950 C.3   155  THR155      0.1784
    175  OG1      -56.0970   -2.7090  -26.7100 O.3   155  THR155     -0.2211
    176  CG2      -55.5580   -4.6290  -25.2860 C.3   155  THR155      0.0376
    177  N        -55.2580   -4.9770  -28.4870 N.am  156  ASP156     -0.1973
    178  CA       -54.1570   -5.5550  -29.2490 C.3   156  ASP156      0.1709
    179  C        -54.6390   -6.2390  -30.5280 C.2   156  ASP156      0.2293
    180  O        -55.0340   -7.4050  -30.5270 O.2   156  ASP156     -0.2864
    181  CB       -53.2570   -6.4680  -28.3870 C.3   156  ASP156      0.1436
    182  CG       -51.8670   -6.7180  -28.9550 C.2   156  ASP156      0.3671
    183  OD1      -51.7660   -7.3620  -30.0240 O.co2 156  ASP156     -0.2456
    184  OD2      -50.8800   -6.3400  -28.2920 O.co2 156  ASP156     -0.2456
@<TRIPOS>BOND
     1    45    46    1
     2    47    46    1
     3    47    48    2
     4    46    49    1
     5    54    55    1
     6    49    50    1
     7    56    55    1
     8    56    57    2
     9    55    58    1
    10    75    73    1
    11    50    51    1
    12    58    59    1
    13    73    74    1
    14    73    72    1
    15    59    60    1
    16    52    51   ar
    17    51    53   ar
    18    68    69    1
    19    69    72    1
    20    69    70    1
    21    60    61    1
    22    70    71    2
    23    39    38    2
    24   179   180    2
    25   179   178    1
    26    44    43    1
    27   183   182   ar
    28    16    15    2
    29    43    42    1
    30    65    64    2
    31    42    41    1
    32    38    37    1
    33    17    14    1
    34    17    18    1
    35    14    15    1
    36    14    13    1
    37   178   177    1
    38   178   181    1
    39    81    82    1
    40    81    80    1
    41    64    63    1
    42   182   181    1
    43   182   184   ar
    44    41    40    1
    45    40    37    1
    46    82    83    1
    47   177   172   am
    48    76    77    1
    49    37    36    1
    50    18    19   ar
    51    18    20   ar
    52    19    21   ar
    53   173   172    2
    54   172   171    1
    55    77    80    1
    56    77    78    1
    57    62    63    1
    58    63    66    1
    59    20    22   ar
    60   171   170    1
    61   171   174    1
    62    21    23   ar
    63    66    67    1
    64   161   159   am
    65   175   174    1
    66    34    33    2
    67    78    84   am
    68    78    79    2
    69    22    23   ar
    70    84    85    1
    71   174   176    1
    72   159   160    2
    73   159   158    1
    74    33    32    1
    75   158   155    1
    76    85    88    1
    77    85    86    1
    78   157   156    2
    79    30    28    1
    80    88    89    1
    81    24    25    1
    82    32    31    1
    83    32    35    1
    84   155   156    1
    85   155   154    1
    86    25    28    1
    87    25    26    1
    88    91    90    2
    89    87    86    2
    90    28    29    1
    91    86    93   am
    92    89    90    1
    93    90    92   am
    94   168   167    1
    95    26    27    2
    96    93    94    1
    97   167   169    1
    98   167   166    1
    99    12    11    2
   100   107   106    1
   101   107   108    1
   102   106   105    1
   103    94    97    1
   104    94    95    1
   105   162   163    1
   106   166   163    1
   107    11    10    1
   108    97    98    1
   109    95   101   am
   110    95    96    2
   111   163   164    1
   112   101   102    1
   113   105   102    1
   114   165   164    2
   115    99    98    1
   116     7     6    1
   117    10     9    1
   118   102   103    1
   119     9     3   am
   120    98   100    1
   121   135   132    1
   122   135   136    1
   123     1     2    1
   124     5     6    1
   125     5     2    1
   126     6     8    1
   127   132   131    1
   128   132   133    1
   129   104   103    2
   130     3     2    1
   131     3     4    2
   132   103   109   am
   133   131   129   am
   134   129   130    2
   135   129   128    1
   136   109   115    1
   137   109   110    1
   138   133   134    2
   139   128   127    1
   140   115   114    1
   141   127   118   am
   142   110   111    1
   143   110   113    1
   144   114   113    1
   145   143   142   ar
   146   111   116   am
   147   111   112    2
   148   116   117    1
   149   118   119    2
   150   118   117    1
   151   142   144   ar
   152   142   141    1
   153   137   138    1
   154   117   120    1
   155   141   138    1
   156   120   121    1
   157   138   139    1
   158   122   121   ar
   159   122   124   ar
   160   121   123   ar
   161   124   126   ar
   162   139   140    2
   163   123   125   ar
   164   126   125   ar
   165   152   151   ar
   166   153   151   ar
   167   151   150    1
   168   145   146    1
   169   150   149    1
   170   149   146    1
   171   146   147    1
   172   147   148    2
