@<TRIPOS>MOLECULE
tmp/5em8A00.pdb
 169 160 0 0 0
SMALL
GASTEIGER

@<TRIPOS>ATOM
      1  N        -46.9340    3.8830  -19.5270 N.3    23  LEU23      -0.1231
      2  CA       -47.7230    2.8110  -18.8920 C.3    23  LEU23       0.1693
      3  C        -46.9930    1.4680  -19.0020 C.2    23  LEU23       0.2592
      4  O        -47.0300    0.6750  -18.0600 O.2    23  LEU23      -0.2718
      5  CB       -49.1290    2.6860  -19.5060 C.3    23  LEU23       0.0284
      6  CG       -50.0700    3.8710  -19.3510 C.3    23  LEU23       0.0019
      7  CD1      -51.1250    3.8530  -20.4200 C.3    23  LEU23       0.0001
      8  CD2      -50.7060    3.9070  -17.9850 C.3    23  LEU23       0.0001
      9  N        -46.3480    1.2390  -20.1500 N.am   24  GLY24      -0.1957
     10  CA       -45.5890    0.0330  -20.4570 C.3    24  GLY24       0.1869
     11  C        -44.6080    0.2490  -21.5910 C.2    24  GLY24       0.2309
     12  O        -44.9300    0.9330  -22.5650 O.2    24  GLY24      -0.2863
     13  N        -41.6920   -4.6890  -28.4500 N.3    28  PHE28      -0.1241
     14  CA       -42.4090   -4.2880  -29.6710 C.3    28  PHE28       0.1605
     15  C        -42.4840   -2.7430  -29.8190 C.2    28  PHE28       0.2264
     16  O        -42.2100   -2.2100  -30.8990 O.2    28  PHE28      -0.2867
     17  CB       -43.8270   -4.9220  -29.6740 C.3    28  PHE28       0.0534
     18  CG       -44.5390   -4.8800  -28.3340 C.ar   28  PHE28      -0.0203
     19  CD1      -44.3380   -5.8820  -27.3860 C.ar   28  PHE28      -0.0042
     20  CD2      -45.3910   -3.8280  -28.0120 C.ar   28  PHE28      -0.0042
     21  CE1      -44.9600   -5.8210  -26.1360 C.ar   28  PHE28      -0.0003
     22  CE2      -46.0170   -3.7700  -26.7620 C.ar   28  PHE28      -0.0003
     23  CZ       -45.8020   -4.7700  -25.8360 C.ar   28  PHE28      -0.0000
     24  N        -46.2150    2.2260  -24.6930 N.3    31  VAL31      -0.1245
     25  CA       -47.5890    2.6900  -24.4820 C.3    31  VAL31       0.1561
     26  C        -47.5450    3.8030  -23.4240 C.2    31  VAL31       0.2260
     27  O        -47.0420    3.5940  -22.3160 O.2    31  VAL31      -0.2867
     28  CB       -48.5880    1.5330  -24.1580 C.3    31  VAL31       0.0252
     29  CG1      -49.9220    2.0560  -23.6240 C.3    31  VAL31       0.0019
     30  CG2      -48.8270    0.6570  -25.3850 C.3    31  VAL31       0.0019
     31  N        -54.4790    6.6520  -24.5080 N.3    48  ALA48      -0.1245
     32  CA       -53.3570    5.7480  -24.5560 C.3    48  ALA48       0.1562
     33  C        -52.7090    5.9710  -25.9370 C.2    48  ALA48       0.2260
     34  O        -53.3840    5.9450  -26.9780 O.2    48  ALA48      -0.2867
     35  CB       -53.8210    4.3290  -24.4060 C.3    48  ALA48       0.0290
     36  N        -49.8510    4.5000  -28.3490 N.3    50  LYS50      -0.1245
     37  CA       -49.0370    3.3210  -28.6940 C.3    50  LYS50       0.1561
     38  C        -48.1330    3.6050  -29.9290 C.2    50  LYS50       0.2260
     39  O        -48.6200    3.5270  -31.0660 O.2    50  LYS50      -0.2867
     40  CB       -49.9810    2.1290  -28.9610 C.3    50  LYS50       0.0271
     41  CG       -49.3260    0.7980  -29.3340 C.3    50  LYS50       0.0035
     42  CD       -50.4090   -0.1760  -29.8100 C.3    50  LYS50       0.0206
     43  CE       -49.9120   -1.5880  -29.9800 C.3    50  LYS50       0.1093
     44  NZ       -51.0400   -2.5510  -30.1160 N.3    50  LYS50      -0.1314
     45  N        -58.7550   -1.3630  -36.3030 N.3    68  MET68      -0.1245
     46  CA       -59.3540   -0.6160  -35.1900 C.3    68  MET68       0.1570
     47  C        -60.3100    0.4860  -35.6040 C.2    68  MET68       0.2261
     48  O        -61.3180    0.6930  -34.9310 O.2    68  MET68      -0.2867
     49  CB       -58.2910   -0.0660  -34.2550 C.3    68  MET68       0.0387
     50  CG       -57.5790   -1.1280  -33.4550 C.3    68  MET68       0.0595
     51  SD       -56.4640   -0.3560  -32.2580 S.3    68  MET68      -0.1393
     52  CE       -55.8420   -1.8840  -31.3660 C.3    68  MET68       0.0692
     53  N        -62.1280   -2.2060  -28.2180 N.3    77  CYS77      -0.1235
     54  CA       -61.2850   -1.0230  -28.0610 C.3    77  CYS77       0.1677
     55  C        -61.4380   -0.0920  -29.2730 C.2    77  CYS77       0.2270
     56  O        -61.3850   -0.5570  -30.4080 O.2    77  CYS77      -0.2867
     57  CB       -59.8330   -1.4300  -27.8190 C.3    77  CYS77       0.0956
     58  SG       -58.8060   -0.1270  -27.0950 S.3    77  CYS77      -0.0801
     59  N        -55.6680    5.8340  -28.7450 N.3    92  THR92      -0.1203
     60  CA       -56.8060    5.0500  -28.3220 C.3    92  THR92       0.1994
     61  C        -57.2640    5.4790  -26.9390 C.2    92  THR92       0.2618
     62  O        -56.5670    6.2280  -26.2760 O.2    92  THR92      -0.2717
     63  CB       -56.4530    3.5530  -28.4740 C.3    92  THR92       0.1784
     64  OG1      -57.5700    2.7750  -28.0690 O.3    92  THR92      -0.2211
     65  CG2      -55.2200    3.1430  -27.6780 C.3    92  THR92       0.0376
     66  N        -58.4630    5.0430  -26.5210 N.am   93  GLN93      -0.1965
     67  CA       -59.0360    5.3700  -25.2110 C.3    93  GLN93       0.1733
     68  C        -58.2250    4.7460  -24.0750 C.2    93  GLN93       0.2616
     69  O        -57.9100    3.5470  -24.1170 O.2    93  GLN93      -0.2715
     70  CB       -60.4880    4.8890  -25.1510 C.3    93  GLN93       0.0408
     71  CG       -61.2050    5.1250  -23.8360 C.3    93  GLN93       0.0908
     72  CD       -62.5660    4.4830  -23.7680 C.2    93  GLN93       0.2608
     73  OE1      -62.9160    3.5850  -24.5450 O.2    93  GLN93      -0.2717
     74  NE2      -63.3490    4.9050  -22.7930 N.am   93  GLN93      -0.0878
     75  N        -57.9170    5.5600  -23.0450 N.am   94  LEU94      -0.1963
     76  CA       -57.2450    5.0760  -21.8460 C.3    94  LEU94       0.1728
     77  C        -58.1930    4.1750  -21.0710 C.2    94  LEU94       0.2616
     78  O        -59.3340    4.5600  -20.7760 O.2    94  LEU94      -0.2715
     79  CB       -56.7680    6.2290  -20.9600 C.3    94  LEU94       0.0311
     80  CG       -56.0000    5.8190  -19.7120 C.3    94  LEU94       0.0022
     81  CD1      -54.6360    5.2730  -20.0570 C.3    94  LEU94       0.0001
     82  CD2      -55.8680    6.9830  -18.7550 C.3    94  LEU94       0.0001
     83  N        -57.7150    2.9550  -20.7880 N.am   95  MET95      -0.1964
     84  CA       -58.3880    1.8980  -20.0230 C.3    95  MET95       0.1722
     85  C        -57.6290    1.9230  -18.7200 C.2    95  MET95       0.2458
     86  O        -56.5670    1.3120  -18.6470 O.2    95  MET95      -0.2730
     87  CB       -58.2280    0.5840  -20.7880 C.3    95  MET95       0.0427
     88  CG       -58.8500    0.6430  -22.1790 C.3    95  MET95       0.0599
     89  SD       -60.6150    1.0280  -22.1550 S.3    95  MET95      -0.1393
     90  CE       -61.2670   -0.5980  -21.8120 C.3    95  MET95       0.0692
     91  N        -58.0360    2.8050  -17.7650 N.am   96  PRO96      -0.2716
     92  CA       -57.1520    3.1270  -16.6240 C.3    96  PRO96       0.1536
     93  C        -56.7570    1.9990  -15.6710 C.2    96  PRO96       0.2599
     94  O        -55.7810    2.1610  -14.9450 O.2    96  PRO96      -0.2715
     95  CB       -57.9100    4.2370  -15.8820 C.3    96  PRO96       0.0310
     96  CG       -59.3220    4.1510  -16.3620 C.3    96  PRO96       0.0237
     97  CD       -59.2450    3.6620  -17.7590 C.3    96  PRO96       0.0939
     98  N        -57.4660    0.8690  -15.6850 N.am   97  PHE97      -0.1960
     99  CA       -57.1750   -0.2440  -14.7840 C.3    97  PHE97       0.1771
    100  C        -56.2210   -1.3290  -15.3760 C.2    97  PHE97       0.2620
    101  O        -55.8800   -2.3000  -14.6780 O.2    97  PHE97      -0.2715
    102  CB       -58.4980   -0.8440  -14.2980 C.3    97  PHE97       0.0574
    103  CG       -59.2540    0.0830  -13.3810 C.ar   97  PHE97      -0.0200
    104  CD1      -59.0140    0.0810  -12.0100 C.ar   97  PHE97      -0.0042
    105  CD2      -60.1960    0.9720  -13.8860 C.ar   97  PHE97      -0.0042
    106  CE1      -59.7040    0.9540  -11.1640 C.ar   97  PHE97      -0.0003
    107  CE2      -60.8900    1.8430  -13.0350 C.ar   97  PHE97      -0.0003
    108  CZ       -60.6370    1.8300  -11.6790 C.ar   97  PHE97      -0.0000
    109  N        -55.7840   -1.1190  -16.6280 N.am   98  GLY98      -0.1940
    110  CA       -54.8870   -2.0130  -17.3510 C.3    98  GLY98       0.2014
    111  C        -55.5700   -3.2800  -17.8220 C.2    98  GLY98       0.2639
    112  O        -56.8000   -3.3290  -17.8930 O.2    98  GLY98      -0.2714
    113  N        -54.7760   -4.3180  -18.1510 N.am   99  CYS99      -0.1967
    114  CA       -55.2880   -5.5990  -18.6440 C.3    99  CYS99       0.1712
    115  C        -55.9310   -6.4100  -17.5350 C.2    99  CYS99       0.2296
    116  O        -55.4790   -6.3540  -16.3800 O.2    99  CYS99      -0.2864
    117  CB       -54.2120   -6.4000  -19.3700 C.3    99  CYS99       0.0983
    118  SG       -52.9700   -7.1130  -18.2680 S.3    99  CYS99      -0.0798
    119  N        -54.0770   -9.1060   -9.2610 N.3   106  GLU106     -0.1245
    120  CA       -53.9400   -8.0430   -8.2690 C.3   106  GLU106      0.1567
    121  C        -55.1390   -7.9540   -7.3390 C.2   106  GLU106      0.2260
    122  O        -54.9660   -7.5410   -6.1930 O.2   106  GLU106     -0.2867
    123  CB       -53.7250   -6.6910   -8.9680 C.3   106  GLU106      0.0388
    124  CG       -52.9990   -5.6410   -8.1500 C.3   106  GLU106      0.1160
    125  CD       -52.7710   -4.3510   -8.9120 C.2   106  GLU106      0.3649
    126  OE1      -51.8390   -4.3100   -9.7490 O.co2 106  GLU106     -0.2457
    127  OE2      -53.5370   -3.3860   -8.6880 O.co2 106  GLU106     -0.2457
    128  N        -54.8320  -11.2190  -21.1540 N.3   143  ARG143     -0.1231
    129  CA       -53.8780  -10.1000  -21.3120 C.3   143  ARG143      0.1694
    130  C        -54.3750   -9.0670  -22.3580 C.2   143  ARG143      0.2592
    131  O        -53.8960   -7.9370  -22.3470 O.2   143  ARG143     -0.2718
    132  CB       -52.4680  -10.5890  -21.6990 C.3   143  ARG143      0.0321
    133  CG       -52.3750  -11.0690  -23.1400 C.3   143  ARG143      0.0489
    134  CD       -51.0500  -11.7130  -23.5270 C.3   143  ARG143      0.2205
    135  NE       -51.2300  -12.5470  -24.7230 N.pl3 143  ARG143     -0.0865
    136  CZ       -51.4750  -13.8570  -24.6920 C.cat 143  ARG143      0.5346
    137  NH1      -51.4980  -14.5120  -23.5320 N.pl3 143  ARG143      0.1354
    138  NH2      -51.6720  -14.5280  -25.8220 N.pl3 143  ARG143      0.1354
    139  N        -55.3040   -9.4700  -23.2730 N.am  144  ASN144     -0.1974
    140  CA       -55.8520   -8.6280  -24.3570 C.3   144  ASN144      0.1688
    141  C        -57.2890   -8.1230  -24.1040 C.2   144  ASN144      0.2292
    142  O        -58.0430   -7.8260  -25.0370 O.2   144  ASN144     -0.2864
    143  CB       -55.7430   -9.3470  -25.6980 C.3   144  ASN144      0.1181
    144  CG       -54.3240   -9.4030  -26.1730 C.2   144  ASN144      0.2629
    145  OD1      -53.5090   -8.5330  -25.8610 O.2   144  ASN144     -0.2716
    146  ND2      -53.9910  -10.4200  -26.9350 N.am  144  ASN144     -0.0877
    147  N        -58.9300   -5.1680  -21.8590 N.3   146  LEU146     -0.1245
    148  CA       -58.6210   -4.0060  -21.0340 C.3   146  LEU146      0.1561
    149  C        -59.7560   -3.6170  -20.1150 C.2   146  LEU146      0.2260
    150  O        -60.9260   -3.9120  -20.4050 O.2   146  LEU146     -0.2867
    151  CB       -58.1700   -2.8330  -21.8850 C.3   146  LEU146      0.0270
    152  CG       -56.8680   -3.0280  -22.6290 C.3   146  LEU146      0.0019
    153  CD1      -56.7920   -2.0730  -23.7440 C.3   146  LEU146      0.0001
    154  CD2      -55.6720   -2.9110  -21.7040 C.3   146  LEU146      0.0001
    155  N        -58.9530   -5.9400  -26.9800 N.3   156  THR156     -0.1203
    156  CA       -57.8950   -5.1740  -27.6390 C.3   156  THR156      0.1994
    157  C        -56.9260   -6.0810  -28.4290 C.2   156  THR156      0.2617
    158  O        -57.1630   -7.2890  -28.5420 O.2   156  THR156     -0.2717
    159  CB       -57.2060   -4.2790  -26.6050 C.3   156  THR156      0.1784
    160  OG1      -56.6360   -3.1430  -27.2580 O.3   156  THR156     -0.2211
    161  CG2      -56.1750   -5.0300  -25.7410 C.3   156  THR156      0.0376
    162  N        -55.8370   -5.4780  -28.9750 N.am  157  ASP157     -0.1973
    163  CA       -54.7460   -6.1030  -29.7250 C.3   157  ASP157      0.1709
    164  C        -55.2380   -6.7710  -31.0020 C.2   157  ASP157      0.2293
    165  O        -55.5720   -7.9610  -31.0390 O.2   157  ASP157     -0.2864
    166  CB       -53.9160   -7.0450  -28.8390 C.3   157  ASP157      0.1436
    167  CG       -52.5120   -7.2950  -29.3260 C.2   157  ASP157      0.3671
    168  OD1      -52.3260   -8.2040  -30.1750 O.co2 157  ASP157     -0.2456
    169  OD2      -51.5890   -6.6290  -28.8230 O.co2 157  ASP157     -0.2456
@<TRIPOS>BOND
     1    45    46    1
     2    47    46    1
     3    47    48    2
     4    46    49    1
     5    49    50    1
     6    50    51    1
     7    51    52    1
     8    39    38    2
     9   165   164    2
    10   164   163    1
    11    16    15    2
    12    56    55    2
    13   168   167   ar
    14    44    43    1
    15    43    42    1
    16    38    37    1
    17    15    14    1
    18    42    41    1
    19   163   162    1
    20   163   166    1
    21    17    14    1
    22    17    18    1
    23    14    13    1
    24    41    40    1
    25   167   166    1
    26   167   169   ar
    27    55    54    1
    28   162   157   am
    29    40    37    1
    30    59    60    1
    31    37    36    1
    32   158   157    2
    33    63    60    1
    34    63    64    1
    35    63    65    1
    36   157   156    1
    37    18    20   ar
    38    18    19   ar
    39    60    61    1
    40    53    54    1
    41    54    57    1
    42    20    22   ar
    43    57    58    1
    44   156   155    1
    45   156   159    1
    46    19    21   ar
    47   160   159    1
    48    34    33    2
    49    61    66   am
    50    61    62    2
    51   146   144   am
    52    22    23   ar
    53   159   161    1
    54    66    67    1
    55   144   145    2
    56   144   143    1
    57    21    23   ar
    58    33    32    1
    59   138   136    1
    60   143   140    1
    61    30    28    1
    62    67    70    1
    63    67    68    1
    64    70    71    1
    65   142   141    2
    66   135   136    2
    67   135   134    1
    68    24    25    1
    69   136   137    1
    70    32    31    1
    71    32    35    1
    72    73    72    2
    73    25    28    1
    74    25    26    1
    75   140   141    1
    76   140   139    1
    77    28    29    1
    78    69    68    2
    79    68    75   am
    80    71    72    1
    81    72    74   am
    82   153   152    1
    83   134   133    1
    84    26    27    2
    85   139   130   am
    86   133   132    1
    87    75    76    1
    88   152   151    1
    89   152   154    1
    90    12    11    2
    91   130   131    2
    92   130   129    1
    93    88    89    1
    94    88    87    1
    95    89    90    1
    96   151   148    1
    97   147   148    1
    98    76    77    1
    99    76    79    1
   100   132   129    1
   101    11    10    1
   102   129   128    1
   103    77    83   am
   104    77    78    2
   105   148   149    1
   106    79    80    1
   107    87    84    1
   108    83    84    1
   109    10     9    1
   110     7     6    1
   111   150   149    2
   112     9     3   am
   113    81    80    1
   114    84    85    1
   115    80    82    1
   116     1     2    1
   117     5     6    1
   118     5     2    1
   119   117   114    1
   120   117   118    1
   121     6     8    1
   122     3     2    1
   123     3     4    2
   124    85    86    2
   125    85    91   am
   126   114   113    1
   127   114   115    1
   128   113   111   am
   129   112   111    2
   130   111   110    1
   131    91    97    1
   132    91    92    1
   133    97    96    1
   134   115   116    2
   135   110   109    1
   136   109   100   am
   137    92    95    1
   138    92    93    1
   139    96    95    1
   140    98    93   am
   141    98    99    1
   142    93    94    2
   143   100    99    1
   144   100   101    2
   145    99   102    1
   146   102   103    1
   147   105   103   ar
   148   105   107   ar
   149   103   104   ar
   150   107   108   ar
   151   104   106   ar
   152   108   106   ar
   153   126   125   ar
   154   119   120    1
   155   123   120    1
   156   123   124    1
   157   125   127   ar
   158   125   124    1
   159   120   121    1
   160   121   122    2
