@<TRIPOS>MOLECULE
tmp/5emjA00.pdb
 210 203 0 0 0
SMALL
GASTEIGER

@<TRIPOS>ATOM
      1  N         12.8960  -44.9910   -4.5760 N.3   302  PRO302     -0.2102
      2  CA        13.8390  -43.8540   -4.4860 C.3   302  PRO302      0.1504
      3  C         13.4680  -42.8190   -3.4110 C.2   302  PRO302      0.2575
      4  O         14.3480  -42.1770   -2.8280 O.2   302  PRO302     -0.2718
      5  CB        13.7050  -43.2030   -5.8630 C.3   302  PRO302      0.0282
      6  CG        12.2740  -43.4560   -6.2480 C.3   302  PRO302      0.0208
      7  CD        11.9180  -44.8060   -5.6710 C.3   302  PRO302      0.0893
      8  N         12.1630  -42.7020   -3.1650 N.am  303  LEU303     -0.1980
      9  CA        11.5780  -41.7340   -2.2620 C.3   303  LEU303      0.1596
     10  C         11.2240  -42.3350   -0.9140 C.2   303  LEU303      0.2287
     11  O         11.5010  -41.7290    0.1180 O.2   303  LEU303     -0.2864
     12  CB        10.3000  -41.1870   -2.8890 C.3   303  LEU303      0.0297
     13  CG        10.2750  -39.8430   -3.5840 C.3   303  LEU303      0.0022
     14  CD1       11.6650  -39.2690   -3.8280 C.3   303  LEU303      0.0001
     15  CD2        9.5210  -40.0520   -4.8720 C.3   303  LEU303      0.0001
     16  N         18.8480  -44.6140    0.3980 N.3   307  LEU307     -0.1245
     17  CA        20.0230  -45.3580   -0.0390 C.3   307  LEU307      0.1561
     18  C         21.0680  -45.5180    1.0760 C.2   307  LEU307      0.2260
     19  O         21.2250  -44.6310    1.9250 O.2   307  LEU307     -0.2867
     20  CB        20.6620  -44.6470   -1.2450 C.3   307  LEU307      0.0270
     21  CG        19.7650  -44.4880   -2.4740 C.3   307  LEU307      0.0019
     22  CD1       20.3150  -43.4590   -3.4310 C.3   307  LEU307      0.0001
     23  CD2       19.6990  -45.8400   -3.1580 C.3   307  LEU307      0.0001
     24  N         25.9260  -45.2140   -2.5250 N.3   312  TYR312     -0.1241
     25  CA        26.5360  -43.9740   -3.0020 C.3   312  TYR312      0.1605
     26  C         28.0240  -44.2030   -3.3480 C.2   312  TYR312      0.2264
     27  O         28.5200  -43.6890   -4.3490 O.2   312  TYR312     -0.2867
     28  CB        26.4310  -42.8690   -1.9470 C.3   312  TYR312      0.0534
     29  CG        25.0300  -42.3080   -1.6670 C.ar  312  TYR312     -0.0201
     30  CD1       24.3860  -41.4610   -2.5750 C.ar  312  TYR312     -0.0009
     31  CD2       24.3710  -42.6010   -0.4650 C.ar  312  TYR312     -0.0009
     32  CE1       23.1130  -40.9380   -2.3050 C.ar  312  TYR312      0.0417
     33  CE2       23.1120  -42.0960   -0.1920 C.ar  312  TYR312      0.0417
     34  CZ        22.4870  -41.2600   -1.0980 C.ar  312  TYR312      0.1957
     35  OH        21.2230  -40.7780   -0.7890 O.3   312  TYR312     -0.2866
     36  N         28.5900  -46.0050   -6.9340 N.3   315  PHE315     -0.1227
     37  CA        28.2630  -45.2150   -8.1020 C.3   315  PHE315      0.1736
     38  C         29.0460  -43.9120   -8.2250 C.2   315  PHE315      0.2595
     39  O         29.1600  -43.3580   -9.3210 O.2   315  PHE315     -0.2718
     40  CB        26.7650  -44.9530   -8.1440 C.3   315  PHE315      0.0547
     41  CG        25.9540  -46.1910   -8.3920 C.ar  315  PHE315     -0.0202
     42  CD1       26.1210  -46.9160   -9.5710 C.ar  315  PHE315     -0.0042
     43  CD2       25.0320  -46.6300   -7.4520 C.ar  315  PHE315     -0.0042
     44  CE1       25.3860  -48.0610   -9.7990 C.ar  315  PHE315     -0.0003
     45  CE2       24.2910  -47.7860   -7.6610 C.ar  315  PHE315     -0.0003
     46  CZ        24.4560  -48.4940   -8.8410 C.ar  315  PHE315     -0.0000
     47  N         29.5760  -43.4170   -7.1090 N.am  316  GLU316     -0.1979
     48  CA        30.4310  -42.2210   -7.1260 C.3   316  GLU316      0.1602
     49  C         31.6850  -42.4920   -7.9670 C.2   316  GLU316      0.2287
     50  O         32.3450  -41.5770   -8.4080 O.2   316  GLU316     -0.2864
     51  CB        30.7810  -41.7760   -5.6890 C.3   316  GLU316      0.0415
     52  CG        29.7010  -40.9130   -5.0570 C.3   316  GLU316      0.1163
     53  CD        29.6920  -40.9520   -3.5360 C.2   316  GLU316      0.3649
     54  OE1       30.5960  -41.5680   -2.9390 O.co2 316  GLU316     -0.2457
     55  OE2       28.7670  -40.3590   -2.9350 O.co2 316  GLU316     -0.2457
     56  N         29.7720  -40.2400  -15.7740 N.3   321  LYS321     -0.1231
     57  CA        28.5120  -39.5680  -15.4590 C.3   321  LYS321      0.1693
     58  C         28.7330  -38.1570  -14.9250 C.2   321  LYS321      0.2592
     59  O         28.0400  -37.2020  -15.3360 O.2   321  LYS321     -0.2718
     60  CB        27.6550  -40.3930  -14.4810 C.3   321  LYS321      0.0285
     61  CG        26.2030  -39.9330  -14.3700 C.3   321  LYS321      0.0035
     62  CD        25.5070  -40.5760  -13.1730 C.3   321  LYS321      0.0206
     63  CE        25.3990  -39.6050  -12.0060 C.3   321  LYS321      0.1093
     64  NZ        25.0680  -40.2380  -10.6940 N.3   321  LYS321     -0.1314
     65  N         29.6800  -38.0320  -14.0060 N.am  322  TYR322     -0.1976
     66  CA        29.9090  -36.7530  -13.3490 C.3   322  TYR322      0.1639
     67  C         30.6690  -35.7640  -14.2550 C.2   322  TYR322      0.2290
     68  O         30.3050  -34.5790  -14.3360 O.2   322  TYR322     -0.2864
     69  CB        30.6210  -36.9560  -12.0050 C.3   322  TYR322      0.0560
     70  CG        29.8560  -37.8550  -11.0540 C.ar  322  TYR322     -0.0198
     71  CD1       28.7200  -37.3920  -10.3860 C.ar  322  TYR322     -0.0009
     72  CD2       30.2590  -39.1740  -10.8390 C.ar  322  TYR322     -0.0009
     73  CE1       28.0130  -38.2160   -9.5290 C.ar  322  TYR322      0.0417
     74  CE2       29.5650  -39.9970   -9.9750 C.ar  322  TYR322      0.0417
     75  CZ        28.4350  -39.5130   -9.3310 C.ar  322  TYR322      0.1957
     76  OH        27.7390  -40.3270   -8.4780 O.3   322  TYR322     -0.2866
     77  N         18.7290  -33.2670   -4.7570 N.3   353  GLY353     -0.1210
     78  CA        19.1080  -34.6560   -4.5230 C.3   353  GLY353      0.1956
     79  C         20.6160  -34.7980   -4.6020 C.2   353  GLY353      0.2612
     80  O         21.1470  -35.4590   -5.4980 O.2   353  GLY353     -0.2717
     81  N         21.2980  -34.2030   -3.6310 N.am  354  ALA354     -0.1965
     82  CA        22.7460  -34.0220   -3.6640 C.3   354  ALA354      0.1728
     83  C         23.5700  -35.2030   -3.1910 C.2   354  ALA354      0.2616
     84  O         24.7980  -35.1560   -3.3130 O.2   354  ALA354     -0.2715
     85  CB        23.1310  -32.7770   -2.8680 C.3   354  ALA354      0.0334
     86  N         22.9240  -36.2320   -2.6310 N.am  355  GLY355     -0.1955
     87  CA        23.6370  -37.4420   -2.1760 C.3   355  GLY355      0.1869
     88  C         24.8410  -37.1430   -1.2800 C.2   355  GLY355      0.2309
     89  O         24.7520  -36.3440   -0.3550 O.2   355  GLY355     -0.2863
     90  N         29.0710  -35.4010   -4.9030 N.3   358  PRO358     -0.2102
     91  CA        29.8230  -35.3390   -6.1740 C.3   358  PRO358      0.1504
     92  C         29.3030  -34.3080   -7.2230 C.2   358  PRO358      0.2575
     93  O         30.1080  -33.6640   -7.8800 O.2   358  PRO358     -0.2718
     94  CB        29.7300  -36.7760   -6.6990 C.3   358  PRO358      0.0282
     95  CG        28.4800  -37.3070   -6.0740 C.3   358  PRO358      0.0208
     96  CD        28.5390  -36.7550   -4.6820 C.3   358  PRO358      0.0893
     97  N         27.9970  -34.1320   -7.3560 N.am  359  LEU359     -0.1980
     98  CA        27.4630  -33.1430   -8.2960 C.3   359  LEU359      0.1596
     99  C         27.6380  -31.7300   -7.7700 C.2   359  LEU359      0.2287
    100  O         27.5280  -30.7680   -8.5310 O.2   359  LEU359     -0.2864
    101  CB        25.9800  -33.3590   -8.6070 C.3   359  LEU359      0.0297
    102  CG        25.4270  -34.5440   -9.4230 C.3   359  LEU359      0.0022
    103  CD1       23.9090  -34.3820   -9.6340 C.3   359  LEU359      0.0001
    104  CD2       26.1250  -34.7200  -10.7600 C.3   359  LEU359      0.0001
    105  N         20.4260  -29.5810   -1.8210 N.3   379  VAL379     -0.1231
    106  CA        19.2420  -30.2120   -1.2270 C.3   379  VAL379      0.1692
    107  C         19.2900  -31.7520   -1.2770 C.2   379  VAL379      0.2592
    108  O         19.6710  -32.3330   -2.2990 O.2   379  VAL379     -0.2718
    109  CB        17.9490  -29.7190   -1.8940 C.3   379  VAL379      0.0266
    110  CG1       16.7650  -30.0800   -1.0300 C.3   379  VAL379      0.0020
    111  CG2       17.9980  -28.2150   -2.0710 C.3   379  VAL379      0.0020
    112  N         18.8980  -32.4000   -0.1710 N.am  380  GLU380     -0.1966
    113  CA        18.9520  -33.8580   -0.0240 C.3   380  GLU380      0.1733
    114  C         17.9210  -34.3120    0.9980 C.2   380  GLU380      0.2616
    115  O         17.8460  -33.7650    2.1020 O.2   380  GLU380     -0.2715
    116  CB        20.3760  -34.2960    0.3830 C.3   380  GLU380      0.0429
    117  CG        20.6480  -35.7960    0.5640 C.3   380  GLU380      0.1163
    118  CD        20.1180  -36.7050   -0.5520 C.2   380  GLU380      0.3649
    119  OE1       20.4480  -36.5250   -1.7480 O.co2 380  GLU380     -0.2457
    120  OE2       19.3630  -37.6350   -0.2270 O.co2 380  GLU380     -0.2457
    121  N         17.1190  -35.3060    0.6370 N.am  381  LYS381     -0.1963
    122  CA        16.0320  -35.7450    1.5140 C.3   381  LYS381      0.1728
    123  C         16.5300  -36.8240    2.4590 C.2   381  LYS381      0.2616
    124  O         15.9090  -37.0950    3.4760 O.2   381  LYS381     -0.2715
    125  CB        14.8380  -36.2660    0.7080 C.3   381  LYS381      0.0311
    126  CG        15.1640  -37.5040   -0.1200 C.3   381  LYS381      0.0038
    127  CD        14.2300  -38.6680    0.1440 C.3   381  LYS381      0.0206
    128  CE        14.8590  -39.9530   -0.3910 C.3   381  LYS381      0.1093
    129  NZ        14.4120  -41.1870    0.3370 N.3   381  LYS381     -0.1314
    130  N         17.6490  -37.4540    2.1180 N.am  382  ASN382     -0.1972
    131  CA        18.1410  -38.5710    2.9050 C.3   382  ASN382      0.1688
    132  C         19.0320  -38.0250    4.0190 C.2   382  ASN382      0.2292
    133  O         20.1840  -37.6650    3.7600 O.2   382  ASN382     -0.2864
    134  CB        18.8790  -39.5500    1.9950 C.3   382  ASN382      0.1181
    135  CG        19.5110  -40.7180    2.7410 C.2   382  ASN382      0.2629
    136  OD1       19.4290  -40.8230    3.9690 O.2   382  ASN382     -0.2716
    137  ND2       20.1480  -41.6170    1.9860 N.am  382  ASN382     -0.0877
    138  N         15.9500  -31.5780    3.1830 N.3   406  SER406     -0.1202
    139  CA        14.5230  -31.8290    2.9820 C.3   406  SER406      0.2020
    140  C         14.2050  -32.3700    1.5960 C.2   406  SER406      0.2619
    141  O         15.0800  -32.5000    0.7330 O.2   406  SER406     -0.2717
    142  CB        13.6590  -30.5860    3.2730 C.3   406  SER406      0.2103
    143  OG        13.5740  -29.7260    2.1570 O.3   406  SER406     -0.2182
    144  N         12.9320  -32.6960    1.4040 N.am  407  ASP407     -0.1959
    145  CA        12.4540  -33.0730    0.1170 C.3   407  ASP407      0.1840
    146  C         12.3900  -31.8300   -0.7960 C.2   407  ASP407      0.2625
    147  O         11.9440  -30.7610   -0.3680 O.2   407  ASP407     -0.2715
    148  CB        11.0820  -33.7510    0.2530 C.3   407  ASP407      0.1450
    149  CG        10.7110  -34.5490   -0.9930 C.2   407  ASP407      0.3671
    150  OD1       10.5310  -33.9420   -2.0760 O.co2 407  ASP407     -0.2456
    151  OD2       10.6370  -35.7920   -0.9000 O.co2 407  ASP407     -0.2456
    152  N         12.8080  -31.9710   -2.0540 N.am  408  MET408     -0.1917
    153  CA        12.7370  -30.8530   -2.9930 C.3   408  MET408      0.1952
    154  C         11.2870  -30.4090   -3.2730 C.2   408  MET408      0.2658
    155  O         11.0410  -29.2480   -3.5840 O.2   408  MET408     -0.2711
    156  CB        13.5180  -31.1560   -4.2770 C.2   408  MET408      0.0110
    157  CG        12.8030  -32.0540   -5.2820 C.2   408  MET408      0.0285
    158  SD        13.7460  -32.4570   -6.7800 S.3   408  MET408     -0.1125
    159  CE        15.0650  -33.4660   -6.0960 C.3   408  MET408      0.0742
    160  N         10.3290  -31.3280   -3.1430 N.am  409  ARG409     -0.1974
    161  CA         8.9180  -30.9800   -3.3110 C.3   409  ARG409      0.1598
    162  C          8.3960  -30.1580   -2.1420 C.2   409  ARG409      0.2287
    163  O          7.3160  -29.5960   -2.2360 O.2   409  ARG409     -0.2864
    164  CB         8.0500  -32.2390   -3.4790 C.3   409  ARG409      0.0334
    165  CG         8.4220  -33.0990   -4.6840 C.3   409  ARG409      0.0492
    166  CD         7.7160  -34.4390   -4.6340 C.3   409  ARG409      0.2205
    167  NE         8.2320  -35.2820   -3.5520 N.pl3 409  ARG409     -0.0865
    168  CZ         7.6240  -36.3860   -3.1240 C.cat 409  ARG409      0.5346
    169  NH1        6.4760  -36.7670   -3.6800 N.pl3 409  ARG409      0.1354
    170  NH2        8.1450  -37.1020   -2.1380 N.pl3 409  ARG409      0.1354
    171  N         20.3420  -35.6480  -10.6610 N.3   423  GLU423     -0.1231
    172  CA        20.2550  -36.9470  -11.2860 C.3   423  GLU423      0.1699
    173  C         19.3320  -37.9100  -10.5100 C.2   423  GLU423      0.2592
    174  O         19.7070  -38.5980   -9.5420 O.2   423  GLU423     -0.2718
    175  CB        21.6130  -37.4820  -11.7510 C.3   423  GLU423      0.0402
    176  CG        22.3190  -38.4560  -10.8660 C.3   423  GLU423      0.1161
    177  CD        21.8190  -39.8770  -11.0150 C.2   423  GLU423      0.3649
    178  OE1       22.4170  -40.7260  -10.3590 O.co2 423  GLU423     -0.2457
    179  OE2       20.8110  -40.1510  -11.7080 O.co2 423  GLU423     -0.2457
    180  N         18.0870  -37.9160  -10.9660 N.am  424  LEU424     -0.1966
    181  CA        17.0050  -38.6590  -10.3280 C.3   424  LEU424      0.1728
    182  C         16.4630  -39.7590  -11.2200 C.2   424  LEU424      0.2616
    183  O         15.2540  -40.0460  -11.2040 O.2   424  LEU424     -0.2715
    184  CB        15.8730  -37.6900  -10.0700 C.3   424  LEU424      0.0311
    185  CG        16.3010  -36.5420   -9.1900 C.3   424  LEU424      0.0022
    186  CD1       15.2190  -35.4830   -9.2470 C.3   424  LEU424      0.0001
    187  CD2       16.5910  -37.0210   -7.7680 C.3   424  LEU424      0.0001
    188  N         17.3650  -40.3520  -11.9960 N.am  425  LEU425     -0.1977
    189  CA        17.0090  -41.1750  -13.1340 C.3   425  LEU425      0.1596
    190  C         17.2520  -42.6510  -12.8820 C.2   425  LEU425      0.2287
    191  O         18.2760  -43.0300  -12.3300 O.2   425  LEU425     -0.2864
    192  CB        17.8160  -40.7370  -14.3630 C.3   425  LEU425      0.0297
    193  CG        17.6430  -39.3310  -14.9510 C.3   425  LEU425      0.0022
    194  CD1       18.2760  -39.3180  -16.3300 C.3   425  LEU425      0.0001
    195  CD2       16.1770  -38.9230  -15.0620 C.3   425  LEU425      0.0001
    196  N         12.0870  -43.2950  -11.3570 N.3   432  GLU432     -0.1245
    197  CA        12.3690  -42.9290   -9.9710 C.3   432  GLU432      0.1567
    198  C         11.6460  -41.6550   -9.6320 C.2   432  GLU432      0.2260
    199  O         11.8970  -41.0480   -8.6050 O.2   432  GLU432     -0.2867
    200  CB        13.8930  -42.8340   -9.6780 C.3   432  GLU432      0.0388
    201  CG        14.5810  -44.2160   -9.6700 C.3   432  GLU432      0.1160
    202  CD        16.0950  -44.1640   -9.3040 C.2   432  GLU432      0.3649
    203  OE1       16.6140  -43.1120   -8.8780 O.co2 432  GLU432     -0.2457
    204  OE2       16.7890  -45.1790   -9.4570 O.co2 432  GLU432     -0.2457
    205  N          9.2680  -35.1990   -9.0490 N.3   437  CYS437     -0.1235
    206  CA        10.1750  -34.4910   -8.1520 C.3   437  CYS437      0.1677
    207  C         10.5730  -33.1270   -8.7060 C.2   437  CYS437      0.2270
    208  O         10.5300  -32.1360   -7.9900 O.2   437  CYS437     -0.2867
    209  CB        11.4140  -35.3240   -7.8490 C.3   437  CYS437      0.0956
    210  SG        11.1230  -36.7720   -6.7980 S.3   437  CYS437     -0.0801
@<TRIPOS>BOND
     1   194   193    1
     2    56    57    1
     3    57    58    1
     4    57    60    1
     5    59    58    2
     6   195   193    1
     7   193   192    1
     8    58    65   am
     9    60    61    1
    10    61    62    1
    11   192   189    1
    12    68    67    2
    13    67    66    1
    14    65    66    1
    15    66    69    1
    16    62    63    1
    17   189   190    1
    18   189   188    1
    19   190   191    2
    20    63    64    1
    21    69    70    1
    22   188   182   am
    23   175   172    1
    24   175   176    1
    25   179   177   ar
    26   196   197    1
    27   172   171    1
    28   172   173    1
    29   182   183    2
    30   182   181    1
    31    70    72   ar
    32    70    71   ar
    33   177   176    1
    34   177   178   ar
    35   180   173   am
    36   180   181    1
    37    72    74   ar
    38   104   102    1
    39   173   174    2
    40    71    73   ar
    41   181   184    1
    42   184   185    1
    43    74    75   ar
    44   197   200    1
    45   197   198    1
    46    44    42   ar
    47    44    46   ar
    48   200   201    1
    49   201   202    1
    50   103   102    1
    51   198   199    2
    52    42    41   ar
    53    73    75   ar
    54   204   202   ar
    55   102   101    1
    56    75    76    1
    57    39    38    2
    58   202   203   ar
    59   186   185    1
    60   185   187    1
    61   205   206    1
    62    46    45   ar
    63   207   206    1
    64   207   208    2
    65   101    98    1
    66   100    99    2
    67    50    49    2
    68    41    40    1
    69    41    43   ar
    70    98    99    1
    71    98    97    1
    72    38    37    1
    73    38    47   am
    74   206   209    1
    75    40    37    1
    76    37    36    1
    77    49    48    1
    78    93    92    2
    79   209   210    1
    80    45    43   ar
    81    97    92   am
    82    92    91    1
    83    48    47    1
    84    48    51    1
    85   158   159    1
    86   158   157    1
    87    94    91    1
    88    94    95    1
    89     6     5    1
    90     6     7    1
    91    91    90    1
    92    95    96    1
    93     5     2    1
    94    51    52    1
    95     7     1    1
    96    80    79    2
    97   157   156    2
    98    52    53    1
    99    90    96    1
   100    15    13    1
   101    77    78    1
   102   165   166    1
   103   165   164    1
   104   166   167    1
   105    79    78    1
   106    79    81   am
   107     1     2    1
   108     2     3    1
   109    27    26    2
   110   156   153    1
   111    14    13    1
   112   169   168    1
   113    82    81    1
   114    82    83    1
   115    82    85    1
   116   155   154    2
   117    13    12    1
   118   167   168    2
   119    53    54   ar
   120    53    55   ar
   121   164   161    1
   122    22    21    1
   123     3     8   am
   124     3     4    2
   125    26    25    1
   126    84    83    2
   127   161   160    1
   128   161   162    1
   129   154   160   am
   130   154   153    1
   131    83    86   am
   132     8     9    1
   133    23    21    1
   134   168   170    1
   135    25    24    1
   136    25    28    1
   137   153   152    1
   138    12     9    1
   139    86    87    1
   140    30    32   ar
   141    30    29   ar
   142    21    20    1
   143    32    34   ar
   144   108   107    2
   145     9    10    1
   146   163   162    2
   147    87    88    1
   148   150   149   ar
   149   111   109    1
   150   152   146   am
   151    28    29    1
   152   109   106    1
   153   109   110    1
   154   105   106    1
   155   119   118   ar
   156    29    31   ar
   157    88    89    2
   158   107   106    1
   159   107   112   am
   160    20    17    1
   161    34    35    1
   162    34    33   ar
   163   149   151   ar
   164   149   148    1
   165    10    11    2
   166   146   147    2
   167   146   145    1
   168   118   120   ar
   169   118   117    1
   170    31    33   ar
   171   128   127    1
   172   128   129    1
   173   112   113    1
   174   126   127    1
   175   126   125    1
   176    17    16    1
   177    17    18    1
   178   113   116    1
   179   113   114    1
   180   145   148    1
   181   145   144    1
   182   116   117    1
   183   121   114   am
   184   121   122    1
   185   125   122    1
   186   141   140    2
   187   114   115    2
   188    18    19    2
   189   144   140   am
   190   122   123    1
   191   140   139    1
   192   137   135   am
   193   134   135    1
   194   134   131    1
   195   130   123   am
   196   130   131    1
   197   143   142    1
   198   123   124    2
   199   135   136    2
   200   131   132    1
   201   139   138    1
   202   139   142    1
   203   133   132    2
