@<TRIPOS>MOLECULE
tmp/5emjA01.pdb
 210 207 0 0 0
SMALL
GASTEIGER

@<TRIPOS>ATOM
      1  N         32.9930  -54.1830  -14.3310 N.3   288  PHE288     -0.1241
      2  CA        32.0510  -53.8190  -13.2620 C.3   288  PHE288      0.1605
      3  C         30.8950  -54.8150  -13.2210 C.2   288  PHE288      0.2264
      4  O         30.4810  -55.2500  -12.1580 O.2   288  PHE288     -0.2867
      5  CB        31.5300  -52.3840  -13.4510 C.3   288  PHE288      0.0534
      6  CG        30.4260  -51.9990  -12.4950 C.ar  288  PHE288     -0.0203
      7  CD1       30.7190  -51.3510  -11.2940 C.ar  288  PHE288     -0.0042
      8  CD2       29.0890  -52.2890  -12.7900 C.ar  288  PHE288     -0.0042
      9  CE1       29.7100  -51.0110  -10.4030 C.ar  288  PHE288     -0.0003
     10  CE2       28.0790  -51.9400  -11.9090 C.ar  288  PHE288     -0.0003
     11  CZ        28.3920  -51.3000  -10.7100 C.ar  288  PHE288     -0.0000
     12  N         27.2770  -59.8980  -12.5030 N.3   292  TYR292     -0.1241
     13  CA        25.8540  -59.5060  -12.4780 C.3   292  TYR292      0.1605
     14  C         24.9550  -59.9860  -13.6310 C.2   292  TYR292      0.2264
     15  O         23.7770  -59.6290  -13.6900 O.2   292  TYR292     -0.2867
     16  CB        25.7390  -57.9780  -12.3480 C.3   292  TYR292      0.0534
     17  CG        26.1600  -57.4990  -10.9880 C.ar  292  TYR292     -0.0201
     18  CD1       25.2410  -57.4320   -9.9420 C.ar  292  TYR292     -0.0009
     19  CD2       27.5010  -57.1600  -10.7250 C.ar  292  TYR292     -0.0009
     20  CE1       25.6250  -57.0220   -8.6770 C.ar  292  TYR292      0.0417
     21  CE2       27.8980  -56.7550   -9.4610 C.ar  292  TYR292      0.0417
     22  CZ        26.9590  -56.6880   -8.4390 C.ar  292  TYR292      0.1957
     23  OH        27.3410  -56.2830   -7.1770 O.3   292  TYR292     -0.2866
     24  N         17.4310  -57.6010  -10.1030 N.3   297  GLN297     -0.1231
     25  CA        17.2150  -56.7130   -8.9410 C.3   297  GLN297      0.1698
     26  C         15.8550  -56.0370   -8.9510 C.2   297  GLN297      0.2593
     27  O         15.4350  -55.4900   -9.9760 O.2   297  GLN297     -0.2718
     28  CB        18.2480  -55.5950   -8.9370 C.3   297  GLN297      0.0381
     29  CG        19.2890  -55.6940   -7.8370 C.3   297  GLN297      0.0905
     30  CD        20.7150  -55.5380   -8.3570 C.2   297  GLN297      0.2608
     31  OE1       20.9530  -55.4820   -9.5750 O.2   297  GLN297     -0.2717
     32  NE2       21.6760  -55.4850   -7.4350 N.am  297  GLN297     -0.0878
     33  N         15.1970  -56.0260   -7.8000 N.am  298  SER298     -0.1939
     34  CA        14.0950  -55.1110   -7.5450 C.3   298  SER298      0.2040
     35  C         14.6110  -53.6980   -7.6980 C.2   298  SER298      0.2485
     36  O         15.6650  -53.3640   -7.1450 O.2   298  SER298     -0.2729
     37  CB        13.6190  -55.2940   -6.1190 C.3   298  SER298      0.2129
     38  OG        13.0370  -56.5750   -5.9740 O.3   298  SER298     -0.2179
     39  N         13.9030  -52.8530   -8.4660 N.am  299  PRO299     -0.2715
     40  CA        14.4200  -51.4850   -8.5970 C.3   299  PRO299      0.1536
     41  C         14.2470  -50.6980   -7.2890 C.2   299  PRO299      0.2598
     42  O         13.3600  -51.0390   -6.4750 O.2   299  PRO299     -0.2715
     43  CB        13.5820  -50.8980   -9.7440 C.3   299  PRO299      0.0310
     44  CG        13.0710  -52.1000  -10.4930 C.3   299  PRO299      0.0237
     45  CD        12.8070  -53.1160   -9.4110 C.3   299  PRO299      0.0939
     46  N         15.1230  -49.7060   -7.0700 N.am  300  LEU300     -0.1978
     47  CA        15.0710  -48.8480   -5.8670 C.3   300  LEU300      0.1596
     48  C         13.7200  -48.1320   -5.7280 C.2   300  LEU300      0.2287
     49  O         13.1600  -47.6500   -6.7170 O.2   300  LEU300     -0.2864
     50  CB        16.1890  -47.7980   -5.8650 C.3   300  LEU300      0.0297
     51  CG        17.5910  -48.1240   -6.3950 C.3   300  LEU300      0.0022
     52  CD1       18.2690  -46.8130   -6.7550 C.3   300  LEU300      0.0001
     53  CD2       18.4440  -48.9100   -5.4020 C.3   300  LEU300      0.0001
     54  N         18.8480  -44.6140    0.3980 N.3   307  LEU307     -0.1245
     55  CA        20.0230  -45.3580   -0.0390 C.3   307  LEU307      0.1561
     56  C         21.0680  -45.5180    1.0760 C.2   307  LEU307      0.2260
     57  O         21.2250  -44.6310    1.9250 O.2   307  LEU307     -0.2867
     58  CB        20.6620  -44.6470   -1.2450 C.3   307  LEU307      0.0270
     59  CG        19.7650  -44.4880   -2.4740 C.3   307  LEU307      0.0019
     60  CD1       20.3150  -43.4590   -3.4310 C.3   307  LEU307      0.0001
     61  CD2       19.6990  -45.8400   -3.1580 C.3   307  LEU307      0.0001
     62  N         26.0730  -47.7320   -1.3210 N.3   311  THR311     -0.1203
     63  CA        25.4290  -47.6090   -2.6050 C.3   311  THR311      0.1994
     64  C         25.8880  -46.3150   -3.2780 C.2   311  THR311      0.2617
     65  O         26.2080  -46.3230   -4.4640 O.2   311  THR311     -0.2717
     66  CB        23.8820  -47.6870   -2.5060 C.3   311  THR311      0.1784
     67  OG1       23.4900  -48.9550   -1.9490 O.3   311  THR311     -0.2211
     68  CG2       23.2770  -47.5900   -3.8690 C.3   311  THR311      0.0376
     69  N         25.9260  -45.2140   -2.5250 N.am  312  TYR312     -0.1975
     70  CA        26.5360  -43.9740   -3.0020 C.3   312  TYR312      0.1639
     71  C         28.0240  -44.2030   -3.3480 C.2   312  TYR312      0.2290
     72  O         28.5200  -43.6890   -4.3490 O.2   312  TYR312     -0.2864
     73  CB        26.4310  -42.8690   -1.9470 C.3   312  TYR312      0.0560
     74  CG        25.0300  -42.3080   -1.6670 C.ar  312  TYR312     -0.0198
     75  CD1       24.3860  -41.4610   -2.5750 C.ar  312  TYR312     -0.0009
     76  CD2       24.3710  -42.6010   -0.4650 C.ar  312  TYR312     -0.0009
     77  CE1       23.1130  -40.9380   -2.3050 C.ar  312  TYR312      0.0417
     78  CE2       23.1120  -42.0960   -0.1920 C.ar  312  TYR312      0.0417
     79  CZ        22.4870  -41.2600   -1.0980 C.ar  312  TYR312      0.1957
     80  OH        21.2230  -40.7780   -0.7890 O.3   312  TYR312     -0.2866
     81  N         29.6200  -46.9790   -4.4490 N.3   314  VAL314     -0.1231
     82  CA        29.8450  -47.7070   -5.7010 C.3   314  VAL314      0.1692
     83  C         29.6480  -46.8110   -6.9290 C.2   314  VAL314      0.2592
     84  O         30.4560  -46.8340   -7.8400 O.2   314  VAL314     -0.2718
     85  CB        28.9660  -48.9740   -5.8080 C.3   314  VAL314      0.0266
     86  CG1       29.1870  -49.6550   -7.1390 C.3   314  VAL314      0.0020
     87  CG2       29.2960  -49.9550   -4.7000 C.3   314  VAL314      0.0020
     88  N         28.5900  -46.0050   -6.9340 N.am  315  PHE315     -0.1962
     89  CA        28.2630  -45.2150   -8.1020 C.3   315  PHE315      0.1771
     90  C         29.0460  -43.9120   -8.2250 C.2   315  PHE315      0.2619
     91  O         29.1600  -43.3580   -9.3210 O.2   315  PHE315     -0.2715
     92  CB        26.7650  -44.9530   -8.1440 C.3   315  PHE315      0.0574
     93  CG        25.9540  -46.1910   -8.3920 C.ar  315  PHE315     -0.0200
     94  CD1       26.1210  -46.9160   -9.5710 C.ar  315  PHE315     -0.0042
     95  CD2       25.0320  -46.6300   -7.4520 C.ar  315  PHE315     -0.0042
     96  CE1       25.3860  -48.0610   -9.7990 C.ar  315  PHE315     -0.0003
     97  CE2       24.2910  -47.7860   -7.6610 C.ar  315  PHE315     -0.0003
     98  CZ        24.4560  -48.4940   -8.8410 C.ar  315  PHE315     -0.0000
     99  N         29.5760  -43.4170   -7.1090 N.am  316  GLU316     -0.1977
    100  CA        30.4310  -42.2210   -7.1260 C.3   316  GLU316      0.1602
    101  C         31.6850  -42.4920   -7.9670 C.2   316  GLU316      0.2287
    102  O         32.3450  -41.5770   -8.4080 O.2   316  GLU316     -0.2864
    103  CB        30.7810  -41.7760   -5.6890 C.3   316  GLU316      0.0415
    104  CG        29.7010  -40.9130   -5.0570 C.3   316  GLU316      0.1163
    105  CD        29.6920  -40.9520   -3.5360 C.2   316  GLU316      0.3649
    106  OE1       30.5960  -41.5680   -2.9390 O.co2 316  GLU316     -0.2457
    107  OE2       28.7670  -40.3590   -2.9350 O.co2 316  GLU316     -0.2457
    108  N         29.7720  -40.2400  -15.7740 N.3   321  LYS321     -0.1231
    109  CA        28.5120  -39.5680  -15.4590 C.3   321  LYS321      0.1693
    110  C         28.7330  -38.1570  -14.9250 C.2   321  LYS321      0.2592
    111  O         28.0400  -37.2020  -15.3360 O.2   321  LYS321     -0.2718
    112  CB        27.6550  -40.3930  -14.4810 C.3   321  LYS321      0.0285
    113  CG        26.2030  -39.9330  -14.3700 C.3   321  LYS321      0.0035
    114  CD        25.5070  -40.5760  -13.1730 C.3   321  LYS321      0.0206
    115  CE        25.3990  -39.6050  -12.0060 C.3   321  LYS321      0.1093
    116  NZ        25.0680  -40.2380  -10.6940 N.3   321  LYS321     -0.1314
    117  N         29.6800  -38.0320  -14.0060 N.am  322  TYR322     -0.1976
    118  CA        29.9090  -36.7530  -13.3490 C.3   322  TYR322      0.1639
    119  C         30.6690  -35.7640  -14.2550 C.2   322  TYR322      0.2290
    120  O         30.3050  -34.5790  -14.3360 O.2   322  TYR322     -0.2864
    121  CB        30.6210  -36.9560  -12.0050 C.3   322  TYR322      0.0560
    122  CG        29.8560  -37.8550  -11.0540 C.ar  322  TYR322     -0.0198
    123  CD1       28.7200  -37.3920  -10.3860 C.ar  322  TYR322     -0.0009
    124  CD2       30.2590  -39.1740  -10.8390 C.ar  322  TYR322     -0.0009
    125  CE1       28.0130  -38.2160   -9.5290 C.ar  322  TYR322      0.0417
    126  CE2       29.5650  -39.9970   -9.9750 C.ar  322  TYR322      0.0417
    127  CZ        28.4350  -39.5130   -9.3310 C.ar  322  TYR322      0.1957
    128  OH        27.7390  -40.3270   -8.4780 O.3   322  TYR322     -0.2866
    129  N         20.3420  -35.6480  -10.6610 N.3   423  GLU423     -0.1245
    130  CA        20.2550  -36.9470  -11.2860 C.3   423  GLU423      0.1567
    131  C         19.3320  -37.9100  -10.5100 C.2   423  GLU423      0.2260
    132  O         19.7070  -38.5980   -9.5420 O.2   423  GLU423     -0.2867
    133  CB        21.6130  -37.4820  -11.7510 C.3   423  GLU423      0.0388
    134  CG        22.3190  -38.4560  -10.8660 C.3   423  GLU423      0.1160
    135  CD        21.8190  -39.8770  -11.0150 C.2   423  GLU423      0.3649
    136  OE1       22.4170  -40.7260  -10.3590 O.co2 423  GLU423     -0.2457
    137  OE2       20.8110  -40.1510  -11.7080 O.co2 423  GLU423     -0.2457
    138  N         17.3650  -40.3520  -11.9960 N.3   425  LEU425     -0.1231
    139  CA        17.0090  -41.1750  -13.1340 C.3   425  LEU425      0.1693
    140  C         17.2520  -42.6510  -12.8820 C.2   425  LEU425      0.2593
    141  O         18.2760  -43.0300  -12.3300 O.2   425  LEU425     -0.2718
    142  CB        17.8160  -40.7370  -14.3630 C.3   425  LEU425      0.0284
    143  CG        17.6430  -39.3310  -14.9510 C.3   425  LEU425      0.0019
    144  CD1       18.2760  -39.3180  -16.3300 C.3   425  LEU425      0.0001
    145  CD2       16.1770  -38.9230  -15.0620 C.3   425  LEU425      0.0001
    146  N         16.3090  -43.4830  -13.3170 N.am  426  GLY426     -0.1942
    147  CA        16.4670  -44.9390  -13.2380 C.3   426  GLY426      0.2014
    148  C         16.6430  -45.4510  -14.6460 C.2   426  GLY426      0.2639
    149  O         16.7420  -44.6610  -15.5820 O.2   426  GLY426     -0.2714
    150  N         16.6720  -46.7650  -14.8080 N.am  427  SER427     -0.1949
    151  CA        17.0760  -47.3440  -16.0700 C.3   427  SER427      0.1924
    152  C         16.0280  -47.1400  -17.1480 C.2   427  SER427      0.2314
    153  O         16.3350  -47.2980  -18.3470 O.2   427  SER427     -0.2863
    154  CB        17.4340  -48.8280  -15.9320 C.3   427  SER427      0.2116
    155  OG        18.1320  -49.0800  -14.7260 O.3   427  SER427     -0.2180
    156  N         11.6030  -43.7300  -13.9730 N.3   431  ASN431     -0.1225
    157  CA        11.0760  -44.7020  -13.0380 C.3   431  ASN431      0.1785
    158  C         11.5330  -44.4630  -11.6120 C.2   431  ASN431      0.2597
    159  O         11.3310  -45.2780  -10.7270 O.2   431  ASN431     -0.2718
    160  CB        11.2910  -46.1550  -13.5260 C.3   431  ASN431      0.1169
    161  CG        12.7650  -46.5370  -13.6160 C.2   431  ASN431      0.2627
    162  OD1       13.5520  -45.8800  -14.3150 O.2   431  ASN431     -0.2716
    163  ND2       13.1390  -47.6190  -12.9220 N.am  431  ASN431     -0.0877
    164  N         12.0870  -43.2950  -11.3570 N.am  432  GLU432     -0.1979
    165  CA        12.3690  -42.9290   -9.9710 C.3   432  GLU432      0.1602
    166  C         11.6460  -41.6550   -9.6320 C.2   432  GLU432      0.2287
    167  O         11.8970  -41.0480   -8.6050 O.2   432  GLU432     -0.2864
    168  CB        13.8930  -42.8340   -9.6780 C.3   432  GLU432      0.0415
    169  CG        14.5810  -44.2160   -9.6700 C.3   432  GLU432      0.1163
    170  CD        16.0950  -44.1640   -9.3040 C.2   432  GLU432      0.3649
    171  OE1       16.6140  -43.1120   -8.8780 O.co2 432  GLU432     -0.2457
    172  OE2       16.7890  -45.1790   -9.4570 O.co2 432  GLU432     -0.2457
    173  N         15.7930  -54.4760  -12.6910 N.3   491  VAL491     -0.1245
    174  CA        17.0870  -53.9800  -13.1660 C.3   491  VAL491      0.1561
    175  C         17.9840  -55.1910  -13.3230 C.2   491  VAL491      0.2260
    176  O         18.2020  -55.9150  -12.3780 O.2   491  VAL491     -0.2867
    177  CB        17.7370  -53.0170  -12.1650 C.3   491  VAL491      0.0252
    178  CG1       19.1690  -52.6800  -12.6000 C.3   491  VAL491      0.0019
    179  CG2       16.9070  -51.7560  -12.0700 C.3   491  VAL491      0.0019
    180  N         26.7410  -46.9370  -14.3420 N.3   566  SER566     -0.1202
    181  CA        25.8160  -46.5270  -13.3150 C.3   566  SER566      0.2020
    182  C         24.3950  -47.1110  -13.4630 C.2   566  SER566      0.2619
    183  O         23.6980  -47.2270  -12.4740 O.2   566  SER566     -0.2717
    184  CB        25.7690  -45.0140  -13.2620 C.3   566  SER566      0.2103
    185  OG        26.6500  -44.5470  -12.2730 O.3   566  SER566     -0.2182
    186  N         23.9940  -47.4850  -14.6810 N.am  567  TRP567     -0.1961
    187  CA        22.6930  -48.1330  -14.9260 C.3   567  TRP567      0.1771
    188  C         22.7330  -49.4120  -15.7690 C.2   567  TRP567      0.2619
    189  O         23.1300  -49.3980  -16.9160 O.2   567  TRP567     -0.2715
    190  CB        21.7510  -47.1850  -15.6410 C.3   567  TRP567      0.0590
    191  CG        21.4300  -45.9420  -14.9020 C.ar  567  TRP567      0.0006
    192  CD1       20.4550  -45.7750  -13.9560 C.ar  567  TRP567      0.0946
    193  CD2       22.0380  -44.6620  -15.0840 C.ar  567  TRP567      0.0152
    194  NE1       20.4440  -44.4720  -13.5200 N.ar  567  TRP567     -0.2442
    195  CE2       21.4050  -43.7700  -14.1990 C.ar  567  TRP567      0.0810
    196  CE3       23.0900  -44.1920  -15.8750 C.ar  567  TRP567      0.0012
    197  CZ2       21.7700  -42.4270  -14.1080 C.ar  567  TRP567      0.0191
    198  CZ3       23.4500  -42.8610  -15.7850 C.ar  567  TRP567      0.0001
    199  CH2       22.7980  -41.9970  -14.9110 C.ar  567  TRP567      0.0015
    200  N         22.2620  -50.5230  -15.2260 N.am  568  PHE568     -0.1974
    201  CA        21.9530  -51.6420  -16.1100 C.3   568  PHE568      0.1639
    202  C         20.5830  -51.4070  -16.7590 C.2   568  PHE568      0.2290
    203  O         19.8240  -50.5470  -16.2860 O.2   568  PHE568     -0.2864
    204  CB        21.9460  -52.9420  -15.3170 C.3   568  PHE568      0.0560
    205  CG        23.2860  -53.3250  -14.7480 C.ar  568  PHE568     -0.0200
    206  CD1       24.4650  -53.0760  -15.4560 C.ar  568  PHE568     -0.0042
    207  CD2       23.3610  -53.9760  -13.5060 C.ar  568  PHE568     -0.0042
    208  CE1       25.6950  -53.4690  -14.9170 C.ar  568  PHE568     -0.0003
    209  CE2       24.5770  -54.3460  -12.9700 C.ar  568  PHE568     -0.0003
    210  CZ        25.7550  -54.0870  -13.6780 C.ar  568  PHE568     -0.0000
@<TRIPOS>BOND
     1   153   152    2
     2   152   151    1
     3   189   188    2
     4   202   203    2
     5   202   201    1
     6   144   143    1
     7   201   204    1
     8   201   200    1
     9   151   154    1
    10   151   150    1
    11   154   155    1
    12   196   198   ar
    13   196   193   ar
    14   198   199   ar
    15   108   109    1
    16   188   200   am
    17   188   187    1
    18   190   187    1
    19   190   191    1
    20   149   148    2
    21   109   110    1
    22   109   112    1
    23   206   208   ar
    24   206   205   ar
    25   111   110    2
    26   204   205    1
    27   193   191   ar
    28   193   195   ar
    29   145   143    1
    30   143   142    1
    31   187   186    1
    32   110   117   am
    33   208   210   ar
    34   199   197   ar
    35   191   192   ar
    36   150   148   am
    37   205   207   ar
    38   186   182   am
    39   148   147    1
    40   112   113    1
    41   113   114    1
    42   142   139    1
    43   180   181    1
    44   120   119    2
    45     1     2    1
    46   162   161    2
    47   119   118    1
    48   195   197   ar
    49   195   194   ar
    50   117   118    1
    51   156   157    1
    52   192   194   ar
    53    15    14    2
    54   210   209   ar
    55    14    13    1
    56   161   160    1
    57   161   163   am
    58   160   157    1
    59   207   209   ar
    60   182   181    1
    61   182   183    2
    62     5     2    1
    63     5     6    1
    64   118   121    1
    65   175   174    1
    66   175   176    2
    67   146   147    1
    68   146   140   am
    69   181   184    1
    70     2     3    1
    71   184   185    1
    72     3     4    2
    73   114   115    1
    74   174   173    1
    75   174   177    1
    76   139   140    1
    77   139   138    1
    78   157   158    1
    79   140   141    2
    80     8     6   ar
    81     8    10   ar
    82   178   177    1
    83    12    13    1
    84     6     7   ar
    85    13    16    1
    86    16    17    1
    87   177   179    1
    88   115   116    1
    89   121   122    1
    90    10    11   ar
    91   133   130    1
    92   133   134    1
    93   137   135   ar
    94   158   164   am
    95   158   159    2
    96   164   165    1
    97     7     9   ar
    98   130   129    1
    99   130   131    1
   100   122   124   ar
   101   122   123   ar
   102   135   134    1
   103   135   136   ar
   104    17    19   ar
   105    17    18   ar
   106   124   126   ar
   107    19    21   ar
   108    11     9   ar
   109   131   132    2
   110    44    43    1
   111    44    45    1
   112   123   125   ar
   113    24    25    1
   114    27    26    2
   115   126   127   ar
   116   165   168    1
   117   165   166    1
   118    18    20   ar
   119    96    94   ar
   120    96    98   ar
   121    43    40    1
   122   168   169    1
   123   169   170    1
   124   166   167    2
   125    31    30    2
   126    94    93   ar
   127   125   127   ar
   128    21    22   ar
   129   172   170   ar
   130    45    39    1
   131   127   128    1
   132    91    90    2
   133   170   171   ar
   134    26    25    1
   135    26    33   am
   136    25    28    1
   137    28    29    1
   138    98    97   ar
   139    20    22   ar
   140    40    39    1
   141    40    41    1
   142    39    35   am
   143    22    23    1
   144   102   101    2
   145    93    92    1
   146    93    95   ar
   147    30    29    1
   148    30    32   am
   149    90    89    1
   150    90    99   am
   151    92    89    1
   152    89    88    1
   153   101   100    1
   154    84    83    2
   155    33    34    1
   156    35    34    1
   157    35    36    2
   158    97    95   ar
   159    34    37    1
   160    41    46   am
   161    41    42    2
   162    86    85    1
   163   100    99    1
   164   100   103    1
   165    46    47    1
   166    88    83   am
   167    83    82    1
   168    52    51    1
   169    49    48    2
   170    51    50    1
   171    51    53    1
   172    37    38    1
   173    47    50    1
   174    47    48    1
   175    85    82    1
   176    85    87    1
   177    82    81    1
   178   103   104    1
   179   104   105    1
   180    65    64    2
   181    72    71    2
   182    68    66    1
   183   105   106   ar
   184   105   107   ar
   185    60    59    1
   186    71    70    1
   187    64    63    1
   188    64    69   am
   189    61    59    1
   190    70    69    1
   191    70    73    1
   192    63    66    1
   193    63    62    1
   194    75    77   ar
   195    75    74   ar
   196    66    67    1
   197    59    58    1
   198    77    79   ar
   199    73    74    1
   200    74    76   ar
   201    58    55    1
   202    79    80    1
   203    79    78   ar
   204    76    78   ar
   205    55    54    1
   206    55    56    1
   207    56    57    2
