@<TRIPOS>MOLECULE
tmp/5emkA01.pdb
 228 226 0 0 0
SMALL
GASTEIGER

@<TRIPOS>ATOM
      1  N         33.2560  -53.7590  -14.2830 N.3   288  PHE288     -0.1241
      2  CA        32.2630  -53.4270  -13.2560 C.3   288  PHE288      0.1605
      3  C         31.0790  -54.4000  -13.2480 C.2   288  PHE288      0.2264
      4  O         30.6600  -54.8480  -12.1980 O.2   288  PHE288     -0.2867
      5  CB        31.7330  -52.0030  -13.4300 C.3   288  PHE288      0.0534
      6  CG        30.6720  -51.6250  -12.4300 C.ar  288  PHE288     -0.0203
      7  CD1       31.0200  -51.0920  -11.1920 C.ar  288  PHE288     -0.0042
      8  CD2       29.3170  -51.8060  -12.7180 C.ar  288  PHE288     -0.0042
      9  CE1       30.0440  -50.7470  -10.2680 C.ar  288  PHE288     -0.0003
     10  CE2       28.3350  -51.4590  -11.7940 C.ar  288  PHE288     -0.0003
     11  CZ        28.7010  -50.9310  -10.5670 C.ar  288  PHE288     -0.0000
     12  N         27.2560  -59.3870  -12.2540 N.3   292  TYR292     -0.1241
     13  CA        25.8560  -58.9310  -12.2530 C.3   292  TYR292      0.1605
     14  C         25.0180  -59.4570  -13.4020 C.2   292  TYR292      0.2264
     15  O         23.8220  -59.1860  -13.4640 O.2   292  TYR292     -0.2867
     16  CB        25.7670  -57.3910  -12.2320 C.3   292  TYR292      0.0534
     17  CG        26.1760  -56.8010  -10.9130 C.ar  292  TYR292     -0.0201
     18  CD1       25.2750  -56.7340   -9.8470 C.ar  292  TYR292     -0.0009
     19  CD2       27.4810  -56.3430  -10.7140 C.ar  292  TYR292     -0.0009
     20  CE1       25.6590  -56.2220   -8.6210 C.ar  292  TYR292      0.0417
     21  CE2       27.8770  -55.8270   -9.4950 C.ar  292  TYR292      0.0417
     22  CZ        26.9680  -55.7690   -8.4510 C.ar  292  TYR292      0.1957
     23  OH        27.3690  -55.2480   -7.2420 O.3   292  TYR292     -0.2866
     24  N         17.3780  -57.2280   -9.8880 N.3   297  GLN297     -0.1231
     25  CA        17.2740  -56.4280   -8.6710 C.3   297  GLN297      0.1698
     26  C         16.0530  -55.5180   -8.7350 C.2   297  GLN297      0.2593
     27  O         15.6220  -55.1170   -9.8190 O.2   297  GLN297     -0.2718
     28  CB        18.5450  -55.6030   -8.4920 C.3   297  GLN297      0.0381
     29  CG        19.7370  -56.4780   -8.1260 C.3   297  GLN297      0.0905
     30  CD        21.0840  -55.7980   -8.2730 C.2   297  GLN297      0.2608
     31  OE1       21.5510  -55.5250   -9.3900 O.2   297  GLN297     -0.2717
     32  NE2       21.7310  -55.5480   -7.1440 N.am  297  GLN297     -0.0878
     33  N         15.4800  -55.2100   -7.5840 N.am  298  SER298     -0.1939
     34  CA        14.4330  -54.1990   -7.5240 C.3   298  SER298      0.2040
     35  C         15.0170  -52.8570   -7.9300 C.2   298  SER298      0.2485
     36  O         16.1640  -52.5370   -7.5580 O.2   298  SER298     -0.2729
     37  CB        13.9400  -54.0530   -6.1060 C.3   298  SER298      0.2129
     38  OG        13.9530  -55.2960   -5.4660 O.3   298  SER298     -0.2179
     39  N         14.2600  -52.0540   -8.6960 N.am  299  PRO299     -0.2715
     40  CA        14.8020  -50.7100   -8.8560 C.3   299  PRO299      0.1536
     41  C         14.7840  -49.9730   -7.5140 C.2   299  PRO299      0.2598
     42  O         13.9120  -50.2170   -6.6920 O.2   299  PRO299     -0.2715
     43  CB        13.8540  -50.0550   -9.8690 C.3   299  PRO299      0.0310
     44  CG        13.1630  -51.1940  -10.5540 C.3   299  PRO299      0.0237
     45  CD        13.0380  -52.2580   -9.4980 C.3   299  PRO299      0.0939
     46  N         15.7720  -49.1190   -7.2820 N.am  300  LEU300     -0.1978
     47  CA        15.7990  -48.2850   -6.0900 C.3   300  LEU300      0.1596
     48  C         14.6900  -47.2380   -6.1590 C.2   300  LEU300      0.2287
     49  O         14.2650  -46.8340   -7.2510 O.2   300  LEU300     -0.2864
     50  CB        17.1750  -47.6100   -5.9440 C.3   300  LEU300      0.0297
     51  CG        18.4020  -48.5260   -5.7300 C.3   300  LEU300      0.0022
     52  CD1       19.7230  -47.8190   -6.0690 C.3   300  LEU300      0.0001
     53  CD2       18.4300  -49.1010   -4.3080 C.3   300  LEU300      0.0001
     54  N         14.7000  -43.8500   -4.3360 N.3   302  PRO302     -0.2116
     55  CA        15.4150  -42.9410   -3.4330 C.3   302  PRO302      0.1372
     56  C         14.4760  -41.8890   -2.8830 C.2   302  PRO302      0.2244
     57  O         14.7570  -41.3160   -1.8330 O.2   302  PRO302     -0.2868
     58  CB        16.4730  -42.2910   -4.3350 C.3   302  PRO302      0.0268
     59  CG        16.5280  -43.1360   -5.5610 C.3   302  PRO302      0.0207
     60  CD        15.1190  -43.6280   -5.7300 C.3   302  PRO302      0.0892
     61  N         18.7420  -43.9870    0.5020 N.3   307  LEU307     -0.1245
     62  CA        19.9030  -44.6960   -0.0190 C.3   307  LEU307      0.1561
     63  C         20.9680  -44.9090    1.0600 C.2   307  LEU307      0.2260
     64  O         21.1990  -44.0290    1.8770 O.2   307  LEU307     -0.2867
     65  CB        20.4720  -43.9380   -1.2130 C.3   307  LEU307      0.0270
     66  CG        19.6810  -44.1410   -2.4970 C.3   307  LEU307      0.0019
     67  CD1       20.2230  -43.2260   -3.5580 C.3   307  LEU307      0.0001
     68  CD2       19.8270  -45.5640   -2.9730 C.3   307  LEU307      0.0001
     69  N         25.9650  -47.1960   -1.3000 N.3   311  THR311     -0.1203
     70  CA        25.3370  -47.0950   -2.5820 C.3   311  THR311      0.1994
     71  C         25.8210  -45.8310   -3.2670 C.2   311  THR311      0.2617
     72  O         26.3140  -45.8790   -4.4020 O.2   311  THR311     -0.2717
     73  CB        23.7950  -47.1240   -2.4330 C.3   311  THR311      0.1784
     74  OG1       23.4170  -48.4200   -1.9590 O.3   311  THR311     -0.2211
     75  CG2       23.1240  -46.8980   -3.7550 C.3   311  THR311      0.0376
     76  N         25.6580  -44.7000   -2.5800 N.am  312  TYR312     -0.1975
     77  CA        26.2850  -43.4520   -2.9760 C.3   312  TYR312      0.1639
     78  C         27.7660  -43.7070   -3.3190 C.2   312  TYR312      0.2290
     79  O         28.2530  -43.2300   -4.3290 O.2   312  TYR312     -0.2864
     80  CB        26.1860  -42.4320   -1.8440 C.3   312  TYR312      0.0560
     81  CG        24.8230  -41.8030   -1.6260 C.ar  312  TYR312     -0.0198
     82  CD1       24.2350  -40.9960   -2.6120 C.ar  312  TYR312     -0.0009
     83  CD2       24.1230  -41.9960   -0.4280 C.ar  312  TYR312     -0.0009
     84  CE1       22.9880  -40.4240   -2.4200 C.ar  312  TYR312      0.0417
     85  CE2       22.8820  -41.4050   -0.2140 C.ar  312  TYR312      0.0417
     86  CZ        22.3170  -40.6260   -1.2170 C.ar  312  TYR312      0.1957
     87  OH        21.0630  -40.0560   -1.0420 O.3   312  TYR312     -0.2866
     88  N         29.3650  -46.4410   -4.4310 N.3   314  VAL314     -0.1231
     89  CA        29.6760  -47.2500   -5.6250 C.3   314  VAL314      0.1692
     90  C         29.5470  -46.3970   -6.8710 C.2   314  VAL314      0.2592
     91  O         30.4250  -46.3940   -7.7270 O.2   314  VAL314     -0.2718
     92  CB        28.8140  -48.5360   -5.7310 C.3   314  VAL314      0.0266
     93  CG1       28.9990  -49.2040   -7.0750 C.3   314  VAL314      0.0020
     94  CG2       29.1910  -49.5250   -4.6370 C.3   314  VAL314      0.0020
     95  N         28.4610  -45.6430   -6.9300 N.am  315  PHE315     -0.1962
     96  CA        28.1120  -44.8570   -8.0900 C.3   315  PHE315      0.1771
     97  C         28.8820  -43.5470   -8.2100 C.2   315  PHE315      0.2619
     98  O         28.9970  -42.9800   -9.2960 O.2   315  PHE315     -0.2715
     99  CB        26.6160  -44.5810   -8.0500 C.3   315  PHE315      0.0574
    100  CG        25.7930  -45.8050   -8.1980 C.ar  315  PHE315     -0.0200
    101  CD1       25.9830  -46.6460   -9.2840 C.ar  315  PHE315     -0.0042
    102  CD2       24.8270  -46.1280   -7.2500 C.ar  315  PHE315     -0.0042
    103  CE1       25.2170  -47.7950   -9.4200 C.ar  315  PHE315     -0.0003
    104  CE2       24.0560  -47.2790   -7.3770 C.ar  315  PHE315     -0.0003
    105  CZ        24.2590  -48.1120   -8.4580 C.ar  315  PHE315     -0.0000
    106  N         29.3630  -43.0330   -7.0880 N.am  316  GLU316     -0.1977
    107  CA        30.2510  -41.8670   -7.1040 C.3   316  GLU316      0.1602
    108  C         31.5180  -42.1710   -7.9310 C.2   316  GLU316      0.2287
    109  O         32.1400  -41.2780   -8.4880 O.2   316  GLU316     -0.2864
    110  CB        30.5840  -41.4350   -5.6700 C.3   316  GLU316      0.0415
    111  CG        29.5910  -40.4180   -5.1350 C.3   316  GLU316      0.1163
    112  CD        29.4890  -40.3600   -3.6140 C.2   316  GLU316      0.3649
    113  OE1       30.4010  -40.8520   -2.9140 O.co2 316  GLU316     -0.2457
    114  OE2       28.4680  -39.8170   -3.1060 O.co2 316  GLU316     -0.2457
    115  N         29.6800  -39.8730  -15.6870 N.3   321  LYS321     -0.1231
    116  CA        28.4660  -39.1270  -15.3270 C.3   321  LYS321      0.1693
    117  C         28.7990  -37.7330  -14.8050 C.2   321  LYS321      0.2592
    118  O         28.1200  -36.7620  -15.1280 O.2   321  LYS321     -0.2718
    119  CB        27.6350  -39.8930  -14.2900 C.3   321  LYS321      0.0285
    120  CG        26.1740  -39.4410  -14.1630 C.3   321  LYS321      0.0035
    121  CD        25.5310  -40.0770  -12.9390 C.3   321  LYS321      0.0206
    122  CE        25.4360  -39.0790  -11.7980 C.3   321  LYS321      0.1093
    123  NZ        25.2500  -39.7280  -10.4710 N.3   321  LYS321     -0.1314
    124  N         29.8590  -37.6420  -14.0090 N.am  322  TYR322     -0.1976
    125  CA        30.1490  -36.4150  -13.2960 C.3   322  TYR322      0.1639
    126  C         30.8460  -35.4000  -14.1760 C.2   322  TYR322      0.2290
    127  O         30.4620  -34.2260  -14.2100 O.2   322  TYR322     -0.2864
    128  CB        30.9070  -36.7090  -12.0000 C.3   322  TYR322      0.0560
    129  CG        30.0360  -37.4770  -11.0330 C.ar  322  TYR322     -0.0198
    130  CD1       28.8500  -36.9060  -10.5360 C.ar  322  TYR322     -0.0009
    131  CD2       30.3450  -38.7930  -10.6610 C.ar  322  TYR322     -0.0009
    132  CE1       28.0140  -37.6080   -9.6760 C.ar  322  TYR322      0.0417
    133  CE2       29.5130  -39.5030   -9.7940 C.ar  322  TYR322      0.0417
    134  CZ        28.3430  -38.9020   -9.3160 C.ar  322  TYR322      0.1957
    135  OH        27.5180  -39.5670   -8.4480 O.3   322  TYR322     -0.2866
    136  N         20.2680  -35.1030  -10.7200 N.3   423  GLU423     -0.1245
    137  CA        20.2110  -36.3930  -11.3890 C.3   423  GLU423      0.1567
    138  C         19.2650  -37.3450  -10.5990 C.2   423  GLU423      0.2260
    139  O         19.6390  -37.9990   -9.6160 O.2   423  GLU423     -0.2867
    140  CB        21.6250  -36.9240  -11.7220 C.3   423  GLU423      0.0388
    141  CG        22.1950  -38.0140  -10.8400 C.3   423  GLU423      0.1160
    142  CD        21.6290  -39.4060  -11.1290 C.2   423  GLU423      0.3649
    143  OE1       22.4340  -40.3500  -10.9590 O.co2 423  GLU423     -0.2457
    144  OE2       20.4010  -39.5680  -11.4900 O.co2 423  GLU423     -0.2457
    145  N         17.1890  -39.8710  -11.9790 N.3   425  LEU425     -0.1231
    146  CA        16.8060  -40.7190  -13.0760 C.3   425  LEU425      0.1693
    147  C         17.1330  -42.1420  -12.7610 C.2   425  LEU425      0.2593
    148  O         18.1720  -42.4270  -12.1790 O.2   425  LEU425     -0.2718
    149  CB        17.5680  -40.3370  -14.3390 C.3   425  LEU425      0.0284
    150  CG        17.5330  -38.8770  -14.7960 C.3   425  LEU425      0.0019
    151  CD1       18.4310  -38.7250  -16.0110 C.3   425  LEU425      0.0001
    152  CD2       16.1080  -38.3810  -15.0790 C.3   425  LEU425      0.0001
    153  N         16.2420  -43.0350  -13.1750 N.am  426  GLY426     -0.1942
    154  CA        16.4460  -44.4740  -13.0480 C.3   426  GLY426      0.2014
    155  C         16.6210  -45.0670  -14.4210 C.2   426  GLY426      0.2639
    156  O         16.7120  -44.3410  -15.3870 O.2   426  GLY426     -0.2714
    157  N         16.6360  -46.3850  -14.5310 N.am  427  SER427     -0.1949
    158  CA        17.0470  -46.9880  -15.7890 C.3   427  SER427      0.1924
    159  C         16.0680  -46.7480  -16.9070 C.2   427  SER427      0.2314
    160  O         16.4160  -46.9090  -18.0500 O.2   427  SER427     -0.2863
    161  CB        17.3330  -48.4660  -15.6000 C.3   427  SER427      0.2116
    162  OG        18.2870  -48.6490  -14.5590 O.3   427  SER427     -0.2180
    163  N         11.4640  -43.2650  -13.8520 N.3   431  ASN431     -0.1225
    164  CA        10.9770  -44.2760  -12.9310 C.3   431  ASN431      0.1785
    165  C         11.3640  -44.0320  -11.4740 C.2   431  ASN431      0.2597
    166  O         11.0960  -44.8500  -10.6010 O.2   431  ASN431     -0.2718
    167  CB        11.3350  -45.6890  -13.4170 C.3   431  ASN431      0.1169
    168  CG        12.8520  -45.9640  -13.4610 C.2   431  ASN431      0.2627
    169  OD1       13.5910  -45.3850  -14.2640 O.2   431  ASN431     -0.2716
    170  ND2       13.2990  -46.9150  -12.6460 N.am  431  ASN431     -0.0877
    171  N         11.9870  -42.8850  -11.2180 N.am  432  GLU432     -0.1979
    172  CA        12.3740  -42.4630   -9.8690 C.3   432  GLU432      0.1602
    173  C         11.6230  -41.1960   -9.5480 C.2   432  GLU432      0.2287
    174  O         11.7510  -40.6440   -8.4720 O.2   432  GLU432     -0.2864
    175  CB        13.9060  -42.2970   -9.7040 C.3   432  GLU432      0.0415
    176  CG        14.6070  -43.6560   -9.6090 C.3   432  GLU432      0.1163
    177  CD        16.1020  -43.6130   -9.2430 C.2   432  GLU432      0.3649
    178  OE1       16.6230  -42.5560   -8.8300 O.co2 432  GLU432     -0.2457
    179  OE2       16.7750  -44.6640   -9.3620 O.co2 432  GLU432     -0.2457
    180  N         15.7800  -54.1010  -12.4810 N.3   491  VAL491     -0.1245
    181  CA        17.0670  -53.5730  -13.0240 C.3   491  VAL491      0.1561
    182  C         17.9800  -54.7750  -13.1870 C.2   491  VAL491      0.2260
    183  O         18.1610  -55.5620  -12.2520 O.2   491  VAL491     -0.2867
    184  CB        17.6960  -52.5170  -12.1020 C.3   491  VAL491      0.0252
    185  CG1       19.1480  -52.2360  -12.4900 C.3   491  VAL491      0.0019
    186  CG2       16.8450  -51.2440  -12.1220 C.3   491  VAL491      0.0019
    187  N         28.9150  -46.9760  -16.0770 N.3   565  PHE565     -0.1227
    188  CA        28.3180  -48.1340  -15.4170 C.3   565  PHE565      0.1736
    189  C         27.1710  -47.8350  -14.4440 C.2   565  PHE565      0.2596
    190  O         26.6120  -48.7500  -13.8670 O.2   565  PHE565     -0.2718
    191  CB        29.4030  -48.9760  -14.7250 C.3   565  PHE565      0.0547
    192  CG        30.1680  -48.2460  -13.6420 C.ar  565  PHE565     -0.0202
    193  CD1       29.5700  -47.9400  -12.4190 C.ar  565  PHE565     -0.0042
    194  CD2       31.5160  -47.9010  -13.8320 C.ar  565  PHE565     -0.0042
    195  CE1       30.2860  -47.2800  -11.4220 C.ar  565  PHE565     -0.0003
    196  CE2       32.2370  -47.2530  -12.8400 C.ar  565  PHE565     -0.0003
    197  CZ        31.6210  -46.9390  -11.6360 C.ar  565  PHE565     -0.0000
    198  N         26.8100  -46.5700  -14.2720 N.am  566  SER566     -0.1938
    199  CA        25.8380  -46.1890  -13.2560 C.3   566  SER566      0.2055
    200  C         24.4260  -46.7580  -13.3790 C.2   566  SER566      0.2643
    201  O         23.7720  -46.9640  -12.3570 O.2   566  SER566     -0.2714
    202  CB        25.7850  -44.6730  -13.0960 C.3   566  SER566      0.2130
    203  OG        27.0460  -44.1950  -12.6420 O.3   566  SER566     -0.2179
    204  N         23.9640  -47.0200  -14.6000 N.am  567  TRP567     -0.1959
    205  CA        22.6290  -47.5930  -14.8110 C.3   567  TRP567      0.1771
    206  C         22.6720  -48.8540  -15.6730 C.2   567  TRP567      0.2619
    207  O         23.2150  -48.8570  -16.7850 O.2   567  TRP567     -0.2715
    208  CB        21.7110  -46.6310  -15.5410 C.3   567  TRP567      0.0590
    209  CG        21.3410  -45.3460  -14.8750 C.ar  567  TRP567      0.0006
    210  CD1       20.2570  -45.1140  -14.0810 C.ar  567  TRP567      0.0946
    211  CD2       21.9870  -44.0890  -15.0430 C.ar  567  TRP567      0.0152
    212  NE1       20.2130  -43.7950  -13.7090 N.ar  567  TRP567     -0.2442
    213  CE2       21.2710  -43.1450  -14.2840 C.ar  567  TRP567      0.0810
    214  CE3       23.1190  -43.6710  -15.7420 C.ar  567  TRP567      0.0012
    215  CZ2       21.6550  -41.8020  -14.2010 C.ar  567  TRP567      0.0191
    216  CZ3       23.4950  -42.3350  -15.6630 C.ar  567  TRP567      0.0001
    217  CH2       22.7600  -41.4160  -14.9050 C.ar  567  TRP567      0.0015
    218  N         22.0640  -49.9240  -15.1690 N.am  568  PHE568     -0.1974
    219  CA        21.8520  -51.1180  -15.9650 C.3   568  PHE568      0.1639
    220  C         20.5050  -50.9340  -16.6480 C.2   568  PHE568      0.2290
    221  O         19.7500  -50.0490  -16.2650 O.2   568  PHE568     -0.2864
    222  CB        21.8120  -52.3440  -15.0680 C.3   568  PHE568      0.0560
    223  CG        23.1530  -52.7910  -14.5730 C.ar  568  PHE568     -0.0200
    224  CD1       24.2990  -52.5590  -15.3060 C.ar  568  PHE568     -0.0042
    225  CD2       23.2550  -53.4860  -13.3720 C.ar  568  PHE568     -0.0042
    226  CE1       25.5290  -52.9960  -14.8410 C.ar  568  PHE568     -0.0003
    227  CE2       24.4800  -53.9130  -12.8950 C.ar  568  PHE568     -0.0003
    228  CZ        25.6230  -53.6730  -13.6330 C.ar  568  PHE568     -0.0000
@<TRIPOS>BOND
     1   160   159    2
     2   159   158    1
     3   207   206    2
     4   220   221    2
     5   220   219    1
     6   187   188    1
     7   151   150    1
     8   219   218    1
     9   219   222    1
    10   158   161    1
    11   158   157    1
    12   214   216   ar
    13   214   211   ar
    14   115   116    1
    15   206   218   am
    16   206   205    1
    17   216   217   ar
    18   161   162    1
    19   208   209    1
    20   208   205    1
    21   188   191    1
    22   188   189    1
    23   156   155    2
    24   116   117    1
    25   116   119    1
    26   224   226   ar
    27   224   223   ar
    28   118   117    2
    29   152   150    1
    30   222   223    1
    31   211   209   ar
    32   211   213   ar
    33   217   215   ar
    34   209   210   ar
    35   226   228   ar
    36   205   204    1
    37   117   124   am
    38   150   149    1
    39   191   192    1
    40   204   200   am
    41   223   225   ar
    42   157   155   am
    43   189   198   am
    44   189   190    2
    45   155   154    1
    46   149   146    1
    47   119   120    1
    48   213   215   ar
    49   213   212   ar
    50     1     2    1
    51   198   199    1
    52   169   168    2
    53   127   126    2
    54   126   125    1
    55   120   121    1
    56   210   212   ar
    57   124   125    1
    58   163   164    1
    59   194   192   ar
    60   194   196   ar
    61   192   193   ar
    62   228   227   ar
    63    15    14    2
    64   168   167    1
    65   168   170   am
    66     5     2    1
    67     5     6    1
    68   167   164    1
    69    14    13    1
    70   200   199    1
    71   200   201    2
    72   225   227   ar
    73   125   128    1
    74     2     3    1
    75   199   202    1
    76     3     4    2
    77   182   181    1
    78   182   183    2
    79   153   154    1
    80   153   147   am
    81   202   203    1
    82   146   147    1
    83   146   145    1
    84   181   180    1
    85   181   184    1
    86   121   122    1
    87   164   165    1
    88   196   197   ar
    89   147   148    2
    90     8     6   ar
    91     8    10   ar
    92   185   184    1
    93     6     7   ar
    94   193   195   ar
    95    12    13    1
    96    13    16    1
    97    16    17    1
    98   186   184    1
    99   128   129    1
   100   122   123    1
   101    10    11   ar
   102   140   137    1
   103   140   141    1
   104   197   195   ar
   105   144   142   ar
   106   165   171   am
   107   165   166    2
   108   137   136    1
   109   137   138    1
   110   171   172    1
   111     7     9   ar
   112   142   143   ar
   113   142   141    1
   114   129   131   ar
   115   129   130   ar
   116    17    19   ar
   117    17    18   ar
   118    19    21   ar
   119   131   133   ar
   120   138   139    2
   121    11     9   ar
   122    44    43    1
   123    44    45    1
   124   130   132   ar
   125    24    25    1
   126    43    40    1
   127   172   175    1
   128   172   173    1
   129    18    20   ar
   130    27    26    2
   131   133   134   ar
   132   175   176    1
   133   132   134   ar
   134   176   177    1
   135   173   174    2
   136    45    39    1
   137    21    22   ar
   138   103   101   ar
   139   103   105   ar
   140    31    30    2
   141   179   177   ar
   142   134   135    1
   143    98    97    2
   144   101   100   ar
   145   177   178   ar
   146    40    39    1
   147    40    41    1
   148    26    25    1
   149    26    33   am
   150    39    35   am
   151    25    28    1
   152    20    22   ar
   153    28    29    1
   154   109   108    2
   155   105   104   ar
   156    22    23    1
   157    30    29    1
   158    30    32   am
   159    97    96    1
   160    97   106   am
   161   100    99    1
   162   100   102   ar
   163    96    99    1
   164    96    95    1
   165   108   107    1
   166    35    36    2
   167    35    34    1
   168    91    90    2
   169    33    34    1
   170    34    37    1
   171    41    46   am
   172    41    42    2
   173   104   102   ar
   174    46    47    1
   175    49    48    2
   176   107   106    1
   177   107   110    1
   178    93    92    1
   179    95    90   am
   180    90    89    1
   181    48    47    1
   182    37    38    1
   183    47    50    1
   184    52    51    1
   185    50    51    1
   186    92    89    1
   187    92    94    1
   188    51    53    1
   189    60    59    1
   190    60    54    1
   191   110   111    1
   192    89    88    1
   193    59    58    1
   194   111   112    1
   195    72    71    2
   196    54    55    1
   197    58    55    1
   198    79    78    2
   199    75    73    1
   200   112   114   ar
   201   112   113   ar
   202    67    66    1
   203    55    56    1
   204    78    77    1
   205    71    70    1
   206    71    76   am
   207    77    76    1
   208    77    80    1
   209    68    66    1
   210    56    57    2
   211    82    84   ar
   212    82    81   ar
   213    70    73    1
   214    70    69    1
   215    66    65    1
   216    73    74    1
   217    84    86   ar
   218    80    81    1
   219    81    83   ar
   220    86    87    1
   221    86    85   ar
   222    65    62    1
   223    83    85   ar
   224    62    61    1
   225    62    63    1
   226    63    64    2
