@<TRIPOS>MOLECULE
tmp/5emlA01.pdb
 214 211 0 0 0
SMALL
GASTEIGER

@<TRIPOS>ATOM
      1  N         33.0460  -53.9690  -14.4060 N.3   288  PHE288     -0.1241
      2  CA        32.0860  -53.5930  -13.3590 C.3   288  PHE288      0.1605
      3  C         30.8750  -54.5320  -13.3270 C.2   288  PHE288      0.2264
      4  O         30.4740  -55.0000  -12.2750 O.2   288  PHE288     -0.2867
      5  CB        31.6140  -52.1450  -13.5260 C.3   288  PHE288      0.0534
      6  CG        30.4810  -51.7720  -12.6050 C.ar  288  PHE288     -0.0203
      7  CD1       30.7360  -51.3080  -11.3170 C.ar  288  PHE288     -0.0042
      8  CD2       29.1510  -51.9060  -13.0180 C.ar  288  PHE288     -0.0042
      9  CE1       29.6920  -50.9830  -10.4600 C.ar  288  PHE288     -0.0003
     10  CE2       28.1080  -51.5800  -12.1680 C.ar  288  PHE288     -0.0003
     11  CZ        28.3780  -51.1200  -10.8850 C.ar  288  PHE288     -0.0000
     12  N         27.1720  -59.4850  -12.3760 N.3   292  TYR292     -0.1241
     13  CA        25.7590  -59.0940  -12.3650 C.3   292  TYR292      0.1605
     14  C         24.9060  -59.6300  -13.5090 C.2   292  TYR292      0.2264
     15  O         23.7090  -59.3420  -13.5850 O.2   292  TYR292     -0.2867
     16  CB        25.6520  -57.5630  -12.2940 C.3   292  TYR292      0.0534
     17  CG        25.9710  -57.0270  -10.9170 C.ar  292  TYR292     -0.0201
     18  CD1       25.0380  -57.1290   -9.8910 C.ar  292  TYR292     -0.0009
     19  CD2       27.2150  -56.4490  -10.6270 C.ar  292  TYR292     -0.0009
     20  CE1       25.3120  -56.6680   -8.6170 C.ar  292  TYR292      0.0417
     21  CE2       27.4990  -55.9810   -9.3460 C.ar  292  TYR292      0.0417
     22  CZ        26.5340  -56.0970   -8.3470 C.ar  292  TYR292      0.1957
     23  OH        26.7610  -55.6530   -7.0640 O.3   292  TYR292     -0.2866
     24  N         17.4160  -57.3660  -10.2300 N.3   297  GLN297     -0.1245
     25  CA        17.2590  -56.5010   -9.0540 C.3   297  GLN297      0.1566
     26  C         15.9060  -55.8150   -9.0230 C.2   297  GLN297      0.2260
     27  O         15.3560  -55.4090  -10.0540 O.2   297  GLN297     -0.2867
     28  CB        18.3370  -55.4260   -9.0050 C.3   297  GLN297      0.0367
     29  CG        19.6800  -55.8820   -8.4810 C.3   297  GLN297      0.0905
     30  CD        20.7860  -55.0060   -9.0320 C.2   297  GLN297      0.2608
     31  OE1       21.1850  -55.1610  -10.1980 O.2   297  GLN297     -0.2717
     32  NE2       21.2680  -54.0530   -8.2150 N.am  297  GLN297     -0.0878
     33  N         14.3710  -52.2760   -8.8440 N.3   299  PRO299     -0.2102
     34  CA        14.9760  -50.9800   -9.0810 C.3   299  PRO299      0.1504
     35  C         15.1330  -50.2260   -7.7580 C.2   299  PRO299      0.2575
     36  O         14.3490  -50.4540   -6.8270 O.2   299  PRO299     -0.2718
     37  CB        13.9480  -50.2850   -9.9770 C.3   299  PRO299      0.0282
     38  CG        13.2770  -51.4070  -10.7060 C.3   299  PRO299      0.0208
     39  CD        13.1640  -52.4850   -9.6640 C.3   299  PRO299      0.0893
     40  N         16.1490  -49.3600   -7.6690 N.am  300  LEU300     -0.1980
     41  CA        16.3100  -48.4850   -6.5110 C.3   300  LEU300      0.1596
     42  C         15.1500  -47.4980   -6.4460 C.2   300  LEU300      0.2287
     43  O         14.6530  -47.0440   -7.4720 O.2   300  LEU300     -0.2864
     44  CB        17.6290  -47.7140   -6.5840 C.3   300  LEU300      0.0297
     45  CG        18.9520  -48.3880   -6.2010 C.3   300  LEU300      0.0022
     46  CD1       20.0580  -47.3740   -6.4010 C.3   300  LEU300      0.0001
     47  CD2       18.9630  -48.9090   -4.7620 C.3   300  LEU300      0.0001
     48  N         14.7230  -44.1960   -4.2610 N.3   302  PRO302     -0.2116
     49  CA        15.2020  -43.2620   -3.2460 C.3   302  PRO302      0.1372
     50  C         14.2470  -42.1100   -2.9760 C.2   302  PRO302      0.2244
     51  O         14.7060  -41.0120   -2.7080 O.2   302  PRO302     -0.2868
     52  CB        16.4900  -42.7120   -3.8590 C.3   302  PRO302      0.0268
     53  CG        16.2950  -42.8330   -5.3410 C.3   302  PRO302      0.0207
     54  CD        15.1840  -43.8230   -5.6080 C.3   302  PRO302      0.0892
     55  N         18.7110  -44.2430    0.4420 N.3   307  LEU307     -0.1245
     56  CA        19.8500  -44.9790   -0.0650 C.3   307  LEU307      0.1561
     57  C         20.9410  -45.1650    1.0200 C.2   307  LEU307      0.2260
     58  O         21.1850  -44.2750    1.8380 O.2   307  LEU307     -0.2867
     59  CB        20.4040  -44.2350   -1.2910 C.3   307  LEU307      0.0270
     60  CG        19.6760  -44.4290   -2.6110 C.3   307  LEU307      0.0019
     61  CD1       20.3310  -43.6060   -3.6940 C.3   307  LEU307      0.0001
     62  CD2       19.7510  -45.8880   -2.9920 C.3   307  LEU307      0.0001
     63  N         25.9040  -47.3760   -1.3100 N.3   311  THR311     -0.1203
     64  CA        25.2340  -47.3160   -2.5780 C.3   311  THR311      0.1994
     65  C         25.6100  -46.0220   -3.2780 C.2   311  THR311      0.2617
     66  O         25.7840  -45.9860   -4.4920 O.2   311  THR311     -0.2717
     67  CB        23.7170  -47.4760   -2.3960 C.3   311  THR311      0.1784
     68  OG1       23.4590  -48.8320   -2.0130 O.3   311  THR311     -0.2211
     69  CG2       22.9600  -47.1700   -3.6880 C.3   311  THR311      0.0376
     70  N         25.7300  -44.9570   -2.5030 N.am  312  TYR312     -0.1975
     71  CA        26.2740  -43.7270   -3.0110 C.3   312  TYR312      0.1639
     72  C         27.7300  -43.9820   -3.3780 C.2   312  TYR312      0.2290
     73  O         28.1900  -43.5410   -4.4300 O.2   312  TYR312     -0.2864
     74  CB        26.2090  -42.6430   -1.9560 C.3   312  TYR312      0.0560
     75  CG        24.8340  -42.0840   -1.6630 C.ar  312  TYR312     -0.0198
     76  CD1       24.1540  -41.3020   -2.6140 C.ar  312  TYR312     -0.0009
     77  CD2       24.2180  -42.2990   -0.4190 C.ar  312  TYR312     -0.0009
     78  CE1       22.8910  -40.7690   -2.3450 C.ar  312  TYR312      0.0417
     79  CE2       22.9600  -41.7630   -0.1420 C.ar  312  TYR312      0.0417
     80  CZ        22.3030  -41.0030   -1.1000 C.ar  312  TYR312      0.1957
     81  OH        21.0400  -40.4800   -0.8230 O.3   312  TYR312     -0.2866
     82  N         29.4170  -46.7430   -4.4580 N.3   314  VAL314     -0.1231
     83  CA        29.6880  -47.4470   -5.7240 C.3   314  VAL314      0.1692
     84  C         29.4660  -46.5210   -6.9190 C.2   314  VAL314      0.2592
     85  O         30.2850  -46.5030   -7.8370 O.2   314  VAL314     -0.2718
     86  CB        28.8940  -48.7740   -5.9070 C.3   314  VAL314      0.0266
     87  CG1       29.3470  -49.8270   -4.9070 C.3   314  VAL314      0.0020
     88  CG2       27.3870  -48.5530   -5.8080 C.3   314  VAL314      0.0020
     89  N         28.3920  -45.7280   -6.8750 N.am  315  PHE315     -0.1962
     90  CA        27.9980  -44.9010   -8.0190 C.3   315  PHE315      0.1771
     91  C         28.7620  -43.6050   -8.1940 C.2   315  PHE315      0.2619
     92  O         28.8370  -43.0700   -9.2990 O.2   315  PHE315     -0.2715
     93  CB        26.5000  -44.6550   -8.0000 C.3   315  PHE315      0.0574
     94  CG        25.7100  -45.8880   -8.2950 C.ar  315  PHE315     -0.0200
     95  CD1       25.8490  -46.5330   -9.5190 C.ar  315  PHE315     -0.0042
     96  CD2       24.8610  -46.4330   -7.3410 C.ar  315  PHE315     -0.0042
     97  CE1       25.1400  -47.6840   -9.7890 C.ar  315  PHE315     -0.0003
     98  CE2       24.1520  -47.5870   -7.6000 C.ar  315  PHE315     -0.0003
     99  CZ        24.2800  -48.2070   -8.8290 C.ar  315  PHE315     -0.0000
    100  N         29.3290  -43.0960   -7.1110 N.am  316  GLU316     -0.1977
    101  CA        30.2190  -41.9310   -7.1740 C.3   316  GLU316      0.1602
    102  C         31.4950  -42.2700   -7.9620 C.2   316  GLU316      0.2287
    103  O         32.2380  -41.3840   -8.3690 O.2   316  GLU316     -0.2864
    104  CB        30.5610  -41.4460   -5.7560 C.3   316  GLU316      0.0415
    105  CG        29.4280  -40.6910   -5.0730 C.3   316  GLU316      0.1163
    106  CD        29.5180  -40.6930   -3.5470 C.2   316  GLU316      0.3649
    107  OE1       30.5210  -41.2070   -2.9960 O.co2 316  GLU316     -0.2457
    108  OE2       28.5790  -40.1700   -2.8930 O.co2 316  GLU316     -0.2457
    109  N         29.7080  -40.0930  -15.8140 N.3   321  LYS321     -0.1231
    110  CA        28.4860  -39.3870  -15.4010 C.3   321  LYS321      0.1693
    111  C         28.7470  -37.9650  -14.8990 C.2   321  LYS321      0.2592
    112  O         28.0880  -37.0110  -15.3370 O.2   321  LYS321     -0.2718
    113  CB        27.6460  -40.1780  -14.3860 C.3   321  LYS321      0.0285
    114  CG        26.1780  -39.7500  -14.3740 C.3   321  LYS321      0.0035
    115  CD        25.4020  -40.3750  -13.2250 C.3   321  LYS321      0.0206
    116  CE        25.7820  -39.7850  -11.8820 C.3   321  LYS321      0.1093
    117  NZ        24.7180  -39.9170  -10.8440 N.3   321  LYS321     -0.1314
    118  N         29.7060  -37.8190  -13.9970 N.am  322  TYR322     -0.1976
    119  CA        29.9340  -36.5230  -13.3850 C.3   322  TYR322      0.1639
    120  C         30.6940  -35.5590  -14.3000 C.2   322  TYR322      0.2290
    121  O         30.3590  -34.3640  -14.3500 O.2   322  TYR322     -0.2864
    122  CB        30.6000  -36.6930  -12.0290 C.3   322  TYR322      0.0560
    123  CG        29.7740  -37.5580  -11.1120 C.ar  322  TYR322     -0.0198
    124  CD1       28.5450  -37.0940  -10.6000 C.ar  322  TYR322     -0.0009
    125  CD2       30.1750  -38.8570  -10.8020 C.ar  322  TYR322     -0.0009
    126  CE1       27.7540  -37.8920   -9.7890 C.ar  322  TYR322      0.0417
    127  CE2       29.4030  -39.6540   -9.9700 C.ar  322  TYR322      0.0417
    128  CZ        28.1880  -39.1700   -9.4750 C.ar  322  TYR322      0.1957
    129  OH        27.4210  -39.9600   -8.6560 O.3   322  TYR322     -0.2866
    130  N         20.0020  -35.4050  -10.5580 N.3   423  GLU423     -0.1245
    131  CA        20.1920  -36.7250  -11.1320 C.3   423  GLU423      0.1567
    132  C         19.1950  -37.7070  -10.4680 C.2   423  GLU423      0.2260
    133  O         19.5120  -38.4380   -9.5170 O.2   423  GLU423     -0.2867
    134  CB        21.6440  -37.1600  -10.9280 C.3   423  GLU423      0.0388
    135  CG        22.0480  -38.3210  -11.8210 C.3   423  GLU423      0.1160
    136  CD        21.4390  -39.6480  -11.3840 C.2   423  GLU423      0.3649
    137  OE1       22.1760  -40.4340  -10.7490 O.co2 423  GLU423     -0.2457
    138  OE2       20.2230  -39.9010  -11.6660 O.co2 423  GLU423     -0.2457
    139  N         17.2420  -40.1180  -11.9910 N.3   425  LEU425     -0.1231
    140  CA        16.8430  -40.8710  -13.1520 C.3   425  LEU425      0.1693
    141  C         17.1020  -42.3250  -12.9390 C.2   425  LEU425      0.2593
    142  O         18.1580  -42.6960  -12.4160 O.2   425  LEU425     -0.2718
    143  CB        17.6360  -40.4200  -14.3720 C.3   425  LEU425      0.0284
    144  CG        17.3920  -39.0260  -14.9410 C.3   425  LEU425      0.0019
    145  CD1       18.1190  -38.9240  -16.2780 C.3   425  LEU425      0.0001
    146  CD2       15.9050  -38.7290  -15.1090 C.3   425  LEU425      0.0001
    147  N         16.1530  -43.1510  -13.3810 N.am  426  GLY426     -0.1942
    148  CA        16.2940  -44.6020  -13.2860 C.3   426  GLY426      0.2014
    149  C         16.5270  -45.1820  -14.6530 C.2   426  GLY426      0.2639
    150  O         16.5330  -44.4450  -15.6260 O.2   426  GLY426     -0.2714
    151  N         16.6710  -46.5040  -14.7370 N.am  427  SER427     -0.1949
    152  CA        17.0780  -47.1350  -15.9910 C.3   427  SER427      0.1924
    153  C         16.0540  -46.9360  -17.0840 C.2   427  SER427      0.2314
    154  O         16.3630  -47.1470  -18.2590 O.2   427  SER427     -0.2863
    155  CB        17.3930  -48.6190  -15.8210 C.3   427  SER427      0.2116
    156  OG        18.2690  -48.8580  -14.7340 O.3   427  SER427     -0.2180
    157  N         12.0650  -43.2910  -11.5070 N.3   432  GLU432     -0.1245
    158  CA        12.3610  -42.8470  -10.1440 C.3   432  GLU432      0.1567
    159  C         11.6230  -41.5860   -9.7980 C.2   432  GLU432      0.2260
    160  O         11.8330  -41.0240   -8.7450 O.2   432  GLU432     -0.2867
    161  CB        13.8700  -42.7210   -9.8750 C.3   432  GLU432      0.0388
    162  CG        14.5320  -44.0970   -9.8550 C.3   432  GLU432      0.1160
    163  CD        16.0030  -44.1140   -9.4260 C.2   432  GLU432      0.3649
    164  OE1       16.5900  -43.0900   -8.9930 O.co2 432  GLU432     -0.2457
    165  OE2       16.5840  -45.2030   -9.5030 O.co2 432  GLU432     -0.2457
    166  N         15.7100  -54.0830  -12.7670 N.3   491  VAL491     -0.1245
    167  CA        17.0340  -53.6480  -13.2070 C.3   491  VAL491      0.1561
    168  C         17.8710  -54.9120  -13.3030 C.2   491  VAL491      0.2260
    169  O         17.9410  -55.6710  -12.3500 O.2   491  VAL491     -0.2867
    170  CB        17.6830  -52.6710  -12.2000 C.3   491  VAL491      0.0252
    171  CG1       19.1570  -52.4200  -12.5550 C.3   491  VAL491      0.0019
    172  CG2       16.9220  -51.3730  -12.2090 C.3   491  VAL491      0.0019
    173  N         28.8030  -47.0480  -16.2100 N.3   565  PHE565     -0.1227
    174  CA        28.2580  -48.2730  -15.6370 C.3   565  PHE565      0.1736
    175  C         27.1030  -48.0390  -14.6630 C.2   565  PHE565      0.2596
    176  O         26.5830  -48.9770  -14.0970 O.2   565  PHE565     -0.2718
    177  CB        29.3740  -49.0900  -14.9590 C.3   565  PHE565      0.0547
    178  CG        30.1060  -48.3560  -13.8580 C.ar  565  PHE565     -0.0202
    179  CD1       29.5720  -48.2850  -12.5640 C.ar  565  PHE565     -0.0042
    180  CD2       31.3470  -47.7470  -14.1040 C.ar  565  PHE565     -0.0042
    181  CE1       30.2580  -47.6220  -11.5450 C.ar  565  PHE565     -0.0003
    182  CE2       32.0290  -47.0850  -13.0900 C.ar  565  PHE565     -0.0003
    183  CZ        31.4870  -47.0220  -11.8090 C.ar  565  PHE565     -0.0000
    184  N         26.7050  -46.7870  -14.4900 N.am  566  SER566     -0.1938
    185  CA        25.7670  -46.3850  -13.4440 C.3   566  SER566      0.2055
    186  C         24.3360  -46.9470  -13.5810 C.2   566  SER566      0.2643
    187  O         23.6680  -47.1300  -12.5740 O.2   566  SER566     -0.2714
    188  CB        25.7310  -44.8700  -13.3400 C.3   566  SER566      0.2130
    189  OG        26.6970  -44.4070  -12.4140 O.3   566  SER566     -0.2179
    190  N         23.8920  -47.2210  -14.8090 N.am  567  TRP567     -0.1959
    191  CA        22.6050  -47.8490  -15.0420 C.3   567  TRP567      0.1771
    192  C         22.7300  -49.1100  -15.8630 C.2   567  TRP567      0.2619
    193  O         23.2730  -49.0970  -16.9540 O.2   567  TRP567     -0.2715
    194  CB        21.6270  -46.9080  -15.7500 C.3   567  TRP567      0.0590
    195  CG        21.3410  -45.6570  -15.0090 C.ar  567  TRP567      0.0006
    196  CD1       20.4110  -45.4880  -14.0370 C.ar  567  TRP567      0.0946
    197  CD2       21.9710  -44.3800  -15.1820 C.ar  567  TRP567      0.0152
    198  NE1       20.4070  -44.1830  -13.5900 N.ar  567  TRP567     -0.2442
    199  CE2       21.3610  -43.4840  -14.2770 C.ar  567  TRP567      0.0810
    200  CE3       22.9920  -43.9070  -15.9990 C.ar  567  TRP567      0.0012
    201  CZ2       21.7360  -42.1440  -14.1780 C.ar  567  TRP567      0.0191
    202  CZ3       23.3590  -42.5650  -15.8980 C.ar  567  TRP567      0.0001
    203  CH2       22.7290  -41.7060  -14.9990 C.ar  567  TRP567      0.0015
    204  N         22.1960  -50.2020  -15.3290 N.am  568  PHE568     -0.1974
    205  CA        21.9180  -51.3740  -16.1310 C.3   568  PHE568      0.1639
    206  C         20.5650  -51.1680  -16.8210 C.2   568  PHE568      0.2290
    207  O         19.7750  -50.3160  -16.3940 O.2   568  PHE568     -0.2864
    208  CB        21.8780  -52.6130  -15.2450 C.3   568  PHE568      0.0560
    209  CG        23.2100  -53.0020  -14.6710 C.ar  568  PHE568     -0.0200
    210  CD1       24.3890  -52.7100  -15.3460 C.ar  568  PHE568     -0.0042
    211  CD2       23.2780  -53.7230  -13.4850 C.ar  568  PHE568     -0.0042
    212  CE1       25.6190  -53.0930  -14.8200 C.ar  568  PHE568     -0.0003
    213  CE2       24.5010  -54.1010  -12.9500 C.ar  568  PHE568     -0.0003
    214  CZ        25.6810  -53.7790  -13.6160 C.ar  568  PHE568     -0.0000
@<TRIPOS>BOND
     1   154   153    2
     2   153   152    1
     3   193   192    2
     4   206   207    2
     5   206   205    1
     6   145   144    1
     7   173   174    1
     8   205   204    1
     9   205   208    1
    10   200   202   ar
    11   200   197   ar
    12   152   155    1
    13   152   151    1
    14   202   203   ar
    15   192   204   am
    16   192   191    1
    17   155   156    1
    18   109   110    1
    19   194   191    1
    20   194   195    1
    21   174   177    1
    22   174   175    1
    23   150   149    2
    24   110   111    1
    25   110   113    1
    26   210   212   ar
    27   210   209   ar
    28   112   111    2
    29   208   209    1
    30   197   195   ar
    31   197   199   ar
    32   146   144    1
    33   191   190    1
    34   195   196   ar
    35   203   201   ar
    36   177   178    1
    37   144   143    1
    38   111   118   am
    39   212   214   ar
    40   190   186   am
    41   151   149   am
    42   209   211   ar
    43   175   184   am
    44   175   176    2
    45   149   148    1
    46   184   185    1
    47     1     2    1
    48   113   114    1
    49   114   115    1
    50   143   140    1
    51   121   120    2
    52   120   119    1
    53   199   201   ar
    54   199   198   ar
    55   180   178   ar
    56   180   182   ar
    57   196   198   ar
    58   118   119    1
    59   178   179   ar
    60   214   213   ar
    61    15    14    2
    62   186   185    1
    63   186   187    2
    64     5     2    1
    65     5     6    1
    66    14    13    1
    67   211   213   ar
    68   185   188    1
    69   119   122    1
    70   147   148    1
    71   147   141   am
    72     2     3    1
    73   188   189    1
    74     3     4    2
    75   168   167    1
    76   168   169    2
    77   115   116    1
    78   167   166    1
    79   167   170    1
    80   140   141    1
    81   140   139    1
    82   182   183   ar
    83     8     6   ar
    84     8    10   ar
    85   141   142    2
    86     6     7   ar
    87   179   181   ar
    88   171   170    1
    89    12    13    1
    90    13    16    1
    91    16    17    1
    92   172   170    1
    93    10    11   ar
    94   122   123    1
    95   116   117    1
    96   135   136    1
    97   135   134    1
    98   183   181   ar
    99   138   136   ar
   100   157   158    1
   101   136   137   ar
   102     7     9   ar
   103   131   134    1
   104   131   130    1
   105   131   132    1
   106   123   125   ar
   107   123   124   ar
   108    17    19   ar
   109    17    18   ar
   110    11     9   ar
   111   125   127   ar
   112    38    37    1
   113    38    39    1
   114    19    21   ar
   115   124   126   ar
   116   132   133    2
   117    24    25    1
   118    31    30    2
   119   158   161    1
   120   158   159    1
   121    27    26    2
   122    37    34    1
   123   127   128   ar
   124    18    20   ar
   125   161   162    1
   126   162   163    1
   127   159   160    2
   128   126   128   ar
   129    97    95   ar
   130    97    99   ar
   131    39    33    1
   132    95    94   ar
   133   165   163   ar
   134   128   129    1
   135   163   164   ar
   136    21    22   ar
   137    92    91    2
   138    34    33    1
   139    34    35    1
   140    25    26    1
   141    25    28    1
   142    30    29    1
   143    30    32   am
   144    28    29    1
   145    99    98   ar
   146    20    22   ar
   147   103   102    2
   148    22    23    1
   149    94    93    1
   150    94    96   ar
   151    91    90    1
   152    91   100   am
   153    90    93    1
   154    90    89    1
   155   102   101    1
   156    85    84    2
   157    35    40   am
   158    35    36    2
   159    40    41    1
   160    98    96   ar
   161    43    42    2
   162   101   100    1
   163   101   104    1
   164    84    89   am
   165    84    83    1
   166    44    41    1
   167    44    45    1
   168    41    42    1
   169    46    45    1
   170    45    47    1
   171    86    88    1
   172    86    83    1
   173    86    87    1
   174   104   105    1
   175    83    82    1
   176    54    53    1
   177    54    48    1
   178    53    52    1
   179   105   106    1
   180    66    65    2
   181    73    72    2
   182    48    49    1
   183    52    49    1
   184    61    60    1
   185    69    67    1
   186   106   107   ar
   187   106   108   ar
   188    72    71    1
   189    65    64    1
   190    65    70   am
   191    49    50    1
   192    71    70    1
   193    71    74    1
   194    62    60    1
   195    50    51    2
   196    76    78   ar
   197    76    75   ar
   198    60    59    1
   199    64    67    1
   200    64    63    1
   201    67    68    1
   202    78    80   ar
   203    74    75    1
   204    75    77   ar
   205    59    56    1
   206    80    81    1
   207    80    79   ar
   208    77    79   ar
   209    56    55    1
   210    56    57    1
   211    57    58    2
