@<TRIPOS>MOLECULE
tmp/5emmA01.pdb
 212 209 0 0 0
SMALL
GASTEIGER

@<TRIPOS>ATOM
      1  N         33.6430  -54.3200  -14.9360 N.3   288  PHE288     -0.1227
      2  CA        32.8140  -53.9240  -13.7930 C.3   288  PHE288      0.1736
      3  C         31.5060  -54.7280  -13.6570 C.2   288  PHE288      0.2595
      4  O         31.1280  -55.1280  -12.5560 O.2   288  PHE288     -0.2718
      5  CB        32.5330  -52.4150  -13.8320 C.3   288  PHE288      0.0547
      6  CG        31.8380  -51.9310  -12.5500 C.ar  288  PHE288     -0.0202
      7  CD1       32.5480  -51.9190  -11.3490 C.ar  288  PHE288     -0.0042
      8  CD2       30.5170  -51.5060  -12.5530 C.ar  288  PHE288     -0.0042
      9  CE1       31.9500  -51.5420  -10.1600 C.ar  288  PHE288     -0.0003
     10  CE2       29.9400  -51.0950  -11.3590 C.ar  288  PHE288     -0.0003
     11  CZ        30.6310  -51.1230  -10.1660 C.ar  288  PHE288     -0.0000
     12  N         30.8380  -54.9840  -14.7830 N.am  289  ALA289     -0.1980
     13  CA        29.5210  -55.6390  -14.7810 C.3   289  ALA289      0.1597
     14  C         29.5750  -57.1700  -14.6180 C.2   289  ALA289      0.2287
     15  O         28.5800  -57.8750  -14.8950 O.2   289  ALA289     -0.2864
     16  CB        28.7720  -55.2580  -16.0610 C.3   289  ALA289      0.0319
     17  N         27.3660  -59.8500  -12.0950 N.3   292  TYR292     -0.1241
     18  CA        26.0790  -59.1610  -12.0570 C.3   292  TYR292      0.1605
     19  C         25.1810  -59.6260  -13.1810 C.2   292  TYR292      0.2264
     20  O         24.0160  -59.2240  -13.2620 O.2   292  TYR292     -0.2867
     21  CB        26.2920  -57.6570  -12.2470 C.3   292  TYR292      0.0534
     22  CG        26.4010  -56.8400  -10.9780 C.ar  292  TYR292     -0.0201
     23  CD1       25.2710  -56.5480  -10.2180 C.ar  292  TYR292     -0.0009
     24  CD2       27.6310  -56.3260  -10.5570 C.ar  292  TYR292     -0.0009
     25  CE1       25.3630  -55.7850   -9.0650 C.ar  292  TYR292      0.0417
     26  CE2       27.7330  -55.5630   -9.4040 C.ar  292  TYR292      0.0417
     27  CZ        26.5950  -55.2970   -8.6660 C.ar  292  TYR292      0.1957
     28  OH        26.6780  -54.5420   -7.5260 O.3   292  TYR292     -0.2866
     29  N         17.3850  -57.3000   -9.9550 N.3   297  GLN297     -0.1245
     30  CA        17.0900  -56.4940   -8.7620 C.3   297  GLN297      0.1566
     31  C         15.7300  -55.8230   -8.9400 C.2   297  GLN297      0.2260
     32  O         15.4260  -55.3260  -10.0250 O.2   297  GLN297     -0.2867
     33  CB        18.1770  -55.4310   -8.5850 C.3   297  GLN297      0.0367
     34  CG        19.5720  -56.0450   -8.4900 C.3   297  GLN297      0.0905
     35  CD        20.6750  -55.1650   -9.0410 C.2   297  GLN297      0.2608
     36  OE1       21.2110  -55.4200  -10.1290 O.2   297  GLN297     -0.2717
     37  NE2       21.0130  -54.1190   -8.2970 N.am  297  GLN297     -0.0878
     38  N         13.9080  -52.3850   -8.4620 N.3   299  PRO299     -0.2116
     39  CA        14.4930  -51.0520   -8.2800 C.3   299  PRO299      0.1372
     40  C         14.1240  -50.4820   -6.9050 C.2   299  PRO299      0.2244
     41  O         13.3550  -51.1100   -6.1650 O.2   299  PRO299     -0.2868
     42  CB        13.8530  -50.2240   -9.4100 C.3   299  PRO299      0.0268
     43  CG        13.2610  -51.2220  -10.3600 C.3   299  PRO299      0.0207
     44  CD        12.8590  -52.3820   -9.4940 C.3   299  PRO299      0.0892
     45  N         18.9100  -44.1440    0.3890 N.3   307  LEU307     -0.1245
     46  CA        20.0960  -44.8570   -0.1130 C.3   307  LEU307      0.1561
     47  C         21.1550  -45.0460    0.9820 C.2   307  LEU307      0.2260
     48  O         21.3640  -44.1490    1.7860 O.2   307  LEU307     -0.2867
     49  CB        20.6620  -44.1060   -1.3150 C.3   307  LEU307      0.0270
     50  CG        19.8820  -44.3020   -2.6090 C.3   307  LEU307      0.0019
     51  CD1       20.2490  -43.2770   -3.6360 C.3   307  LEU307      0.0001
     52  CD2       20.1160  -45.6790   -3.1910 C.3   307  LEU307      0.0001
     53  N         26.0910  -47.4430   -1.2710 N.3   311  THR311     -0.1203
     54  CA        25.4950  -47.2840   -2.5810 C.3   311  THR311      0.1994
     55  C         26.0530  -46.0370   -3.2690 C.2   311  THR311      0.2617
     56  O         26.6280  -46.1350   -4.3470 O.2   311  THR311     -0.2717
     57  CB        23.9530  -47.3080   -2.5240 C.3   311  THR311      0.1784
     58  OG1       23.5440  -48.5650   -1.9920 O.3   311  THR311     -0.2211
     59  CG2       23.3580  -47.1800   -3.9130 C.3   311  THR311      0.0376
     60  N         25.8880  -44.8810   -2.6320 N.am  312  TYR312     -0.1975
     61  CA        26.5540  -43.6600   -3.0510 C.3   312  TYR312      0.1639
     62  C         28.0320  -43.9580   -3.3820 C.2   312  TYR312      0.2290
     63  O         28.4930  -43.6690   -4.4800 O.2   312  TYR312     -0.2864
     64  CB        26.4790  -42.6200   -1.9390 C.3   312  TYR312      0.0560
     65  CG        25.1080  -42.0190   -1.6760 C.ar  312  TYR312     -0.0198
     66  CD1       24.5240  -41.1380   -2.5800 C.ar  312  TYR312     -0.0009
     67  CD2       24.4120  -42.3070   -0.4980 C.ar  312  TYR312     -0.0009
     68  CE1       23.2760  -40.5730   -2.3300 C.ar  312  TYR312      0.0417
     69  CE2       23.1700  -41.7460   -0.2420 C.ar  312  TYR312      0.0417
     70  CZ        22.6060  -40.8790   -1.1600 C.ar  312  TYR312      0.1957
     71  OH        21.3580  -40.3280   -0.9150 O.3   312  TYR312     -0.2866
     72  N         29.7510  -46.5490   -4.3690 N.3   314  VAL314     -0.1231
     73  CA        29.9990  -47.2910   -5.6160 C.3   314  VAL314      0.1692
     74  C         29.7350  -46.4590   -6.8650 C.2   314  VAL314      0.2592
     75  O         30.5430  -46.4730   -7.7980 O.2   314  VAL314     -0.2718
     76  CB        29.1840  -48.6040   -5.7030 C.3   314  VAL314      0.0266
     77  CG1       29.3960  -49.2640   -7.0510 C.3   314  VAL314      0.0020
     78  CG2       29.5860  -49.5730   -4.6060 C.3   314  VAL314      0.0020
     79  N         28.6120  -45.7410   -6.8790 N.am  315  PHE315     -0.1962
     80  CA        28.2060  -44.9920   -8.0630 C.3   315  PHE315      0.1771
     81  C         28.9830  -43.7110   -8.2660 C.2   315  PHE315      0.2619
     82  O         29.1130  -43.2280   -9.3920 O.2   315  PHE315     -0.2715
     83  CB        26.7090  -44.6920   -8.0280 C.3   315  PHE315      0.0574
     84  CG        25.8560  -45.8880   -8.3090 C.ar  315  PHE315     -0.0200
     85  CD1       26.0310  -46.6160   -9.4800 C.ar  315  PHE315     -0.0042
     86  CD2       24.8810  -46.2960   -7.4010 C.ar  315  PHE315     -0.0042
     87  CE1       25.2430  -47.7240   -9.7390 C.ar  315  PHE315     -0.0003
     88  CE2       24.1000  -47.4130   -7.6510 C.ar  315  PHE315     -0.0003
     89  CZ        24.2790  -48.1210   -8.8230 C.ar  315  PHE315     -0.0000
     90  N         29.4650  -43.1400   -7.1700 N.am  316  GLU316     -0.1977
     91  CA        30.3030  -41.9370   -7.2150 C.3   316  GLU316      0.1602
     92  C         31.5740  -42.1420   -8.0490 C.2   316  GLU316      0.2287
     93  O         32.2020  -41.1840   -8.4730 O.2   316  GLU316     -0.2864
     94  CB        30.6480  -41.4840   -5.7920 C.3   316  GLU316      0.0415
     95  CG        29.5130  -40.7170   -5.1280 C.3   316  GLU316      0.1163
     96  CD        29.6840  -40.5690   -3.6270 C.2   316  GLU316      0.3649
     97  OE1       30.7150  -41.0350   -3.0940 O.co2 316  GLU316     -0.2457
     98  OE2       28.7880  -39.9870   -2.9720 O.co2 316  GLU316     -0.2457
     99  N         29.6440  -40.0410  -15.8810 N.3   321  LYS321     -0.1231
    100  CA        28.4530  -39.3120  -15.4290 C.3   321  LYS321      0.1693
    101  C         28.8500  -37.9670  -14.8280 C.2   321  LYS321      0.2592
    102  O         28.1460  -36.9690  -15.0010 O.2   321  LYS321     -0.2718
    103  CB        27.6300  -40.1200  -14.4090 C.3   321  LYS321      0.0285
    104  CG        26.1750  -39.6360  -14.2510 C.3   321  LYS321      0.0035
    105  CD        25.4900  -40.2570  -13.0400 C.3   321  LYS321      0.0206
    106  CE        25.5020  -39.3280  -11.8410 C.3   321  LYS321      0.1093
    107  NZ        25.0520  -39.9860  -10.5850 N.3   321  LYS321     -0.1314
    108  N         29.9880  -37.9410  -14.1390 N.am  322  TYR322     -0.1976
    109  CA        30.3480  -36.7490  -13.4020 C.3   322  TYR322      0.1639
    110  C         30.9980  -35.7010  -14.2720 C.2   322  TYR322      0.2290
    111  O         30.5860  -34.5340  -14.2450 O.2   322  TYR322     -0.2864
    112  CB        31.1330  -37.1000  -12.1410 C.3   322  TYR322      0.0560
    113  CG        30.2220  -37.7980  -11.1560 C.ar  322  TYR322     -0.0198
    114  CD1       29.0350  -37.1770  -10.7200 C.ar  322  TYR322     -0.0009
    115  CD2       30.4930  -39.0880  -10.7060 C.ar  322  TYR322     -0.0009
    116  CE1       28.1620  -37.8120   -9.8510 C.ar  322  TYR322      0.0417
    117  CE2       29.6310  -39.7250   -9.8210 C.ar  322  TYR322      0.0417
    118  CZ        28.4600  -39.0870   -9.4080 C.ar  322  TYR322      0.1957
    119  OH        27.6050  -39.7070   -8.5260 O.3   322  TYR322     -0.2866
    120  N         20.3410  -35.3120  -10.7530 N.3   423  GLU423     -0.1245
    121  CA        20.2820  -36.6160  -11.3900 C.3   423  GLU423      0.1567
    122  C         19.3460  -37.5560  -10.5920 C.2   423  GLU423      0.2260
    123  O         19.6960  -38.1550   -9.5660 O.2   423  GLU423     -0.2867
    124  CB        21.6850  -37.1550  -11.7240 C.3   423  GLU423      0.0388
    125  CG        22.2150  -38.2510  -10.8370 C.3   423  GLU423      0.1160
    126  CD        21.6590  -39.6240  -11.1670 C.2   423  GLU423      0.3649
    127  OE1       22.4040  -40.5730  -10.8980 O.co2 423  GLU423     -0.2457
    128  OE2       20.4880  -39.7660  -11.6490 O.co2 423  GLU423     -0.2457
    129  N         17.2810  -40.0910  -12.0890 N.3   425  LEU425     -0.1231
    130  CA        16.8560  -40.9370  -13.1880 C.3   425  LEU425      0.1693
    131  C         17.1290  -42.3850  -12.8950 C.2   425  LEU425      0.2593
    132  O         18.0590  -42.7140  -12.1560 O.2   425  LEU425     -0.2718
    133  CB        17.6260  -40.5770  -14.4560 C.3   425  LEU425      0.0284
    134  CG        17.6540  -39.1140  -14.8860 C.3   425  LEU425      0.0019
    135  CD1       18.5030  -38.9640  -16.1400 C.3   425  LEU425      0.0001
    136  CD2       16.2350  -38.5990  -15.0940 C.3   425  LEU425      0.0001
    137  N         16.3490  -43.2530  -13.5360 N.am  426  GLY426     -0.1942
    138  CA        16.4530  -44.6880  -13.3350 C.3   426  GLY426      0.2014
    139  C         16.5890  -45.2850  -14.6890 C.2   426  GLY426      0.2639
    140  O         16.5310  -44.5750  -15.6770 O.2   426  GLY426     -0.2714
    141  N         16.7400  -46.5930  -14.7670 N.am  427  SER427     -0.1949
    142  CA        17.1630  -47.1740  -16.0390 C.3   427  SER427      0.1924
    143  C         16.1350  -46.9970  -17.1470 C.2   427  SER427      0.2314
    144  O         16.4660  -47.1880  -18.3300 O.2   427  SER427     -0.2863
    145  CB        17.5690  -48.6330  -15.8460 C.3   427  SER427      0.2116
    146  OG        17.9910  -48.8140  -14.4930 O.3   427  SER427     -0.2180
    147  N         11.5500  -43.5960  -14.0770 N.3   431  ASN431     -0.1225
    148  CA        11.1130  -44.5840  -13.1270 C.3   431  ASN431      0.1785
    149  C         11.5440  -44.3470  -11.6690 C.2   431  ASN431      0.2597
    150  O         11.3690  -45.2050  -10.8110 O.2   431  ASN431     -0.2718
    151  CB        11.4400  -45.9860  -13.6470 C.3   431  ASN431      0.1169
    152  CG        12.9460  -46.2920  -13.6710 C.2   431  ASN431      0.2627
    153  OD1       13.7350  -45.7040  -14.4510 O.2   431  ASN431     -0.2716
    154  ND2       13.3430  -47.2620  -12.8440 N.am  431  ASN431     -0.0877
    155  N         12.0900  -43.1640  -11.3830 N.am  432  GLU432     -0.1979
    156  CA        12.3700  -42.7340  -10.0050 C.3   432  GLU432      0.1602
    157  C         11.6520  -41.4210   -9.7350 C.2   432  GLU432      0.2287
    158  O         11.9360  -40.7320   -8.7630 O.2   432  GLU432     -0.2864
    159  CB        13.8930  -42.6380   -9.6820 C.3   432  GLU432      0.0415
    160  CG        14.5480  -44.0140   -9.5340 C.3   432  GLU432      0.1163
    161  CD        16.0550  -43.9980   -9.1330 C.2   432  GLU432      0.3649
    162  OE1       16.6260  -42.9460   -8.7570 O.co2 432  GLU432     -0.2457
    163  OE2       16.6630  -45.0800   -9.1570 O.co2 432  GLU432     -0.2457
    164  N         15.5360  -54.2040  -12.6090 N.3   491  VAL491     -0.1245
    165  CA        16.8590  -53.7080  -13.0580 C.3   491  VAL491      0.1561
    166  C         17.7670  -54.9160  -13.1980 C.2   491  VAL491      0.2260
    167  O         17.9730  -55.6510  -12.2410 O.2   491  VAL491     -0.2867
    168  CB        17.4780  -52.6910  -12.0780 C.3   491  VAL491      0.0252
    169  CG1       18.9560  -52.4440  -12.4070 C.3   491  VAL491      0.0019
    170  CG2       16.6880  -51.3990  -12.1250 C.3   491  VAL491      0.0019
    171  N         29.0310  -46.9970  -16.0810 N.3   565  PHE565     -0.1227
    172  CA        28.4290  -48.1950  -15.4840 C.3   565  PHE565      0.1736
    173  C         27.2570  -47.9040  -14.5440 C.2   565  PHE565      0.2596
    174  O         26.7220  -48.8030  -13.9230 O.2   565  PHE565     -0.2718
    175  CB        29.4790  -49.0500  -14.7670 C.3   565  PHE565      0.0547
    176  CG        30.2220  -48.3350  -13.6680 C.ar  565  PHE565     -0.0202
    177  CD1       29.6100  -48.0680  -12.4410 C.ar  565  PHE565     -0.0042
    178  CD2       31.5620  -47.9610  -13.8440 C.ar  565  PHE565     -0.0042
    179  CE1       30.3070  -47.4180  -11.4240 C.ar  565  PHE565     -0.0003
    180  CE2       32.2640  -47.3180  -12.8290 C.ar  565  PHE565     -0.0003
    181  CZ        31.6370  -47.0460  -11.6180 C.ar  565  PHE565     -0.0000
    182  N         26.8590  -46.6470  -14.4550 N.am  566  SER566     -0.1938
    183  CA        25.9270  -46.2130  -13.4360 C.3   566  SER566      0.2055
    184  C         24.4960  -46.7790  -13.5400 C.2   566  SER566      0.2643
    185  O         23.8150  -46.8710  -12.5300 O.2   566  SER566     -0.2714
    186  CB        25.8990  -44.6930  -13.3920 C.3   566  SER566      0.2130
    187  OG        26.8440  -44.2210  -12.4690 O.3   566  SER566     -0.2179
    188  N         24.0600  -47.1670  -14.7370 N.am  567  TRP567     -0.1959
    189  CA        22.7600  -47.8070  -14.9090 C.3   567  TRP567      0.1771
    190  C         22.7850  -49.0850  -15.7380 C.2   567  TRP567      0.2619
    191  O         23.2470  -49.0840  -16.8560 O.2   567  TRP567     -0.2715
    192  CB        21.7630  -46.8740  -15.5930 C.3   567  TRP567      0.0590
    193  CG        21.3830  -45.6280  -14.8690 C.ar  567  TRP567      0.0006
    194  CD1       20.3060  -45.4430  -14.0380 C.ar  567  TRP567      0.0946
    195  CD2       22.0120  -44.3590  -14.9940 C.ar  567  TRP567      0.0152
    196  NE1       20.2560  -44.1360  -13.6090 N.ar  567  TRP567     -0.2442
    197  CE2       21.3040  -43.4560  -14.1760 C.ar  567  TRP567      0.0810
    198  CE3       23.1310  -43.9020  -15.6930 C.ar  567  TRP567      0.0012
    199  CZ2       21.6740  -42.1260  -14.0540 C.ar  567  TRP567      0.0191
    200  CZ3       23.4940  -42.5850  -15.5690 C.ar  567  TRP567      0.0001
    201  CH2       22.7650  -41.7090  -14.7600 C.ar  567  TRP567      0.0015
    202  N         22.2250  -50.1640  -15.2020 N.am  568  PHE568     -0.1974
    203  CA        21.8820  -51.3280  -16.0200 C.3   568  PHE568      0.1639
    204  C         20.5740  -51.0510  -16.7370 C.2   568  PHE568      0.2290
    205  O         19.8640  -50.1250  -16.3520 O.2   568  PHE568     -0.2864
    206  CB        21.7040  -52.5590  -15.1410 C.3   568  PHE568      0.0560
    207  CG        22.9880  -53.1270  -14.6210 C.ar  568  PHE568     -0.0200
    208  CD1       24.1430  -53.1200  -15.4050 C.ar  568  PHE568     -0.0042
    209  CD2       23.0380  -53.6920  -13.3590 C.ar  568  PHE568     -0.0042
    210  CE1       25.3290  -53.6610  -14.9210 C.ar  568  PHE568     -0.0003
    211  CE2       24.2160  -54.2330  -12.8690 C.ar  568  PHE568     -0.0003
    212  CZ        25.3700  -54.2210  -13.6490 C.ar  568  PHE568     -0.0000
@<TRIPOS>BOND
     1   144   143    2
     2   143   142    1
     3   191   190    2
     4   204   205    2
     5   204   203    1
     6   135   134    1
     7   171   172    1
     8    16    13    1
     9   142   145    1
    10   142   141    1
    11   203   202    1
    12   203   206    1
    13    99   100    1
    14   145   146    1
    15   190   202   am
    16   190   189    1
    17   198   200   ar
    18   198   195   ar
    19   140   139    2
    20   192   189    1
    21   192   193    1
    22   200   201   ar
    23   172   175    1
    24   172   173    1
    25   100   101    1
    26   100   103    1
    27   208   210   ar
    28   208   207   ar
    29   206   207    1
    30   136   134    1
    31   102   101    2
    32   195   193   ar
    33   195   197   ar
    34     1     2    1
    35   210   212   ar
    36   189   188    1
    37    15    14    2
    38   134   133    1
    39   193   194   ar
    40   101   108   am
    41    12    13    1
    42    12     3   am
    43    13    14    1
    44   141   139   am
    45   175   176    1
    46   201   199   ar
    47   188   184   am
    48   139   138    1
    49   207   209   ar
    50   173   182   am
    51   173   174    2
    52   133   130    1
    53   182   183    1
    54   153   152    2
    55   103   104    1
    56   110   111    2
    57   110   109    1
    58   104   105    1
    59   197   199   ar
    60   197   196   ar
    61   108   109    1
    62   147   148    1
    63   194   196   ar
    64   178   176   ar
    65   178   180   ar
    66     5     2    1
    67     5     6    1
    68     2     3    1
    69   152   151    1
    70   152   154   am
    71   176   177   ar
    72     3     4    2
    73   212   211   ar
    74   151   148    1
    75   184   183    1
    76   184   185    2
    77   137   138    1
    78   137   131   am
    79   183   186    1
    80   109   112    1
    81   186   187    1
    82   209   211   ar
    83    20    19    2
    84   166   165    1
    85   166   167    2
    86   130   131    1
    87   130   129    1
    88    19    18    1
    89   148   149    1
    90   165   164    1
    91   165   168    1
    92   105   106    1
    93   131   132    2
    94   180   181   ar
    95     8     6   ar
    96     8    10   ar
    97     6     7   ar
    98   177   179   ar
    99   169   168    1
   100    21    18    1
   101    21    22    1
   102   112   113    1
   103   170   168    1
   104    17    18    1
   105   106   107    1
   106   124   121    1
   107   124   125    1
   108   149   155   am
   109   149   150    2
   110   128   126   ar
   111   181   179   ar
   112   121   120    1
   113   121   122    1
   114   155   156    1
   115    10    11   ar
   116     7     9   ar
   117   126   127   ar
   118   126   125    1
   119   113   114   ar
   120   113   115   ar
   121    22    24   ar
   122    22    23   ar
   123   114   116   ar
   124   115   117   ar
   125   122   123    2
   126    24    26   ar
   127    43    44    1
   128    43    42    1
   129    23    25   ar
   130    11     9   ar
   131    36    35    2
   132    32    31    2
   133   156   157    1
   134   156   159    1
   135    29    30    1
   136   116   118   ar
   137   117   118   ar
   138    87    85   ar
   139    87    89   ar
   140   157   158    2
   141   159   160    1
   142   160   161    1
   143    44    38    1
   144    85    84   ar
   145    42    39    1
   146   118   119    1
   147    26    27   ar
   148    82    81    2
   149   163   161   ar
   150   161   162   ar
   151    25    27   ar
   152    35    34    1
   153    35    37   am
   154    31    30    1
   155    89    88   ar
   156    30    33    1
   157    27    28    1
   158    33    34    1
   159    93    92    2
   160    38    39    1
   161    84    83    1
   162    84    86   ar
   163    39    40    1
   164    81    80    1
   165    81    90   am
   166    80    83    1
   167    80    79    1
   168    92    91    1
   169    75    74    2
   170    88    86   ar
   171    91    90    1
   172    91    94    1
   173    77    76    1
   174    40    41    2
   175    79    74   am
   176    74    73    1
   177    94    95    1
   178    76    73    1
   179    76    78    1
   180    73    72    1
   181    95    96    1
   182    63    62    2
   183    56    55    2
   184    59    57    1
   185    51    50    1
   186    96    97   ar
   187    96    98   ar
   188    62    61    1
   189    55    60   am
   190    55    54    1
   191    52    50    1
   192    61    60    1
   193    61    64    1
   194    50    49    1
   195    54    57    1
   196    54    53    1
   197    66    68   ar
   198    66    65   ar
   199    57    58    1
   200    68    70   ar
   201    64    65    1
   202    65    67   ar
   203    49    46    1
   204    70    71    1
   205    70    69   ar
   206    67    69   ar
   207    46    45    1
   208    46    47    1
   209    47    48    2
