@<TRIPOS>MOLECULE
tmp/5emyA00.pdb
 147 145 0 0 0
SMALL
GASTEIGER

@<TRIPOS>ATOM
      1  N        -19.5750  -10.4800   27.2850 N.3    57  TRP57      -0.1227
      2  CA       -19.1500  -10.3590   25.8860 C.3    57  TRP57       0.1737
      3  C        -18.7960  -11.7280   25.3230 C.2    57  TRP57       0.2595
      4  O        -19.0650  -12.0140   24.1490 O.2    57  TRP57      -0.2718
      5  CB       -17.9620   -9.3900   25.7430 C.3    57  TRP57       0.0564
      6  CG       -16.7640   -9.8260   26.5010 C.ar   57  TRP57       0.0003
      7  CD1      -16.4580   -9.5200   27.8000 C.ar   57  TRP57       0.0946
      8  CD2      -15.7220  -10.6920   26.0350 C.ar   57  TRP57       0.0152
      9  NE1      -15.2940  -10.1550   28.1740 N.ar   57  TRP57      -0.2442
     10  CE2      -14.8230  -10.8750   27.1030 C.ar   57  TRP57       0.0810
     11  CE3      -15.4640  -11.3370   24.8190 C.ar   57  TRP57       0.0012
     12  CZ2      -13.6810  -11.6530   26.9830 C.ar   57  TRP57       0.0191
     13  CZ3      -14.3280  -12.1110   24.7070 C.ar   57  TRP57       0.0001
     14  CH2      -13.4570  -12.2660   25.7780 C.ar   57  TRP57       0.0015
     15  N        -18.2620  -12.6120   26.1610 N.am   58  TRP58      -0.1976
     16  CA       -17.7450  -13.8740   25.6620 C.3    58  TRP58       0.1640
     17  C        -18.8290  -14.8980   25.3320 C.2    58  TRP58       0.2290
     18  O        -18.5030  -15.9430   24.7570 O.2    58  TRP58      -0.2864
     19  CB       -16.6590  -14.4520   26.5740 C.3    58  TRP58       0.0576
     20  CG       -16.8950  -14.4450   28.0640 C.ar   58  TRP58       0.0006
     21  CD1      -16.2780  -13.6300   28.9710 C.ar   58  TRP58       0.0946
     22  CD2      -17.7370  -15.3240   28.8310 C.ar   58  TRP58       0.0152
     23  NE1      -16.6750  -13.9400   30.2410 N.ar   58  TRP58      -0.2442
     24  CE2      -17.5600  -14.9830   30.1880 C.ar   58  TRP58       0.0810
     25  CE3      -18.5990  -16.3810   28.5100 C.ar   58  TRP58       0.0012
     26  CZ2      -18.2430  -15.6320   31.2150 C.ar   58  TRP58       0.0191
     27  CZ3      -19.2720  -17.0290   29.5390 C.ar   58  TRP58       0.0001
     28  CH2      -19.0880  -16.6500   30.8680 C.ar   58  TRP58       0.0015
     29  N        -18.7770  -16.1370   21.6580 N.3    61  TYR61      -0.1227
     30  CA       -17.8050  -17.1160   21.1990 C.3    61  TYR61       0.1736
     31  C        -18.2700  -18.5380   21.4960 C.2    61  TYR61       0.2595
     32  O        -17.4740  -19.4800   21.4320 O.2    61  TYR61      -0.2718
     33  CB       -16.4050  -16.7640   21.7290 C.3    61  TYR61       0.0548
     34  CG       -15.9790  -15.4620   21.0790 C.ar   61  TYR61      -0.0200
     35  CD1      -15.5060  -15.4480   19.7710 C.ar   61  TYR61      -0.0009
     36  CD2      -16.1330  -14.2430   21.7230 C.ar   61  TYR61      -0.0009
     37  CE1      -15.1830  -14.2560   19.1410 C.ar   61  TYR61       0.0417
     38  CE2      -15.7970  -13.0580   21.1010 C.ar   61  TYR61       0.0417
     39  CZ       -15.3350  -13.0670   19.8110 C.ar   61  TYR61       0.1957
     40  OH       -15.0430  -11.8670   19.2050 O.3    61  TYR61      -0.2866
     41  N        -19.5730  -18.7050   21.7740 N.am   62  GLN62      -0.1979
     42  CA       -20.2140  -19.9990   22.0220 C.3    62  GLN62       0.1601
     43  C        -21.3780  -20.1600   21.0440 C.2    62  GLN62       0.2287
     44  O        -22.5360  -19.8720   21.3820 O.2    62  GLN62      -0.2864
     45  CB       -20.6590  -20.0940   23.4770 C.3    62  GLN62       0.0394
     46  CG       -19.4570  -20.1360   24.4040 C.3    62  GLN62       0.0908
     47  CD       -19.7720  -20.5990   25.7960 C.2    62  GLN62       0.2608
     48  OE1      -20.4900  -21.5760   25.9990 O.2    62  GLN62      -0.2717
     49  NE2      -19.2140  -19.9150   26.7760 N.am   62  GLN62      -0.0878
     50  N        -15.4980  -24.4200   17.0430 N.3   100  HIS100     -0.1241
     51  CA       -16.2380  -25.0010   18.1440 C.3   100  HIS100      0.1621
     52  C        -17.6780  -24.5060   18.1420 C.2   100  HIS100      0.2264
     53  O        -18.0250  -23.5110   17.4980 O.2   100  HIS100     -0.2867
     54  CB       -15.5540  -24.6720   19.4820 C.3   100  HIS100      0.0745
     55  CG       -15.2880  -23.2210   19.6960 C.ar  100  HIS100      0.0817
     56  ND1      -14.0630  -22.6430   19.4360 N.ar  100  HIS100     -0.2268
     57  CD2      -16.0910  -22.2290   20.1570 C.ar  100  HIS100      0.1154
     58  CE1      -14.1210  -21.3590   19.7380 C.ar  100  HIS100      0.1986
     59  NE2      -15.3400  -21.0770   20.1650 N.ar  100  HIS100     -0.2212
     60  N        -11.0970  -26.5680   23.7280 N.3   161  LEU161     -0.1231
     61  CA       -10.5620  -25.3560   24.3390 C.3   161  LEU161      0.1693
     62  C        -11.4710  -24.9580   25.4960 C.2   161  LEU161      0.2592
     63  O        -12.6120  -24.5430   25.2790 O.2   161  LEU161     -0.2718
     64  CB       -10.5080  -24.2500   23.2870 C.3   161  LEU161      0.0284
     65  CG       -10.1140  -22.8660   23.8110 C.3   161  LEU161      0.0019
     66  CD1       -8.7380  -22.8720   24.4580 C.3   161  LEU161      0.0001
     67  CD2      -10.1800  -21.8510   22.7000 C.3   161  LEU161      0.0001
     68  N        -10.9750  -25.1090   26.7210 N.am  162  THR162     -0.1953
     69  CA       -11.7310  -24.8390   27.9430 C.3   162  THR162      0.1897
     70  C        -13.1640  -25.3470   27.8660 C.2   162  THR162      0.2313
     71  O        -14.1180  -24.6670   28.2470 O.2   162  THR162     -0.2863
     72  CB       -11.6640  -23.3760   28.3620 C.3   162  THR162      0.1794
     73  OG1      -12.1580  -22.5490   27.3140 O.3   162  THR162     -0.2208
     74  CG2      -10.2370  -22.9870   28.7190 C.3   162  THR162      0.0378
     75  N        -15.0930  -26.0640   25.2850 N.3   164  LEU164     -0.1245
     76  CA       -15.9110  -25.7380   24.1230 C.3   164  LEU164      0.1561
     77  C        -15.9540  -26.9330   23.1720 C.2   164  LEU164      0.2260
     78  O        -14.9130  -27.4560   22.7690 O.2   164  LEU164     -0.2867
     79  CB       -15.3290  -24.5140   23.4100 C.3   164  LEU164      0.0270
     80  CG       -15.3400  -23.2160   24.2290 C.3   164  LEU164      0.0019
     81  CD1      -14.3750  -22.2060   23.6410 C.3   164  LEU164      0.0001
     82  CD2      -16.7480  -22.6390   24.2920 C.3   164  LEU164      0.0001
     83  N        -11.9730  -12.8450   10.0480 N.3   194  ARG194     -0.1245
     84  CA       -11.0880  -13.2630   11.1240 C.3   194  ARG194      0.1563
     85  C        -11.4520  -14.7060   11.4310 C.2   194  ARG194      0.2260
     86  O        -12.6100  -14.9840   11.7570 O.2   194  ARG194     -0.2867
     87  CB       -11.3410  -12.4040   12.3630 C.3   194  ARG194      0.0307
     88  CG       -10.5490  -12.8530   13.5890 C.3   194  ARG194      0.0489
     89  CD       -11.0250  -12.0910   14.8250 C.3   194  ARG194      0.2205
     90  NE       -10.2340  -12.3920   16.0100 N.pl3 194  ARG194     -0.0865
     91  CZ       -10.6090  -13.1500   17.0290 C.cat 194  ARG194      0.5346
     92  NH1      -11.7840  -13.7460   17.0550 N.pl3 194  ARG194      0.1354
     93  NH2       -9.7840  -13.3020   18.0380 N.pl3 194  ARG194      0.1354
     94  N        -11.3540  -17.1190   14.0370 N.3   196  ASP196     -0.1225
     95  CA       -11.1690  -17.3220   15.4740 C.3   196  ASP196      0.1805
     96  C        -10.5400  -18.6270   15.8370 C.2   196  ASP196      0.2597
     97  O        -10.8980  -19.6320   15.2270 O.2   196  ASP196     -0.2718
     98  CB       -12.5700  -17.0200   16.2240 C.3   196  ASP196      0.1424
     99  CG       -12.5890  -17.3490   17.7260 C.2   196  ASP196      0.3668
    100  OD1      -13.0670  -18.4420   18.0970 O.co2 196  ASP196     -0.2456
    101  OD2      -12.1170  -16.3510   18.6190 O.co2 196  ASP196     -0.2456
    102  N         -9.6460  -18.6520   16.8180 N.am  197  ALA197     -0.1979
    103  CA        -9.1420  -19.9210   17.3350 C.3   197  ALA197      0.1597
    104  C         -8.4510  -20.7610   16.2540 C.2   197  ALA197      0.2287
    105  O         -8.5240  -21.9810   16.2630 O.2   197  ALA197     -0.2864
    106  CB       -10.2560  -20.7170   18.0120 C.3   197  ALA197      0.0319
    107  N         -6.5470  -16.0300   13.6690 N.3   232  GLU232     -0.1245
    108  CA        -6.1310  -15.7590   15.0410 C.3   232  GLU232      0.1567
    109  C         -5.2940  -16.9300   15.5280 C.2   232  GLU232      0.2260
    110  O         -5.8200  -18.0010   15.8260 O.2   232  GLU232     -0.2867
    111  CB        -7.3100  -15.5600   15.9840 C.3   232  GLU232      0.0388
    112  CG        -6.8330  -15.1190   17.3650 C.3   232  GLU232      0.1160
    113  CD        -7.4990  -15.8140   18.5330 C.2   232  GLU232      0.3649
    114  OE1       -7.9820  -16.9440   18.4020 O.co2 232  GLU232     -0.2457
    115  OE2       -7.5040  -15.2270   19.6260 O.co2 232  GLU232     -0.2457
    116  N         -9.8090   -7.3150   21.5930 N.3   298  HIS298     -0.1226
    117  CA       -10.9320   -7.3660   22.5210 C.3   298  HIS298      0.1752
    118  C        -10.6570   -8.3140   23.6800 C.2   298  HIS298      0.2596
    119  O        -11.1670   -8.0990   24.7830 O.2   298  HIS298     -0.2718
    120  CB       -12.2190   -7.7660   21.7930 C.3   298  HIS298      0.0759
    121  CG       -12.2510   -9.1980   21.3800 C.ar  298  HIS298      0.0818
    122  ND1      -11.6770   -9.6590   20.2140 N.ar  298  HIS298     -0.2268
    123  CD2      -12.7450  -10.2830   22.0170 C.ar  298  HIS298      0.1154
    124  CE1      -11.8310  -10.9690   20.1510 C.ar  298  HIS298      0.1986
    125  NE2      -12.4840  -11.3710   21.2280 N.ar  298  HIS298     -0.2212
    126  N         -9.8600   -9.3590   23.4530 N.am  299  ASP299     -0.1974
    127  CA        -9.4850  -10.2840   24.5220 C.3   299  ASP299      0.1709
    128  C         -8.4540   -9.6570   25.4490 C.2   299  ASP299      0.2293
    129  O         -8.6430   -9.5870   26.6720 O.2   299  ASP299     -0.2864
    130  CB        -8.8630  -11.5570   23.9180 C.3   299  ASP299      0.1436
    131  CG        -9.8780  -12.5240   23.3420 C.2   299  ASP299      0.3671
    132  OD1      -10.9140  -12.7510   23.9740 O.co2 299  ASP299     -0.2456
    133  OD2       -9.6320  -13.0750   22.2420 O.co2 299  ASP299     -0.2456
    134  N         -7.9530  -11.3860   28.7590 N.3   304  HIS304     -0.1226
    135  CA        -8.3280  -12.6430   28.1180 C.3   304  HIS304      0.1752
    136  C         -7.3850  -12.9820   26.9620 C.2   304  HIS304      0.2596
    137  O         -6.4700  -12.2280   26.6230 O.2   304  HIS304     -0.2718
    138  CB        -9.7750  -12.5780   27.6360 C.3   304  HIS304      0.0759
    139  CG       -10.7720  -12.8030   28.7200 C.ar  304  HIS304      0.0818
    140  ND1      -11.5900  -13.9110   28.7620 N.ar  304  HIS304     -0.2268
    141  CD2      -11.0790  -12.0640   29.8120 C.ar  304  HIS304      0.1154
    142  CE1      -12.3650  -13.8390   29.8300 C.ar  304  HIS304      0.1986
    143  NE2      -12.0760  -12.7290   30.4810 N.ar  304  HIS304     -0.2212
    144  N         -7.6370  -14.1300   26.3290 N.am  305  GLY305     -0.1957
    145  CA        -6.7030  -14.6510   25.3470 C.3   305  GLY305      0.1869
    146  C         -5.4250  -15.0510   26.0540 C.2   305  GLY305      0.2309
    147  O         -5.4460  -15.6320   27.1460 O.2   305  GLY305     -0.2863
@<TRIPOS>BOND
     1    83    84    1
     2    84    85    1
     3    84    87    1
     4    85    86    2
     5    87    88    1
     6    88    89    1
     7   107   108    1
     8    94    95    1
     9    89    90    1
    10   108   109    1
    11   108   111    1
    12    97    96    2
    13    95    96    1
    14    95    98    1
    15   109   110    2
    16    96   102   am
    17   111   112    1
    18    90    91    2
    19    98    99    1
    20   104   105    2
    21   104   103    1
    22   102   103    1
    23    91    92    1
    24    91    93    1
    25    50    51    1
    26   103   106    1
    27   112   113    1
    28    53    52    2
    29    99   100   ar
    30    99   101   ar
    31    52    51    1
    32    51    54    1
    33   114   113   ar
    34   113   115   ar
    35    37    35   ar
    36    37    39   ar
    37    40    39    1
    38    56    55   ar
    39    56    58   ar
    40    54    55    1
    41    55    57   ar
    42    58    59   ar
    43    35    34   ar
    44    39    38   ar
    45   124   122   ar
    46   124   125   ar
    47    57    59   ar
    48   122   121   ar
    49    43    44    2
    50    43    42    1
    51    34    36   ar
    52    34    33    1
    53    38    36   ar
    54    30    31    1
    55    30    29    1
    56    30    33    1
    57   125   123   ar
    58   121   120    1
    59   121   123   ar
    60    32    31    2
    61    31    41   am
    62   116   117    1
    63    41    42    1
    64   120   117    1
    65    42    45    1
    66   133   131   ar
    67   117   118    1
    68    67    65    1
    69    78    77    2
    70    77    76    1
    71    64    65    1
    72    64    61    1
    73   131   130    1
    74   131   132   ar
    75    79    76    1
    76    79    80    1
    77   126   118   am
    78   126   127    1
    79    45    46    1
    80    81    80    1
    81   118   119    2
    82    60    61    1
    83    65    66    1
    84   130   127    1
    85    76    75    1
    86     4     3    2
    87    80    82    1
    88    61    62    1
    89    46    47    1
    90   127   128    1
    91    13    11   ar
    92    13    14   ar
    93    18    17    2
    94    11     8   ar
    95    63    62    2
    96     3     2    1
    97     3    15   am
    98    17    16    1
    99   145   146    1
   100   145   144    1
   101   128   129    2
   102    62    68   am
   103    16    15    1
   104    16    19    1
   105     5     2    1
   106     5     6    1
   107    14    12   ar
   108    47    48    2
   109    47    49   am
   110     2     1    1
   111     8     6   ar
   112     8    10   ar
   113   146   147    2
   114   144   136   am
   115     6     7   ar
   116    19    20    1
   117   137   136    2
   118    68    69    1
   119   136   135    1
   120    12    10   ar
   121    10     9   ar
   122    73    72    1
   123   138   135    1
   124   138   139    1
   125     7     9   ar
   126    70    69    1
   127    70    71    2
   128    69    72    1
   129    20    22   ar
   130    20    21   ar
   131   135   134    1
   132    72    74    1
   133    25    22   ar
   134    25    27   ar
   135   139   140   ar
   136   139   141   ar
   137   140   142   ar
   138    22    24   ar
   139    21    23   ar
   140    27    28   ar
   141   141   143   ar
   142   142   143   ar
   143    24    23   ar
   144    24    26   ar
   145    28    26   ar
