@<TRIPOS>MOLECULE
tmp/5en4A01.pdb
 154 151 0 0 0
SMALL
GASTEIGER

@<TRIPOS>ATOM
      1  N         33.7980    8.2560  -19.5510 N.3    90  HIS90      -0.1227
      2  CA        33.1940    7.0480  -18.9950 C.3    90  HIS90       0.1737
      3  C         32.0930    6.6010  -19.9460 C.2    90  HIS90       0.2438
      4  O         31.0920    7.3210  -20.0960 O.2    90  HIS90      -0.2733
      5  CB        32.6180    7.2880  -17.5950 C.3    90  HIS90       0.0758
      6  CG        32.3300    6.0290  -16.8260 C.ar   90  HIS90       0.0818
      7  ND1       31.6210    4.9710  -17.3490 N.ar   90  HIS90      -0.2268
      8  CD2       32.6590    5.6630  -15.5610 C.ar   90  HIS90       0.1154
      9  CE1       31.5310    4.0050  -16.4480 C.ar   90  HIS90       0.1986
     10  NE2       32.1480    4.4000  -15.3510 N.ar   90  HIS90      -0.2212
     11  N         32.2290    5.4490  -20.6000 N.am   91  PRO91      -0.2729
     12  CA        31.1640    4.9260  -21.4570 C.3    91  PRO91       0.1401
     13  C         29.9340    4.5540  -20.6500 C.2    91  PRO91       0.2269
     14  O         29.9990    4.3950  -19.4260 O.2    91  PRO91      -0.2865
     15  CB        31.7970    3.6660  -22.0690 C.3    91  PRO91       0.0296
     16  CG        33.2420    3.8170  -21.9110 C.3    91  PRO91       0.0237
     17  CD        33.4240    4.5920  -20.6410 C.3    91  PRO91       0.0939
     18  N         27.0700    2.0590  -19.0420 N.3    93  PRO93      -0.2116
     19  CA        27.2430    0.7310  -18.4460 C.3    93  PRO93       0.1372
     20  C         27.2010   -0.3640  -19.5010 C.2    93  PRO93       0.2244
     21  O         26.3500   -0.3610  -20.3980 O.2    93  PRO93      -0.2868
     22  CB        26.0580    0.6200  -17.4770 C.3    93  PRO93       0.0268
     23  CG        25.6300    2.0190  -17.2180 C.3    93  PRO93       0.0207
     24  CD        25.9320    2.7890  -18.4650 C.3    93  PRO93       0.0892
     25  N         40.3920    7.9170  -10.8230 N.3   138  SER138     -0.1202
     26  CA        39.0480    7.6710  -10.3440 C.3   138  SER138      0.2020
     27  C         39.1410    6.7320   -9.1680 C.2   138  SER138      0.2619
     28  O         39.9510    5.8010   -9.1780 O.2   138  SER138     -0.2717
     29  CB        38.1630    7.0190  -11.4040 C.3   138  SER138      0.2103
     30  OG        36.9050    6.7430  -10.8270 O.3   138  SER138     -0.2182
     31  N         38.2570    6.9340   -8.1900 N.am  139  LEU139     -0.1965
     32  CA        38.1120    5.9600   -7.1160 C.3   139  LEU139      0.1728
     33  C         37.8780    4.5550   -7.6370 C.2   139  LEU139      0.2616
     34  O         38.3300    3.5850   -7.0230 O.2   139  LEU139     -0.2715
     35  CB        36.9670    6.3840   -6.2060 C.3   139  LEU139      0.0311
     36  CG        36.5970    5.3980   -5.0940 C.3   139  LEU139      0.0022
     37  CD1       37.7750    5.1930   -4.1570 C.3   139  LEU139      0.0001
     38  CD2       35.4030    5.9120   -4.3290 C.3   139  LEU139      0.0001
     39  N         37.1830    4.3990   -8.7610 N.am  140  VAL140     -0.1977
     40  CA        36.8490    3.0420   -9.1640 C.3   140  VAL140      0.1596
     41  C         38.0540    2.3000   -9.7000 C.2   140  VAL140      0.2287
     42  O         38.0070    1.0810   -9.8010 O.2   140  VAL140     -0.2864
     43  CB        35.6680    2.9910  -10.1560 C.3   140  VAL140      0.0276
     44  CG1       34.4400    3.6030   -9.5020 C.3   140  VAL140      0.0022
     45  CG2       35.9910    3.6530  -11.4740 C.3   140  VAL140      0.0022
     46  N         34.1200   -1.0670  -10.1170 N.3   145  GLN145     -0.1231
     47  CA        32.7820   -0.6010  -10.4190 C.3   145  GLN145      0.1698
     48  C         32.1510   -1.6750  -11.2780 C.2   145  GLN145      0.2592
     49  O         32.8480   -2.3300  -12.0540 O.2   145  GLN145     -0.2718
     50  CB        32.8330    0.7450  -11.1530 C.3   145  GLN145      0.0381
     51  CG        31.5000    1.3930  -11.4800 C.3   145  GLN145      0.0905
     52  CD        31.6580    2.7350  -12.2060 C.2   145  GLN145      0.2608
     53  OE1       32.4120    2.8490  -13.1800 O.2   145  GLN145     -0.2717
     54  NE2       30.9540    3.7590  -11.7250 N.am  145  GLN145     -0.0878
     55  N         30.8440   -1.8670  -11.1350 N.am  146  ALA146     -0.1966
     56  CA        30.1480   -2.8070  -12.0010 C.3   146  ALA146      0.1728
     57  C         29.8900   -2.2030  -13.3780 C.2   146  ALA146      0.2616
     58  O         29.7500   -0.9900  -13.5380 O.2   146  ALA146     -0.2715
     59  CB        28.8190   -3.2320  -11.3840 C.3   146  ALA146      0.0334
     60  N         29.8370   -3.0850  -14.3690 N.am  147  GLN147     -0.1963
     61  CA        29.4800   -2.7550  -15.7510 C.3   147  GLN147      0.1733
     62  C         30.4040   -1.6900  -16.3280 C.2   147  GLN147      0.2616
     63  O         29.9790   -0.8030  -17.0700 O.2   147  GLN147     -0.2715
     64  CB        28.0150   -2.3350  -15.8550 C.3   147  GLN147      0.0408
     65  CG        27.0740   -3.4520  -15.5110 C.3   147  GLN147      0.0908
     66  CD        25.6620   -3.0930  -15.8570 C.2   147  GLN147      0.2608
     67  OE1       24.8800   -2.7280  -14.9950 O.2   147  GLN147     -0.2717
     68  NE2       25.3370   -3.1600  -17.1260 N.am  147  GLN147     -0.0878
     69  N         31.6900   -1.8140  -16.0300 N.am  148  ALA148     -0.1977
     70  CA        32.6580   -0.8180  -16.4530 C.3   148  ALA148      0.1597
     71  C         34.0640   -1.3780  -16.5620 C.2   148  ALA148      0.2287
     72  O         35.0300   -0.6910  -16.2320 O.2   148  ALA148     -0.2864
     73  CB        32.6460    0.3660  -15.4830 C.3   148  ALA148      0.0319
     74  N         36.6420    0.9890  -18.4700 N.3   151  TYR151     -0.1241
     75  CA        36.9090    2.2300  -17.7520 C.3   151  TYR151      0.1605
     76  C         37.7600    1.9780  -16.5240 C.2   151  TYR151      0.2264
     77  O         38.7420    2.6810  -16.2790 O.2   151  TYR151     -0.2867
     78  CB        35.6000    2.8910  -17.3470 C.3   151  TYR151      0.0534
     79  CG        35.7780    4.2030  -16.6270 C.ar  151  TYR151     -0.0201
     80  CD1       36.0680    5.3610  -17.3190 C.ar  151  TYR151     -0.0009
     81  CD2       35.6720    4.2800  -15.2460 C.ar  151  TYR151     -0.0009
     82  CE1       36.2210    6.5590  -16.6700 C.ar  151  TYR151      0.0417
     83  CE2       35.8410    5.4720  -14.5890 C.ar  151  TYR151      0.0417
     84  CZ        36.1080    6.6070  -15.3010 C.ar  151  TYR151      0.1957
     85  OH        36.2360    7.8000  -14.6340 O.3   151  TYR151     -0.2866
     86  N         38.8470   11.1480   -7.8900 N.3   181  PRO181     -0.2102
     87  CA        37.5370   11.5740   -7.4220 C.3   181  PRO181      0.1504
     88  C         36.5650   10.4170   -7.3670 C.2   181  PRO181      0.2576
     89  O         36.7040    9.4170   -8.0720 O.2   181  PRO181     -0.2718
     90  CB        37.0870   12.5930   -8.4800 C.3   181  PRO181      0.0282
     91  CG        38.2780   12.8530   -9.3400 C.3   181  PRO181      0.0208
     92  CD        39.1020   11.6090   -9.2630 C.3   181  PRO181      0.0893
     93  N         35.5750   10.5840   -6.4950 N.am  182  GLY182     -0.1943
     94  CA        34.3880    9.7630   -6.4890 C.3   182  GLY182      0.2014
     95  C         33.3070   10.4320   -7.3130 C.2   182  GLY182      0.2638
     96  O         33.6020   10.9900   -8.3730 O.2   182  GLY182     -0.2714
     97  N         32.0700   10.4220   -6.8320 N.am  183  ASN183     -0.1972
     98  CA        30.9730   11.0270   -7.5850 C.3   183  ASN183      0.1688
     99  C         31.0770   12.5450   -7.5240 C.2   183  ASN183      0.2292
    100  O         30.9300   13.1350   -6.4510 O.2   183  ASN183     -0.2864
    101  CB        29.6310   10.5660   -7.0310 C.3   183  ASN183      0.1181
    102  CG        29.3400    9.1170   -7.3420 C.2   183  ASN183      0.2629
    103  OD1       29.5130    8.6600   -8.4720 O.2   183  ASN183     -0.2716
    104  ND2       28.8480    8.3960   -6.3570 N.am  183  ASN183     -0.0877
    105  N         29.0580   14.9930  -17.5520 N.3   188  LEU188     -0.1231
    106  CA        29.1660   13.5580  -17.8090 C.3   188  LEU188      0.1693
    107  C         28.2460   12.7670  -16.8900 C.2   188  LEU188      0.2592
    108  O         27.5580   11.8390  -17.3280 O.2   188  LEU188     -0.2718
    109  CB        30.6110   13.0990  -17.6220 C.3   188  LEU188      0.0284
    110  CG        30.8940   11.5950  -17.7230 C.3   188  LEU188      0.0019
    111  CD1       30.5060   11.0690  -19.0900 C.3   188  LEU188      0.0001
    112  CD2       32.3650   11.3230  -17.4260 C.3   188  LEU188      0.0001
    113  N         28.2600   13.0870  -15.5930 N.am  189  TRP189     -0.1976
    114  CA        27.3660   12.4020  -14.6630 C.3   189  TRP189      0.1640
    115  C         25.9210   12.5610  -15.1010 C.2   189  TRP189      0.2290
    116  O         25.1520   11.5950  -15.0940 O.2   189  TRP189     -0.2864
    117  CB        27.5520   12.9400  -13.2390 C.3   189  TRP189      0.0576
    118  CG        27.5930   11.8830  -12.1850 C.ar  189  TRP189      0.0006
    119  CD1       28.6970   11.4640  -11.5170 C.ar  189  TRP189      0.0946
    120  CD2       26.5040   11.0960  -11.7010 C.ar  189  TRP189      0.0152
    121  NE1       28.3680   10.4620  -10.6400 N.ar  189  TRP189     -0.2442
    122  CE2       27.0250   10.2220  -10.7260 C.ar  189  TRP189      0.0810
    123  CE3       25.1400   11.0540  -11.9820 C.ar  189  TRP189      0.0012
    124  CZ2       26.2360    9.3150  -10.0430 C.ar  189  TRP189      0.0191
    125  CZ3       24.3520   10.1480  -11.3050 C.ar  189  TRP189      0.0001
    126  CH2       24.8970    9.2930  -10.3480 C.ar  189  TRP189      0.0015
    127  N         25.1880   10.3800  -18.2750 N.3   192  LEU192     -0.1231
    128  CA        25.0600    8.9590  -17.9640 C.3   192  LEU192      0.1693
    129  C         23.7690    8.6640  -17.2090 C.2   192  LEU192      0.2591
    130  O         23.1050    7.6560  -17.4740 O.2   192  LEU192     -0.2718
    131  CB        26.2750    8.4940  -17.1650 C.3   192  LEU192      0.0284
    132  CG        27.5360    8.2280  -17.9860 C.3   192  LEU192      0.0019
    133  CD1       28.6920    7.9250  -17.0620 C.3   192  LEU192      0.0001
    134  CD2       27.3120    7.0610  -18.9570 C.3   192  LEU192      0.0001
    135  N         23.3920    9.5270  -16.2680 N.am  193  ALA193     -0.1980
    136  CA        22.1310    9.3280  -15.5570 C.3   193  ALA193      0.1597
    137  C         20.9510    9.3610  -16.5220 C.2   193  ALA193      0.2287
    138  O         19.9800    8.6120  -16.3590 O.2   193  ALA193     -0.2864
    139  CB        21.9710   10.3890  -14.4680 C.3   193  ALA193      0.0319
    140  N         19.7570    6.0840  -17.8980 N.3   196  MET196     -0.1245
    141  CA        19.2390    5.0690  -17.0020 C.3   196  MET196      0.1570
    142  C         17.7140    5.0260  -17.0640 C.2   196  MET196      0.2261
    143  O         17.0670    6.0270  -17.3840 O.2   196  MET196     -0.2867
    144  CB        19.6890    5.3430  -15.5700 C.3   196  MET196      0.0387
    145  CG        21.1660    5.3330  -15.3600 C.3   196  MET196      0.0595
    146  SD        21.9280    3.7750  -15.8940 S.3   196  MET196     -0.1393
    147  CE        20.5070    2.6830  -15.9470 C.3   196  MET196      0.0692
    148  N         18.7620    7.2360  -10.1440 N.3   202  THR202     -0.1218
    149  CA        20.2060    7.0940  -10.2860 C.3   202  THR202      0.1862
    150  C         20.9370    8.2350   -9.6010 C.2   202  THR202      0.2287
    151  O         21.9550    8.0200   -8.9360 O.2   202  THR202     -0.2866
    152  CB        20.5650    7.0330  -11.7690 C.3   202  THR202      0.1770
    153  OG1       19.9890    5.8450  -12.3210 O.3   202  THR202     -0.2211
    154  CG2       22.0730    7.0350  -11.9940 C.3   202  THR202      0.0375
@<TRIPOS>BOND
     1    15    16    1
     2    15    12    1
     3    16    17    1
     4    12    13    1
     5    12    11    1
     6    13    14    2
     7    17    11    1
     8    11     3   am
     9    21    20    2
    10     4     3    2
    11     3     2    1
    12     1     2    1
    13    20    19    1
    14   111   110    1
    15    18    24    1
    16    18    19    1
    17     2     5    1
    18   134   132    1
    19    74    75    1
    20    24    23    1
    21    19    22    1
    22   127   128    1
    23   132   131    1
    24   132   133    1
    25   128   129    1
    26   128   131    1
    27   140   141    1
    28   106   109    1
    29   106   105    1
    30   106   107    1
    31    75    78    1
    32    75    76    1
    33   110   109    1
    34   110   112    1
    35     5     6    1
    36    22    23    1
    37   130   129    2
    38   143   142    2
    39     7     6   ar
    40     7     9   ar
    41    78    79    1
    42   108   107    2
    43    80    82   ar
    44    80    79   ar
    45   129   135   am
    46    68    66   am
    47    63    62    2
    48   142   141    1
    49   141   144    1
    50   107   113   am
    51     6     8   ar
    52    82    84   ar
    53    79    81   ar
    54    71    70    1
    55    71    72    2
    56    76    77    2
    57   137   138    2
    58   137   136    1
    59    70    69    1
    60    70    73    1
    61     9    10   ar
    62    62    69   am
    63    62    61    1
    64   135   136    1
    65   147   146    1
    66   146   145    1
    67    66    65    1
    68    66    67    2
    69    64    61    1
    70    64    65    1
    71    61    60    1
    72   113   114    1
    73   144   145    1
    74     8    10   ar
    75   136   139    1
    76    84    85    1
    77    84    83   ar
    78    81    83   ar
    79   115   116    2
    80   115   114    1
    81   114   117    1
    82    60    57   am
    83    58    57    2
    84    57    56    1
    85   117   118    1
    86    53    52    2
    87   153   152    1
    88    52    54   am
    89    52    51    1
    90   118   120   ar
    91   118   119   ar
    92    49    48    2
    93    56    59    1
    94    56    55    1
    95   154   152    1
    96   123   120   ar
    97   123   125   ar
    98   152   149    1
    99   120   122   ar
   100   119   121   ar
   101    51    50    1
   102    45    43    1
   103    29    30    1
   104    29    26    1
   105   125   126   ar
   106    48    55   am
   107    48    47    1
   108    50    47    1
   109    25    26    1
   110   122   121   ar
   111   122   124   ar
   112    47    46    1
   113   126   124   ar
   114    26    27    1
   115   149   148    1
   116   149   150    1
   117    43    44    1
   118    43    40    1
   119    42    41    2
   120    41    40    1
   121   150   151    2
   122    91    92    1
   123    91    90    1
   124    92    86    1
   125    28    27    2
   126    27    31   am
   127    40    39    1
   128    39    33   am
   129    90    87    1
   130   103   102    2
   131    96    95    2
   132    31    32    1
   133    89    88    2
   134    86    87    1
   135    33    32    1
   136    33    34    2
   137    98    99    1
   138    98   101    1
   139    98    97    1
   140    99   100    2
   141    87    88    1
   142    88    93   am
   143   102   101    1
   144   102   104   am
   145    95    97   am
   146    95    94    1
   147    32    35    1
   148    93    94    1
   149    35    36    1
   150    36    38    1
   151    36    37    1
