@<TRIPOS>MOLECULE
tmp/5enbA00.pdb
 106 102 0 0 0
SMALL
GASTEIGER

@<TRIPOS>ATOM
      1  N        -22.8290    9.3740   -4.7460 N.3    28  PRO28      -0.2102
      2  CA       -22.8830    7.9560   -5.1510 C.3    28  PRO28       0.1504
      3  C        -21.5460    7.3070   -5.4420 C.2    28  PRO28       0.2575
      4  O        -21.5070    6.0810   -5.4810 O.2    28  PRO28      -0.2718
      5  CB       -23.7680    7.9820   -6.4150 C.3    28  PRO28       0.0282
      6  CG       -24.3390    9.3460   -6.4770 C.3    28  PRO28       0.0208
      7  CD       -23.3860   10.2380   -5.7840 C.3    28  PRO28       0.0893
      8  N        -20.4650    8.1030   -5.6160 N.am   29  PHE29      -0.1977
      9  CA       -19.2290    7.6050   -6.1440 C.3    29  PHE29       0.1639
     10  C        -18.0740    7.6910   -5.1770 C.2    29  PHE29       0.2290
     11  O        -16.9390    7.4460   -5.5870 O.2    29  PHE29      -0.2864
     12  CB       -18.8960    8.3990   -7.4070 C.3    29  PHE29       0.0560
     13  CG       -20.0300    8.4730   -8.3620 C.ar   29  PHE29      -0.0200
     14  CD1      -20.4110    7.3730   -9.0450 C.ar   29  PHE29      -0.0042
     15  CD2      -20.7220    9.6680   -8.5510 C.ar   29  PHE29      -0.0042
     16  CE1      -21.5020    7.4370   -9.9220 C.ar   29  PHE29      -0.0003
     17  CE2      -21.7460    9.7700   -9.4450 C.ar   29  PHE29      -0.0003
     18  CZ       -22.1640    8.6380  -10.0870 C.ar   29  PHE29      -0.0000
     19  N        -19.3080    0.3910   -4.2110 N.3    33  VAL33      -0.1245
     20  CA       -20.6640   -0.1600   -4.1650 C.3    33  VAL33       0.1561
     21  C        -20.6730   -1.3540   -3.2170 C.2    33  VAL33       0.2260
     22  O        -19.6420   -2.0180   -3.0580 O.2    33  VAL33      -0.2867
     23  CB       -21.1420   -0.5460   -5.5920 C.3    33  VAL33       0.0252
     24  CG1      -22.4980   -1.2460   -5.5640 C.3    33  VAL33       0.0019
     25  CG2      -21.1590    0.6790   -6.5090 C.3    33  VAL33       0.0019
     26  N        -26.7310   -4.2610   -4.0990 N.3    38  TYR38      -0.1241
     27  CA       -26.8150   -4.3460   -5.5640 C.3    38  TYR38       0.1605
     28  C        -26.1370   -5.6420   -5.9910 C.2    38  TYR38       0.2264
     29  O        -24.9830   -5.6420   -6.4620 O.2    38  TYR38      -0.2867
     30  CB       -26.1400   -3.1360   -6.2220 C.3    38  TYR38       0.0534
     31  CG       -26.8500   -1.8270   -5.9490 C.ar   38  TYR38      -0.0201
     32  CD1      -27.7370   -1.2940   -6.8790 C.ar   38  TYR38      -0.0009
     33  CD2      -26.6520   -1.1280   -4.7470 C.ar   38  TYR38      -0.0009
     34  CE1      -28.3890   -0.0870   -6.6480 C.ar   38  TYR38       0.0417
     35  CE2      -27.3130    0.0730   -4.4950 C.ar   38  TYR38       0.0417
     36  CZ       -28.1860    0.5880   -5.4450 C.ar   38  TYR38       0.1957
     37  OH       -28.8420    1.7790   -5.2320 O.3    38  TYR38      -0.2866
     38  N        -24.6340   -5.7220   -9.3350 N.3    41  TYR41      -0.1241
     39  CA       -23.5920   -4.7210   -9.7840 C.3    41  TYR41       0.1605
     40  C        -22.4270   -5.4300  -10.4890 C.2    41  TYR41       0.2264
     41  O        -21.9740   -5.0180  -11.6180 O.2    41  TYR41      -0.2867
     42  CB       -23.0710   -3.8460   -8.5980 C.3    41  TYR41       0.0534
     43  CG       -22.1890   -2.7050   -9.0480 C.ar   41  TYR41      -0.0201
     44  CD1      -22.7400   -1.5970   -9.6800 C.ar   41  TYR41      -0.0009
     45  CD2      -20.8100   -2.7420   -8.8530 C.ar   41  TYR41      -0.0009
     46  CE1      -21.9770   -0.5520  -10.1100 C.ar   41  TYR41       0.0417
     47  CE2      -20.0150   -1.7030   -9.3250 C.ar   41  TYR41       0.0417
     48  CZ       -20.6110   -0.6220   -9.9450 C.ar   41  TYR41       0.1957
     49  OH       -19.8670    0.4540  -10.4370 O.3    41  TYR41      -0.2866
     50  N        -14.7470    0.9350   -9.3510 N.3    49  MET49      -0.1245
     51  CA       -13.7970    1.9900   -8.9660 C.3    49  MET49       0.1570
     52  C        -14.6090    3.0730   -8.2910 C.2    49  MET49       0.2261
     53  O        -15.7960    3.2590   -8.5460 O.2    49  MET49      -0.2867
     54  CB       -13.0220    2.5250  -10.1630 C.3    49  MET49       0.0387
     55  CG       -11.9900    3.6040   -9.7970 C.3    49  MET49       0.0595
     56  SD       -10.7950    3.0900   -8.5600 S.3    49  MET49      -0.1393
     57  CE       -10.0140    1.6590   -9.3010 C.3    49  MET49       0.0692
     58  N        -14.5770    5.3430  -13.1960 N.3    76  ILE76      -0.1245
     59  CA       -15.7880    5.6040  -12.4220 C.3    76  ILE76       0.1561
     60  C        -16.9520    6.0220  -13.3320 C.2    76  ILE76       0.2260
     61  O        -18.0760    5.5660  -13.1850 O.2    76  ILE76      -0.2867
     62  CB       -15.5370    6.6910  -11.3610 C.3    76  ILE76       0.0252
     63  CG1      -14.5110    6.1970  -10.3140 C.3    76  ILE76       0.0019
     64  CG2      -16.8280    7.1310  -10.6660 C.3    76  ILE76       0.0019
     65  CD1      -13.9020    7.2940   -9.4670 C.3    76  ILE76       0.0001
     66  N        -18.1630    3.2730  -15.7490 N.3    79  ASN79      -0.1225
     67  CA       -18.9030    2.2940  -14.9960 C.3    79  ASN79       0.1785
     68  C        -20.3300    2.8240  -14.7120 C.2    79  ASN79       0.2597
     69  O        -21.3200    2.0830  -14.8560 O.2    79  ASN79      -0.2718
     70  CB       -18.2330    1.9550  -13.6530 C.3    79  ASN79       0.1169
     71  CG       -17.0630    1.0220  -13.7750 C.2    79  ASN79       0.2627
     72  OD1      -16.8680    0.3710  -14.7750 O.2    79  ASN79      -0.2716
     73  ND2      -16.3290    0.8900  -12.7090 N.am   79  ASN79      -0.0877
     74  N        -20.4620    4.0980  -14.3640 N.am   80  SER80      -0.1952
     75  CA       -21.7750    4.6390  -14.0450 C.3    80  SER80       0.1924
     76  C        -22.6630    4.5850  -15.2780 C.2    80  SER80       0.2314
     77  O        -23.8060    4.2720  -15.1590 O.2    80  SER80      -0.2863
     78  CB       -21.6840    6.0830  -13.5670 C.3    80  SER80       0.2116
     79  OG       -22.9650    6.6350  -13.3170 O.3    80  SER80      -0.2180
     80  N        -23.8930    1.0220  -15.7370 N.3    83  TYR83      -0.1227
     81  CA       -24.8400    0.5280  -14.7410 C.3    83  TYR83       0.1736
     82  C        -26.1790    1.3020  -14.7080 C.2    83  TYR83       0.2596
     83  O        -27.2620    0.7260  -14.4170 O.2    83  TYR83      -0.2718
     84  CB       -24.1790    0.4850  -13.3320 C.3    83  TYR83       0.0548
     85  CG       -25.0470   -0.2740  -12.3370 C.ar   83  TYR83      -0.0200
     86  CD1      -25.1520   -1.6670  -12.3920 C.ar   83  TYR83      -0.0009
     87  CD2      -25.8160    0.3900  -11.4220 C.ar   83  TYR83      -0.0009
     88  CE1      -25.9750   -2.3620  -11.5440 C.ar   83  TYR83       0.0417
     89  CE2      -26.6430   -0.3080  -10.5590 C.ar   83  TYR83       0.0417
     90  CZ       -26.7050   -1.6770  -10.6340 C.ar   83  TYR83       0.1957
     91  OH       -27.5330   -2.3840   -9.8090 O.3    83  TYR83      -0.2866
     92  N        -26.1010    2.5850  -14.9930 N.am   84  THR84      -0.1953
     93  CA       -27.1970    3.5180  -15.0410 C.3    84  THR84       0.1897
     94  C        -27.1630    4.1390  -16.4580 C.2    84  THR84       0.2313
     95  O        -26.7480    5.2640  -16.6570 O.2    84  THR84      -0.2863
     96  CB       -27.0790    4.6040  -13.9450 C.3    84  THR84       0.1794
     97  OG1      -27.0530    3.9500  -12.6810 O.3    84  THR84      -0.2208
     98  CG2      -28.2810    5.5740  -14.0200 C.3    84  THR84       0.0378
     99  N        -29.2280   10.1040  -11.6040 N.3    91  ILE91      -0.1245
    100  CA       -27.9100    9.6120  -11.3230 C.3    91  ILE91       0.1561
    101  C        -27.0500    9.7800  -12.5820 C.2    91  ILE91       0.2260
    102  O        -25.8770   10.1840  -12.4940 O.2    91  ILE91      -0.2867
    103  CB       -27.8910    8.1380  -10.8490 C.3    91  ILE91       0.0252
    104  CG1      -28.6970    7.9230   -9.5270 C.3    91  ILE91       0.0019
    105  CG2      -26.4830    7.6400  -10.7330 C.3    91  ILE91       0.0019
    106  CD1      -28.1650    8.6620   -8.3340 C.3    91  ILE91       0.0001
@<TRIPOS>BOND
     1    95    94    2
     2    94    93    1
     3    66    67    1
     4    80    81    1
     5    76    77    2
     6    76    75    1
     7    93    92    1
     8    93    96    1
     9    67    68    1
    10    67    70    1
    11    92    82   am
    12    69    68    2
    13    72    71    2
    14    81    82    1
    15    81    84    1
    16    68    74   am
    17    82    83    2
    18    74    75    1
    19    75    78    1
    20    98    96    1
    21    96    97    1
    22    71    70    1
    23    71    73   am
    24    78    79    1
    25    60    61    2
    26    60    59    1
    27    84    85    1
    28    58    59    1
    29   101   102    2
    30   101   100    1
    31    59    62    1
    32    86    85   ar
    33    86    88   ar
    34    85    87   ar
    35    41    40    2
    36    99   100    1
    37    88    90   ar
    38    87    89   ar
    39    62    64    1
    40    62    63    1
    41   100   103    1
    42   103   105    1
    43   103   104    1
    44    90    89   ar
    45    90    91    1
    46    40    39    1
    47    49    48    1
    48    63    65    1
    49    54    55    1
    50    54    51    1
    51    46    48   ar
    52    46    44   ar
    53    18    16   ar
    54    18    17   ar
    55    48    47   ar
    56    16    14   ar
    57    55    56    1
    58    39    38    1
    59    39    42    1
    60    44    43   ar
    61   104   106    1
    62    17    15   ar
    63    50    51    1
    64    47    45   ar
    65    57    56    1
    66    43    45   ar
    67    43    42    1
    68    14    13   ar
    69    51    52    1
    70    15    13   ar
    71    53    52    2
    72    13    12    1
    73    12     9    1
    74    32    34   ar
    75    32    31   ar
    76    34    36   ar
    77    25    23    1
    78     6     5    1
    79     6     7    1
    80    29    28    2
    81     5     2    1
    82    30    31    1
    83    30    27    1
    84     9     8    1
    85     9    10    1
    86    28    27    1
    87    31    33   ar
    88     7     1    1
    89     8     3   am
    90    23    24    1
    91    23    20    1
    92    11    10    2
    93    27    26    1
    94     4     3    2
    95    36    37    1
    96    36    35   ar
    97     3     2    1
    98     2     1    1
    99    33    35   ar
   100    19    20    1
   101    20    21    1
   102    21    22    2
