@<TRIPOS>MOLECULE
tmp/5encA00.pdb
 91 88 0 0 0
SMALL
GASTEIGER

@<TRIPOS>ATOM
      1  N        -23.1030    9.6460   -4.5820 N.3    28  PRO28      -0.2102
      2  CA       -23.1950    8.2020   -4.9380 C.3    28  PRO28       0.1504
      3  C        -21.8740    7.4910   -5.2310 C.2    28  PRO28       0.2575
      4  O        -21.8390    6.2520   -5.2980 O.2    28  PRO28      -0.2718
      5  CB       -24.0860    8.2150   -6.1960 C.3    28  PRO28       0.0282
      6  CG       -24.7320    9.5340   -6.2250 C.3    28  PRO28       0.0208
      7  CD       -23.7250   10.4620   -5.6290 C.3    28  PRO28       0.0893
      8  N        -20.7960    8.2620   -5.4340 N.am   29  PHE29      -0.1977
      9  CA       -19.5380    7.7670   -5.9520 C.3    29  PHE29       0.1639
     10  C        -18.3800    7.8430   -4.9650 C.2    29  PHE29       0.2290
     11  O        -17.2380    7.5250   -5.3360 O.2    29  PHE29      -0.2864
     12  CB       -19.1920    8.5840   -7.2280 C.3    29  PHE29       0.0560
     13  CG       -20.3080    8.6910   -8.1770 C.ar   29  PHE29      -0.0200
     14  CD1      -20.7060    7.5750   -8.9120 C.ar   29  PHE29      -0.0042
     15  CD2      -21.0330    9.8610   -8.3480 C.ar   29  PHE29      -0.0042
     16  CE1      -21.8000    7.6430   -9.7980 C.ar   29  PHE29      -0.0003
     17  CE2      -22.0780    9.9450   -9.2550 C.ar   29  PHE29      -0.0003
     18  CZ       -22.5070    8.8090   -9.9430 C.ar   29  PHE29      -0.0000
     19  N        -17.9000    6.1010   -2.0950 N.3    31  GLN31      -0.1245
     20  CA       -17.5570    4.8280   -1.4940 C.3    31  GLN31       0.1566
     21  C        -17.8480    3.7070   -2.4460 C.2    31  GLN31       0.2260
     22  O        -18.7070    3.8390   -3.3370 O.2    31  GLN31      -0.2867
     23  CB       -18.4220    4.5820   -0.2430 C.3    31  GLN31       0.0367
     24  CG       -18.0130    5.4350    0.9320 C.3    31  GLN31       0.0905
     25  CD       -16.8370    4.8430    1.7110 C.2    31  GLN31       0.2608
     26  OE1      -16.9340    3.7480    2.3060 O.2    31  GLN31      -0.2717
     27  NE2      -15.7320    5.5860    1.7550 N.am   31  GLN31      -0.0878
     28  N        -19.5430    0.7190   -4.1680 N.3    33  VAL33      -0.1245
     29  CA       -20.8710    0.1360   -4.1780 C.3    33  VAL33       0.1561
     30  C        -20.8070   -1.0840   -3.2360 C.2    33  VAL33       0.2260
     31  O        -19.7790   -1.8130   -3.1970 O.2    33  VAL33      -0.2867
     32  CB       -21.3360   -0.2390   -5.6160 C.3    33  VAL33       0.0252
     33  CG1      -22.6360   -1.0120   -5.6110 C.3    33  VAL33       0.0019
     34  CG2      -21.5140    1.0180   -6.4590 C.3    33  VAL33       0.0019
     35  N        -25.8350   -5.0930   -2.8510 N.3    38  TYR38      -0.1241
     36  CA       -26.4710   -4.7430   -4.1510 C.3    38  TYR38       0.1605
     37  C        -26.2190   -5.7370   -5.3210 C.2    38  TYR38       0.2264
     38  O        -25.2160   -5.6000   -6.0820 O.2    38  TYR38      -0.2867
     39  CB       -26.1190   -3.2880   -4.4940 C.3    38  TYR38       0.0534
     40  CG       -26.8390   -2.3320   -3.5560 C.ar   38  TYR38      -0.0201
     41  CD1      -28.2310   -2.2400   -3.5640 C.ar   38  TYR38      -0.0009
     42  CD2      -26.1340   -1.5460   -2.6110 C.ar   38  TYR38      -0.0009
     43  CE1      -28.9040   -1.4200   -2.6630 C.ar   38  TYR38       0.0417
     44  CE2      -26.8030   -0.6900   -1.7180 C.ar   38  TYR38       0.0417
     45  CZ       -28.1830   -0.6380   -1.7510 C.ar   38  TYR38       0.1957
     46  OH       -28.8750    0.2250   -0.9640 O.3    38  TYR38      -0.2866
     47  N        -24.8050   -5.8620   -9.1230 N.3    41  TYR41      -0.1241
     48  CA       -23.7830   -4.8150   -9.5640 C.3    41  TYR41       0.1605
     49  C        -22.6240   -5.5130  -10.2730 C.2    41  TYR41       0.2264
     50  O        -22.2030   -5.0650  -11.3920 O.2    41  TYR41      -0.2867
     51  CB       -23.2610   -3.8940   -8.4360 C.3    41  TYR41       0.0534
     52  CG       -22.4500   -2.7220   -8.9380 C.ar   41  TYR41      -0.0201
     53  CD1      -23.0820   -1.6020   -9.5220 C.ar   41  TYR41      -0.0009
     54  CD2      -21.0400   -2.7010   -8.8440 C.ar   41  TYR41      -0.0009
     55  CE1      -22.3660   -0.5080  -10.0180 C.ar   41  TYR41       0.0417
     56  CE2      -20.3160   -1.5910   -9.3160 C.ar   41  TYR41       0.0417
     57  CZ       -20.9690   -0.5250   -9.9230 C.ar   41  TYR41       0.1957
     58  OH       -20.2770    0.5630  -10.4190 O.3    41  TYR41      -0.2866
     59  N        -20.7110    4.0810  -14.0880 N.3    80  SER80      -0.1217
     60  CA       -22.0380    4.6510  -13.8470 C.3    80  SER80       0.1889
     61  C        -22.8590    4.6520  -15.1330 C.2    80  SER80       0.2288
     62  O        -23.9870    4.2340  -15.1460 O.2    80  SER80      -0.2866
     63  CB       -21.9620    6.0540  -13.2480 C.3    80  SER80       0.2089
     64  OG       -23.2700    6.5770  -13.0140 O.3    80  SER80      -0.2183
     65  N        -24.0760    1.1080  -15.5890 N.3    83  TYR83      -0.1227
     66  CA       -25.0690    0.6290  -14.5970 C.3    83  TYR83       0.1736
     67  C        -26.3690    1.4440  -14.6130 C.2    83  TYR83       0.2596
     68  O        -27.4750    0.8700  -14.3970 O.2    83  TYR83      -0.2718
     69  CB       -24.4600    0.5750  -13.1820 C.3    83  TYR83       0.0548
     70  CG       -25.3380   -0.2230  -12.2280 C.ar   83  TYR83      -0.0200
     71  CD1      -25.3570   -1.6120  -12.2880 C.ar   83  TYR83      -0.0009
     72  CD2      -26.1910    0.4130  -11.3460 C.ar   83  TYR83      -0.0009
     73  CE1      -26.2060   -2.3750  -11.4850 C.ar   83  TYR83       0.0417
     74  CE2      -27.0270   -0.3440  -10.4880 C.ar   83  TYR83       0.0417
     75  CZ       -27.0150   -1.7240  -10.5640 C.ar   83  TYR83       0.1957
     76  OH       -27.8360   -2.5020   -9.7700 O.3    83  TYR83      -0.2866
     77  N        -26.2460    2.7290  -14.9190 N.am   84  THR84      -0.1953
     78  CA       -27.3240    3.6980  -14.9540 C.3    84  THR84       0.1897
     79  C        -27.2550    4.4230  -16.3260 C.2    84  THR84       0.2313
     80  O        -26.9350    5.5990  -16.4250 O.2    84  THR84      -0.2863
     81  CB       -27.1970    4.6760  -13.7820 C.3    84  THR84       0.1794
     82  OG1      -27.0600    3.8960  -12.5800 O.3    84  THR84      -0.2208
     83  CG2      -28.4170    5.5620  -13.6820 C.3    84  THR84       0.0378
     84  N        -29.4530   10.0930  -11.3130 N.3    91  ILE91      -0.1245
     85  CA       -28.1100    9.5680  -11.0440 C.3    91  ILE91       0.1561
     86  C        -27.2340    9.7340  -12.2840 C.2    91  ILE91       0.2260
     87  O        -26.0860   10.1800  -12.1940 O.2    91  ILE91      -0.2867
     88  CB       -28.1530    8.1300  -10.5370 C.3    91  ILE91       0.0252
     89  CG1      -28.9080    8.0890   -9.2080 C.3    91  ILE91       0.0019
     90  CG2      -26.7690    7.5140  -10.4470 C.3    91  ILE91       0.0019
     91  CD1      -28.3920    9.0340   -8.1410 C.3    91  ILE91       0.0001
@<TRIPOS>BOND
     1    80    79    2
     2    79    78    1
     3    65    66    1
     4    62    61    2
     5    61    60    1
     6    78    77    1
     7    78    81    1
     8    77    67   am
     9    67    66    1
    10    67    68    2
    11    66    69    1
    12    59    60    1
    13    60    63    1
    14    81    83    1
    15    81    82    1
    16    63    64    1
    17    69    70    1
    18    71    70   ar
    19    71    73   ar
    20    86    87    2
    21    86    85    1
    22    70    72   ar
    23    73    75   ar
    24    50    49    2
    25    72    74   ar
    26    84    85    1
    27    85    88    1
    28    75    74   ar
    29    75    76    1
    30    88    90    1
    31    88    89    1
    32    58    57    1
    33    49    48    1
    34    55    57   ar
    35    55    53   ar
    36    18    16   ar
    37    18    17   ar
    38    57    56   ar
    39    16    14   ar
    40    48    47    1
    41    48    51    1
    42    53    52   ar
    43    56    54   ar
    44    17    15   ar
    45    89    91    1
    46    52    54   ar
    47    52    51    1
    48    14    13   ar
    49    15    13   ar
    50    13    12    1
    51    12     9    1
    52    34    32    1
    53     6     5    1
    54     6     7    1
    55     5     2    1
    56    38    37    2
    57     9     8    1
    58     9    10    1
    59     7     1    1
    60    32    33    1
    61    32    29    1
    62     8     3   am
    63    11    10    2
    64    37    36    1
    65     4     3    2
    66     3     2    1
    67     2     1    1
    68    39    36    1
    69    39    40    1
    70    29    28    1
    71    29    30    1
    72    36    35    1
    73    41    40   ar
    74    41    43   ar
    75    40    42   ar
    76    22    21    2
    77    30    31    2
    78    43    45   ar
    79    42    44   ar
    80    21    20    1
    81    19    20    1
    82    45    44   ar
    83    45    46    1
    84    20    23    1
    85    23    24    1
    86    24    25    1
    87    25    27   am
    88    25    26    2
