@<TRIPOS>MOLECULE
tmp/5eneA00.pdb
 88 85 0 0 0
SMALL
GASTEIGER

@<TRIPOS>ATOM
      1  N        -22.9540    9.5290   -4.6360 N.3    28  PRO28      -0.2102
      2  CA       -23.0180    8.0960   -4.9960 C.3    28  PRO28       0.1504
      3  C        -21.6990    7.3960   -5.3370 C.2    28  PRO28       0.2575
      4  O        -21.6780    6.1630   -5.4190 O.2    28  PRO28      -0.2718
      5  CB       -23.9270    8.1020   -6.2300 C.3    28  PRO28       0.0282
      6  CG       -24.6310    9.4050   -6.2220 C.3    28  PRO28       0.0208
      7  CD       -23.6290   10.3570   -5.6430 C.3    28  PRO28       0.0893
      8  N        -20.6380    8.1880   -5.5540 N.am   29  PHE29      -0.1977
      9  CA       -19.3680    7.7270   -6.0570 C.3    29  PHE29       0.1639
     10  C        -18.2260    7.7730   -5.0650 C.2    29  PHE29       0.2290
     11  O        -17.1090    7.4370   -5.4330 O.2    29  PHE29      -0.2864
     12  CB       -19.0120    8.5460   -7.3220 C.3    29  PHE29       0.0560
     13  CG       -20.1590    8.6500   -8.2840 C.ar   29  PHE29      -0.0200
     14  CD1      -20.5780    7.5440   -8.9840 C.ar   29  PHE29      -0.0042
     15  CD2      -20.8780    9.8390   -8.4070 C.ar   29  PHE29      -0.0042
     16  CE1      -21.6830    7.6180   -9.8500 C.ar   29  PHE29      -0.0003
     17  CE2      -21.9520    9.9280   -9.2640 C.ar   29  PHE29      -0.0003
     18  CZ       -22.3750    8.8060   -9.9540 C.ar   29  PHE29      -0.0000
     19  N        -19.3930    0.3930   -4.2700 N.3    33  VAL33      -0.1245
     20  CA       -20.7450   -0.1490   -4.2550 C.3    33  VAL33       0.1561
     21  C        -20.7720   -1.3760   -3.3280 C.2    33  VAL33       0.2260
     22  O        -19.8330   -2.1730   -3.3140 O.2    33  VAL33      -0.2867
     23  CB       -21.2100   -0.4900   -5.6870 C.3    33  VAL33       0.0252
     24  CG1      -22.5400   -1.2360   -5.6690 C.3    33  VAL33       0.0019
     25  CG2      -21.3400    0.7860   -6.5020 C.3    33  VAL33       0.0019
     26  N        -26.5020   -4.1640   -3.7540 N.3    38  TYR38      -0.1241
     27  CA       -26.6670   -4.2800   -5.2100 C.3    38  TYR38       0.1605
     28  C        -26.0100   -5.5790   -5.7130 C.2    38  TYR38       0.2264
     29  O        -24.8770   -5.5530   -6.2100 O.2    38  TYR38      -0.2867
     30  CB       -26.0490   -3.0590   -5.9040 C.3    38  TYR38       0.0534
     31  CG       -26.8460   -1.7880   -5.7210 C.ar   38  TYR38      -0.0201
     32  CD1      -27.6940   -1.3340   -6.7260 C.ar   38  TYR38      -0.0009
     33  CD2      -26.7700   -1.0470   -4.5410 C.ar   38  TYR38      -0.0009
     34  CE1      -28.4350   -0.1720   -6.5800 C.ar   38  TYR38       0.0417
     35  CE2      -27.5130    0.1200   -4.3790 C.ar   38  TYR38       0.0417
     36  CZ       -28.3520    0.5510   -5.4010 C.ar   38  TYR38       0.1957
     37  OH       -29.1050    1.7080   -5.2790 O.3    38  TYR38      -0.2866
     38  N        -24.5860   -5.8580   -9.2250 N.3    41  TYR41      -0.1241
     39  CA       -23.5610   -4.8520   -9.6600 C.3    41  TYR41       0.1605
     40  C        -22.4150   -5.5280  -10.4010 C.2    41  TYR41       0.2264
     41  O        -22.0120   -5.0860  -11.5020 O.2    41  TYR41      -0.2867
     42  CB       -22.9810   -4.0130   -8.4900 C.3    41  TYR41       0.0534
     43  CG       -22.2130   -2.7870   -9.0010 C.ar   41  TYR41      -0.0201
     44  CD1      -22.8950   -1.7040   -9.5420 C.ar   41  TYR41      -0.0009
     45  CD2      -20.8140   -2.7390   -8.9820 C.ar   41  TYR41      -0.0009
     46  CE1      -22.2080   -0.5890  -10.0700 C.ar   41  TYR41       0.0417
     47  CE2      -20.1240   -1.6320   -9.5070 C.ar   41  TYR41       0.0417
     48  CZ       -20.8340   -0.5620  -10.0270 C.ar   41  TYR41       0.1957
     49  OH       -20.1940    0.5410  -10.5410 O.3    41  TYR41      -0.2866
     50  N        -20.6290    4.0950  -14.2310 N.3    80  SER80      -0.1217
     51  CA       -21.9430    4.6560  -13.9360 C.3    80  SER80       0.1889
     52  C        -22.8080    4.6420  -15.2030 C.2    80  SER80       0.2288
     53  O        -23.9590    4.2720  -15.1430 O.2    80  SER80      -0.2866
     54  CB       -21.8610    6.0730  -13.3770 C.3    80  SER80       0.2089
     55  OG       -23.1680    6.5490  -13.0330 O.3    80  SER80      -0.2183
     56  N        -24.0520    1.0770  -15.6910 N.3    83  TYR83      -0.1227
     57  CA       -25.0010    0.5900  -14.6750 C.3    83  TYR83       0.1736
     58  C        -26.3160    1.3880  -14.6500 C.2    83  TYR83       0.2596
     59  O        -27.4120    0.8320  -14.3310 O.2    83  TYR83      -0.2718
     60  CB       -24.3550    0.5500  -13.2810 C.3    83  TYR83       0.0548
     61  CG       -25.2020   -0.2330  -12.3150 C.ar   83  TYR83      -0.0200
     62  CD1      -25.2300   -1.6280  -12.3660 C.ar   83  TYR83      -0.0009
     63  CD2      -26.0240    0.4110  -11.3940 C.ar   83  TYR83      -0.0009
     64  CE1      -26.0540   -2.3630  -11.5250 C.ar   83  TYR83       0.0417
     65  CE2      -26.8370   -0.3210  -10.5230 C.ar   83  TYR83       0.0417
     66  CZ       -26.8330   -1.7030  -10.5910 C.ar   83  TYR83       0.1957
     67  OH       -27.6490   -2.4590   -9.7760 O.3    83  TYR83      -0.2866
     68  N        -26.2160    2.6750  -14.9470 N.am   84  THR84      -0.1953
     69  CA       -27.3170    3.5920  -14.9820 C.3    84  THR84       0.1897
     70  C        -27.2790    4.2650  -16.3610 C.2    84  THR84       0.2313
     71  O        -26.9020    5.4120  -16.5020 O.2    84  THR84      -0.2863
     72  CB       -27.1970    4.6130  -13.8190 C.3    84  THR84       0.1794
     73  OG1      -27.1340    3.8910  -12.5880 O.3    84  THR84      -0.2208
     74  CG2      -28.3580    5.5890  -13.8060 C.3    84  THR84       0.0378
     75  N        -32.5250    9.2120  -15.6840 N.3    89  SER89      -0.1217
     76  CA       -32.1240    9.0390  -14.2800 C.3    89  SER89       0.1889
     77  C        -31.4040   10.2370  -13.7020 C.2    89  SER89       0.2288
     78  O        -30.4390   10.7010  -14.2740 O.2    89  SER89      -0.2866
     79  CB       -31.2040    7.8520  -14.1120 C.3    89  SER89       0.2089
     80  OG       -30.7030    7.7750  -12.7850 O.3    89  SER89      -0.2183
     81  N        -29.3990   10.0780  -11.3340 N.3    91  ILE91      -0.1245
     82  CA       -28.0510    9.5750  -11.0750 C.3    91  ILE91       0.1561
     83  C        -27.1930    9.7080  -12.3290 C.2    91  ILE91       0.2260
     84  O        -26.0110   10.1060  -12.2660 O.2    91  ILE91      -0.2867
     85  CB       -28.0610    8.1160  -10.5640 C.3    91  ILE91       0.0252
     86  CG1      -28.8740    7.9900   -9.2620 C.3    91  ILE91       0.0019
     87  CG2      -26.6500    7.5990  -10.3980 C.3    91  ILE91       0.0019
     88  CD1      -28.4410    8.8790   -8.1150 C.3    91  ILE91       0.0001
@<TRIPOS>BOND
     1    71    70    2
     2    70    69    1
     3    56    57    1
     4    75    76    1
     5    52    53    2
     6    52    51    1
     7    69    68    1
     8    69    72    1
     9    68    58   am
    10    57    58    1
    11    57    60    1
    12    58    59    2
    13    76    79    1
    14    76    77    1
    15    78    77    2
    16    50    51    1
    17    79    80    1
    18    51    54    1
    19    72    74    1
    20    72    73    1
    21    54    55    1
    22    60    61    1
    23    62    61   ar
    24    62    64   ar
    25    83    84    2
    26    83    82    1
    27    61    63   ar
    28    64    66   ar
    29    41    40    2
    30    63    65   ar
    31    81    82    1
    32    82    85    1
    33    66    65   ar
    34    66    67    1
    35    85    87    1
    36    85    86    1
    37    49    48    1
    38    40    39    1
    39    46    48   ar
    40    46    44   ar
    41    48    47   ar
    42    18    16   ar
    43    18    17   ar
    44    16    14   ar
    45    39    38    1
    46    39    42    1
    47    44    43   ar
    48    47    45   ar
    49    17    15   ar
    50    86    88    1
    51    43    45   ar
    52    43    42    1
    53    14    13   ar
    54    15    13   ar
    55    13    12    1
    56    12     9    1
    57    32    34   ar
    58    32    31   ar
    59    34    36   ar
    60    25    23    1
    61     5     6    1
    62     5     2    1
    63     6     7    1
    64    29    28    2
    65     9     8    1
    66     9    10    1
    67    30    31    1
    68    30    27    1
    69    31    33   ar
    70    28    27    1
    71    23    24    1
    72    23    20    1
    73     7     1    1
    74     8     3   am
    75    11    10    2
    76     4     3    2
    77    36    37    1
    78    36    35   ar
    79     3     2    1
    80    27    26    1
    81     2     1    1
    82    33    35   ar
    83    19    20    1
    84    20    21    1
    85    21    22    2
