@<TRIPOS>MOLECULE
tmp/5enfA00.pdb
 99 97 0 0 0
SMALL
GASTEIGER

@<TRIPOS>ATOM
      1  N        -23.1380    9.5130   -4.7160 N.3    28  PRO28      -0.2102
      2  CA       -23.2080    8.0890   -5.0590 C.3    28  PRO28       0.1504
      3  C        -21.8870    7.3760   -5.3900 C.2    28  PRO28       0.2575
      4  O        -21.8450    6.1460   -5.4420 O.2    28  PRO28      -0.2718
      5  CB       -24.1790    8.0590   -6.2620 C.3    28  PRO28       0.0282
      6  CG       -24.7550    9.4310   -6.3740 C.3    28  PRO28       0.0208
      7  CD       -23.7590   10.3580   -5.7480 C.3    28  PRO28       0.0893
      8  N        -20.8310    8.1610   -5.5920 N.am   29  PHE29      -0.1977
      9  CA       -19.5420    7.7090   -6.1090 C.3    29  PHE29       0.1639
     10  C        -18.4080    7.7980   -5.0900 C.2    29  PHE29       0.2290
     11  O        -17.2500    7.5190   -5.4560 O.2    29  PHE29      -0.2864
     12  CB       -19.2070    8.5320   -7.3670 C.3    29  PHE29       0.0560
     13  CG       -20.3510    8.6300   -8.3230 C.ar   29  PHE29      -0.0200
     14  CD1      -20.7930    7.4990   -8.9740 C.ar   29  PHE29      -0.0042
     15  CD2      -21.0400    9.8310   -8.5010 C.ar   29  PHE29      -0.0042
     16  CE1      -21.9220    7.5560   -9.8090 C.ar   29  PHE29      -0.0003
     17  CE2      -22.1430    9.8980   -9.3490 C.ar   29  PHE29      -0.0003
     18  CZ       -22.5750    8.7600   -9.9990 C.ar   29  PHE29      -0.0000
     19  N        -19.5060    0.4600   -4.2650 N.3    33  VAL33      -0.1245
     20  CA       -20.8670   -0.0830   -4.2500 C.3    33  VAL33       0.1561
     21  C        -20.8630   -1.3340   -3.3630 C.2    33  VAL33       0.2260
     22  O        -19.9870   -2.1940   -3.4930 O.2    33  VAL33      -0.2867
     23  CB       -21.3630   -0.3860   -5.6790 C.3    33  VAL33       0.0252
     24  CG1      -22.7410   -1.0500   -5.6360 C.3    33  VAL33       0.0019
     25  CG2      -21.4160    0.9020   -6.4890 C.3    33  VAL33       0.0019
     26  N        -26.2830   -4.5510   -3.5060 N.3    38  TYR38      -0.1241
     27  CA       -26.5760   -4.5620   -4.9510 C.3    38  TYR38       0.1605
     28  C        -25.9570   -5.8070   -5.5850 C.2    38  TYR38       0.2264
     29  O        -24.9290   -5.7040   -6.2420 O.2    38  TYR38      -0.2867
     30  CB       -26.0170   -3.3190   -5.6500 C.3    38  TYR38       0.0534
     31  CG       -26.8430   -2.0700   -5.5030 C.ar   38  TYR38      -0.0201
     32  CD1      -27.7990   -1.7360   -6.4630 C.ar   38  TYR38      -0.0009
     33  CD2      -26.6600   -1.2080   -4.4200 C.ar   38  TYR38      -0.0009
     34  CE1      -28.5620   -0.5890   -6.3460 C.ar   38  TYR38       0.0417
     35  CE2      -27.4220   -0.0530   -4.2920 C.ar   38  TYR38       0.0417
     36  CZ       -28.3720    0.2450   -5.2550 C.ar   38  TYR38       0.1957
     37  OH       -29.1150    1.3910   -5.1580 O.3    38  TYR38      -0.2866
     38  N        -24.6710   -5.8150   -9.2050 N.3    41  TYR41      -0.1241
     39  CA       -23.6650   -4.8040   -9.6580 C.3    41  TYR41       0.1605
     40  C        -22.5160   -5.4760  -10.4310 C.2    41  TYR41       0.2264
     41  O        -22.1560   -5.0610  -11.5630 O.2    41  TYR41      -0.2867
     42  CB       -23.1220   -3.9260   -8.4960 C.3    41  TYR41       0.0534
     43  CG       -22.3880   -2.6800   -8.9990 C.ar   41  TYR41      -0.0201
     44  CD1      -23.0990   -1.6080   -9.5650 C.ar   41  TYR41      -0.0009
     45  CD2      -20.9700   -2.5940   -8.9670 C.ar   41  TYR41      -0.0009
     46  CE1      -22.4540   -0.4860  -10.0700 C.ar   41  TYR41       0.0417
     47  CE2      -20.3160   -1.4730   -9.4650 C.ar   41  TYR41       0.0417
     48  CZ       -21.0370   -0.4060  -10.0090 C.ar   41  TYR41       0.1957
     49  OH       -20.4020    0.7190  -10.5310 O.3    41  TYR41      -0.2866
     50  N        -20.6910    4.0890  -14.1270 N.3    80  SER80      -0.1217
     51  CA       -22.0190    4.6630  -13.8860 C.3    80  SER80       0.1889
     52  C        -22.8880    4.6680  -15.1330 C.2    80  SER80       0.2288
     53  O        -24.0830    4.3310  -15.0420 O.2    80  SER80      -0.2866
     54  CB       -21.9530    6.0790  -13.3470 C.3    80  SER80       0.2089
     55  OG       -23.2250    6.5800  -13.0130 O.3    80  SER80      -0.2183
     56  N        -24.1700    1.0570  -15.6180 N.3    83  TYR83      -0.1227
     57  CA       -25.0760    0.5100  -14.5980 C.3    83  TYR83       0.1736
     58  C        -26.4060    1.3010  -14.5710 C.2    83  TYR83       0.2596
     59  O        -27.4810    0.7340  -14.2950 O.2    83  TYR83      -0.2718
     60  CB       -24.4280    0.4360  -13.1970 C.3    83  TYR83       0.0548
     61  CG       -25.2990   -0.3470  -12.2670 C.ar   83  TYR83      -0.0200
     62  CD1      -25.3250   -1.7320  -12.3150 C.ar   83  TYR83      -0.0009
     63  CD2      -26.1250    0.3100  -11.3520 C.ar   83  TYR83      -0.0009
     64  CE1      -26.2370   -2.4720  -11.5090 C.ar   83  TYR83       0.0417
     65  CE2      -26.9930   -0.4010  -10.5130 C.ar   83  TYR83       0.0417
     66  CZ       -27.0240   -1.7900  -10.5620 C.ar   83  TYR83       0.1957
     67  OH       -27.9140   -2.4790   -9.7350 O.3    83  TYR83      -0.2866
     68  N        -26.3120    2.5950  -14.8640 N.am   84  THR84      -0.1953
     69  CA       -27.4250    3.5380  -14.9120 C.3    84  THR84       0.1897
     70  C        -27.4140    4.2070  -16.2880 C.2    84  THR84       0.2313
     71  O        -27.0070    5.3720  -16.4260 O.2    84  THR84      -0.2863
     72  CB       -27.3080    4.5570  -13.7770 C.3    84  THR84       0.1794
     73  OG1      -27.2300    3.8600  -12.5340 O.3    84  THR84      -0.2208
     74  CG2      -28.4880    5.5350  -13.7500 C.3    84  THR84       0.0378
     75  N        -32.7070    9.2060  -15.7150 N.3    89  SER89      -0.1202
     76  CA       -32.3520    9.0560  -14.3090 C.3    89  SER89       0.2020
     77  C        -31.6350   10.2650  -13.7520 C.2    89  SER89       0.2619
     78  O        -30.5880   10.6750  -14.3050 O.2    89  SER89      -0.2717
     79  CB       -31.4530    7.8390  -14.1080 C.3    89  SER89       0.2103
     80  OG       -30.9480    7.8260  -12.7910 O.3    89  SER89      -0.2182
     81  N        -32.1270   10.8050  -12.6350 N.am   90  ARG90      -0.1965
     82  CA       -31.3480   11.8290  -11.9220 C.3    90  ARG90       0.1729
     83  C        -29.9010   11.3950  -11.5750 C.2    90  ARG90       0.2616
     84  O        -29.0350   12.2620  -11.4140 O.2    90  ARG90      -0.2715
     85  CB       -32.0720   12.2930  -10.6620 C.3    90  ARG90       0.0348
     86  CG       -32.1600   11.2420   -9.5750 C.3    90  ARG90       0.0492
     87  CD       -33.1630   11.6890   -8.5310 C.3    90  ARG90       0.2205
     88  NE       -34.5100   11.7180   -9.0390 N.pl3  90  ARG90      -0.0865
     89  CZ       -35.5340   12.2120   -8.3460 C.cat  90  ARG90       0.5346
     90  NH1      -35.3270   12.7370   -7.1370 N.pl3  90  ARG90       0.1354
     91  NH2      -36.7540   12.1960   -8.8620 N.pl3  90  ARG90       0.1354
     92  N        -29.6400   10.0940  -11.4160 N.am   91  ILE91      -0.1977
     93  CA       -28.2670    9.6190  -11.1120 C.3    91  ILE91       0.1596
     94  C        -27.4240    9.7370  -12.3610 C.2    91  ILE91       0.2287
     95  O        -26.2110   10.1060  -12.2840 O.2    91  ILE91      -0.2864
     96  CB       -28.2470    8.1630  -10.5860 C.3    91  ILE91       0.0276
     97  CG1      -29.0530    8.0450   -9.2780 C.3    91  ILE91       0.0022
     98  CG2      -26.8210    7.6490  -10.3950 C.3    91  ILE91       0.0022
     99  CD1      -28.6890    9.0610   -8.2050 C.3    91  ILE91       0.0001
@<TRIPOS>BOND
     1    71    70    2
     2    70    69    1
     3    75    76    1
     4    56    57    1
     5    52    53    2
     6    52    51    1
     7    69    68    1
     8    69    72    1
     9    68    58   am
    10    57    58    1
    11    57    60    1
    12    58    59    2
    13    76    79    1
    14    76    77    1
    15    78    77    2
    16    50    51    1
    17    79    80    1
    18    51    54    1
    19    72    74    1
    20    72    73    1
    21    77    81   am
    22    54    55    1
    23    60    61    1
    24    81    82    1
    25    94    95    2
    26    94    93    1
    27    62    61   ar
    28    62    64   ar
    29    61    63   ar
    30    82    83    1
    31    82    85    1
    32    83    92   am
    33    83    84    2
    34    41    40    2
    35    64    66   ar
    36    92    93    1
    37    63    65   ar
    38    93    96    1
    39    85    86    1
    40    96    98    1
    41    96    97    1
    42    66    65   ar
    43    66    67    1
    44    49    48    1
    45    40    39    1
    46    46    48   ar
    47    46    44   ar
    48    48    47   ar
    49    18    16   ar
    50    18    17   ar
    51    16    14   ar
    52    39    38    1
    53    39    42    1
    54    86    87    1
    55    44    43   ar
    56    47    45   ar
    57    17    15   ar
    58    97    99    1
    59    88    87    1
    60    88    89    2
    61    43    45   ar
    62    43    42    1
    63    14    13   ar
    64    91    89    1
    65    15    13   ar
    66    89    90    1
    67    13    12    1
    68    12     9    1
    69    25    23    1
    70    32    34   ar
    71    32    31   ar
    72     6     5    1
    73     6     7    1
    74    34    36   ar
    75     5     2    1
    76    29    28    2
    77     9     8    1
    78     9    10    1
    79     7     1    1
    80    23    24    1
    81    23    20    1
    82    30    31    1
    83    30    27    1
    84     8     3   am
    85    28    27    1
    86    31    33   ar
    87    11    10    2
    88     4     3    2
    89     3     2    1
    90    36    37    1
    91    36    35   ar
    92     2     1    1
    93    27    26    1
    94    33    35   ar
    95    19    20    1
    96    20    21    1
    97    22    21    2
