@<TRIPOS>MOLECULE
tmp/5engA00.pdb
 154 150 0 0 0
SMALL
GASTEIGER

@<TRIPOS>ATOM
      1  N         33.1600   11.4850   85.8780 N.3    24  PRO24      -0.2116
      2  CA        33.0780   10.2470   85.0950 C.3    24  PRO24       0.1372
      3  C         34.4160    9.5940   84.7700 C.2    24  PRO24       0.2244
      4  O         34.4390    8.5010   84.2070 O.2    24  PRO24      -0.2868
      5  CB        32.4480   10.7310   83.7860 C.3    24  PRO24       0.0268
      6  CG        32.9640   12.1040   83.6260 C.3    24  PRO24       0.0207
      7  CD        33.0030   12.6780   85.0240 C.3    24  PRO24       0.0892
      8  N         35.7250    5.7430   85.3070 N.3    27  LEU27      -0.1231
      9  CA        34.8800    4.5960   84.9940 C.3    27  LEU27       0.1678
     10  C         35.5140    3.6370   83.9970 C.2    27  LEU27       0.2434
     11  O         35.4340    2.4170   84.2240 O.2    27  LEU27      -0.2733
     12  CB        33.4650    5.0450   84.6030 C.3    27  LEU27       0.0284
     13  CG        32.5230    5.2880   85.7880 C.3    27  LEU27       0.0019
     14  CD1       32.9900    6.3980   86.7220 C.3    27  LEU27       0.0001
     15  CD2       31.1210    5.5730   85.2900 C.3    27  LEU27       0.0001
     16  N         36.1630    4.0910   82.9180 N.am   28  PRO28      -0.2718
     17  CA        36.7970    3.1380   81.9870 C.3    28  PRO28       0.1535
     18  C         38.0290    2.4560   82.5390 C.2    28  PRO28       0.2598
     19  O         38.5520    1.5640   81.8610 O.2    28  PRO28      -0.2715
     20  CB        37.1650    4.0130   80.7780 C.3    28  PRO28       0.0310
     21  CG        36.2790    5.2120   80.8850 C.3    28  PRO28       0.0237
     22  CD        36.1620    5.4550   82.3620 C.3    28  PRO28       0.0939
     23  N         38.5070    2.8510   83.7200 N.am   29  PHE29      -0.1974
     24  CA        39.7520    2.3570   84.2970 C.3    29  PHE29       0.1639
     25  C         39.5390    1.4680   85.5060 C.2    29  PHE29       0.2290
     26  O         40.5160    0.9520   86.0550 O.2    29  PHE29      -0.2864
     27  CB        40.6340    3.5440   84.6900 C.3    29  PHE29       0.0560
     28  CG        40.9800    4.4230   83.5340 C.ar   29  PHE29      -0.0200
     29  CD1       42.0860    4.1440   82.7460 C.ar   29  PHE29      -0.0042
     30  CD2       40.1840    5.5040   83.2040 C.ar   29  PHE29      -0.0042
     31  CE1       42.4030    4.9460   81.6560 C.ar   29  PHE29      -0.0003
     32  CE2       40.4930    6.3010   82.1160 C.ar   29  PHE29      -0.0003
     33  CZ        41.6060    6.0150   81.3450 C.ar   29  PHE29      -0.0000
     34  N         38.1760   -1.4780   85.8130 N.3    31  GLN31      -0.1231
     35  CA        38.2500   -2.9080   85.5590 C.3    31  GLN31       0.1683
     36  C         39.1230   -3.1010   84.3300 C.2    31  GLN31       0.2434
     37  O         39.3020   -2.1610   83.5460 O.2    31  GLN31      -0.2733
     38  CB        36.8480   -3.4940   85.3240 C.3    31  GLN31       0.0380
     39  CG        36.0770   -2.8610   84.1530 C.3    31  GLN31       0.0905
     40  CD        35.5900   -1.4430   84.4410 C.2    31  GLN31       0.2608
     41  OE1       34.8860   -1.2020   85.4210 O.2    31  GLN31      -0.2717
     42  NE2       35.9870   -0.4960   83.5920 N.am   31  GLN31      -0.0878
     43  N         39.6970   -4.2920   84.1410 N.am   32  PRO32      -0.2718
     44  CA        40.5170   -4.5120   82.9430 C.3    32  PRO32       0.1535
     45  C         39.6980   -4.2960   81.6800 C.2    32  PRO32       0.2598
     46  O         38.5160   -4.6380   81.6210 O.2    32  PRO32      -0.2715
     47  CB        40.9530   -5.9770   83.0720 C.3    32  PRO32       0.0310
     48  CG        40.8460   -6.2780   84.5260 C.3    32  PRO32       0.0237
     49  CD        39.6660   -5.4860   85.0060 C.3    32  PRO32       0.0939
     50  N         40.3370   -3.7070   80.6670 N.am   33  VAL33      -0.1978
     51  CA        39.6940   -3.6070   79.3610 C.3    33  VAL33       0.1596
     52  C         39.3110   -4.9980   78.8860 C.2    33  VAL33       0.2287
     53  O         40.1390   -5.9170   78.8710 O.2    33  VAL33      -0.2864
     54  CB        40.6340   -2.9240   78.3590 C.3    33  VAL33       0.0276
     55  CG1       40.0260   -2.9460   76.9530 C.3    33  VAL33       0.0022
     56  CG2       40.9170   -1.5040   78.7880 C.3    33  VAL33       0.0022
     57  N         33.8450   -7.5250   74.9230 N.3    37  LEU37      -0.1231
     58  CA        32.6640   -6.8270   75.4160 C.3    37  LEU37       0.1693
     59  C         32.5680   -5.4250   74.8320 C.2    37  LEU37       0.2591
     60  O         31.4800   -4.9660   74.4700 O.2    37  LEU37      -0.2718
     61  CB        32.7130   -6.7560   76.9420 C.3    37  LEU37       0.0284
     62  CG        31.6300   -5.9290   77.6360 C.3    37  LEU37       0.0019
     63  CD1       30.2700   -6.5860   77.4560 C.3    37  LEU37       0.0001
     64  CD2       31.9560   -5.7470   79.1130 C.3    37  LEU37       0.0001
     65  N         33.6980   -4.7300   74.7350 N.am   38  LEU38      -0.1980
     66  CA        33.7110   -3.3470   74.2910 C.3    38  LEU38       0.1596
     67  C         33.6770   -3.2080   72.7780 C.2    38  LEU38       0.2287
     68  O         33.4880   -2.0930   72.2810 O.2    38  LEU38      -0.2864
     69  CB        34.9460   -2.6390   74.8470 C.3    38  LEU38       0.0297
     70  CG        34.9730   -2.5280   76.3700 C.3    38  LEU38       0.0022
     71  CD1       36.3310   -2.0330   76.8210 C.3    38  LEU38       0.0001
     72  CD2       33.8690   -1.6080   76.8660 C.3    38  LEU38       0.0001
     73  N         36.2290   -3.7330   70.7100 N.3    40  ILE40      -0.1245
     74  CA        37.5120   -3.2310   70.2230 C.3    40  ILE40       0.1561
     75  C         38.5230   -4.3720   70.1340 C.2    40  ILE40       0.2260
     76  O         39.5210   -4.3880   70.8680 O.2    40  ILE40      -0.2867
     77  CB        38.0050   -2.0360   71.0560 C.3    40  ILE40       0.0252
     78  CG1       37.9760   -2.3440   72.5570 C.3    40  ILE40       0.0019
     79  CG2       37.1420   -0.8240   70.7590 C.3    40  ILE40       0.0019
     80  CD1       38.7630   -1.3410   73.3940 C.3    40  ILE40       0.0001
     81  N         42.5050   -4.2840   70.5210 N.3    43  TYR43      -0.1241
     82  CA        43.1200   -3.6860   71.7050 C.3    43  TYR43       0.1605
     83  C         44.4180   -4.3900   72.0920 C.2    43  TYR43       0.2264
     84  O         45.4650   -3.7450   72.2400 O.2    43  TYR43      -0.2867
     85  CB        42.1310   -3.6920   72.8680 C.3    43  TYR43       0.0534
     86  CG        42.7010   -3.0100   74.0880 C.ar   43  TYR43      -0.0201
     87  CD1       42.7100   -1.6190   74.1940 C.ar   43  TYR43      -0.0009
     88  CD2       43.2610   -3.7490   75.1260 C.ar   43  TYR43      -0.0009
     89  CE1       43.2550   -0.9910   75.3100 C.ar   43  TYR43       0.0417
     90  CE2       43.8030   -3.1290   76.2460 C.ar   43  TYR43       0.0417
     91  CZ        43.7950   -1.7570   76.3250 C.ar   43  TYR43       0.1957
     92  OH        44.3380   -1.1410   77.4260 O.3    43  TYR43      -0.2866
     93  N         46.8270   -2.7200   82.0920 N.3    51  MET51      -0.1245
     94  CA        46.8420   -2.3680   83.5040 C.3    51  MET51       0.1570
     95  C         45.6080   -1.5210   83.7780 C.2    51  MET51       0.2261
     96  O         45.1620   -0.7780   82.9020 O.2    51  MET51      -0.2867
     97  CB        48.1290   -1.6170   83.8570 C.3    51  MET51       0.0387
     98  CG        48.3290   -1.3650   85.3500 C.3    51  MET51       0.0595
     99  SD        48.2390   -2.8410   86.3920 S.3    51  MET51      -0.1393
    100  CE        49.5080   -3.8810   85.6660 C.3    51  MET51       0.0692
    101  N         46.3300    3.9710   77.7680 N.3    82  ALA82      -0.1245
    102  CA        45.1270    4.6530   77.3140 C.3    82  ALA82       0.1562
    103  C         45.4620    5.7490   76.3140 C.2    82  ALA82       0.2260
    104  O         44.7480    5.9290   75.3210 O.2    82  ALA82      -0.2867
    105  CB        44.3630    5.2160   78.5180 C.3    82  ALA82       0.0290
    106  N         46.3830    3.7990   72.9980 N.3    85  TYR85      -0.1227
    107  CA        45.3210    3.1230   72.2640 C.3    85  TYR85       0.1736
    108  C         44.2760    4.0920   71.7280 C.2    85  TYR85       0.2595
    109  O         43.8180    3.9480   70.5850 O.2    85  TYR85      -0.2718
    110  CB        44.6480    2.0510   73.1300 C.3    85  TYR85       0.0548
    111  CG        43.5510    1.4130   72.3260 C.ar   85  TYR85      -0.0200
    112  CD1       43.8590    0.5130   71.3130 C.ar   85  TYR85      -0.0009
    113  CD2       42.2240    1.7770   72.5050 C.ar   85  TYR85      -0.0009
    114  CE1       42.8680   -0.0340   70.5120 C.ar   85  TYR85       0.0417
    115  CE2       41.2210    1.2380   71.7030 C.ar   85  TYR85       0.0417
    116  CZ        41.5560    0.3290   70.7210 C.ar   85  TYR85       0.1957
    117  OH        40.5630   -0.2060   69.9230 O.3    85  TYR85      -0.2866
    118  N         43.8730    5.0690   72.5240 N.am   86  ASN86      -0.1974
    119  CA        42.6870    5.8580   72.2330 C.3    86  ASN86       0.1688
    120  C         43.0210    7.1230   71.4550 C.2    86  ASN86       0.2292
    121  O         44.1320    7.6510   71.5290 O.2    86  ASN86      -0.2864
    122  CB        41.9740    6.1900   73.5400 C.3    86  ASN86       0.1181
    123  CG        41.5060    4.9510   74.2470 C.2    86  ASN86       0.2629
    124  OD1       40.4590    4.4020   73.9140 O.2    86  ASN86      -0.2716
    125  ND2       42.2950    4.4720   75.2100 N.am   86  ASN86      -0.0877
    126  N         36.6540   10.0810   74.8720 N.3    91  ARG91      -0.1231
    127  CA        36.4120   10.1660   76.3120 C.3    91  ARG91       0.1694
    128  C         37.5560    9.5440   77.0980 C.2    91  ARG91       0.2591
    129  O         38.0640   10.1350   78.0490 O.2    91  ARG91      -0.2718
    130  CB        35.1110    9.4500   76.6770 C.3    91  ARG91       0.0321
    131  CG        33.8570   10.2220   76.3400 C.3    91  ARG91       0.0489
    132  CD        32.6460    9.3500   76.5370 C.3    91  ARG91       0.2205
    133  NE        32.6950    8.2130   75.6290 N.pl3  91  ARG91      -0.0865
    134  CZ        31.8710    7.1750   75.6720 C.cat  91  ARG91       0.5346
    135  NH1       30.9030    7.1220   76.5730 N.pl3  91  ARG91       0.1354
    136  NH2       32.0210    6.1900   74.8020 N.pl3  91  ARG91       0.1354
    137  N         37.9670    8.3340   76.7170 N.am   92  VAL92      -0.1980
    138  CA        38.9690    7.6420   77.5220 C.3    92  VAL92       0.1595
    139  C         40.2730    8.4280   77.5530 C.2    92  VAL92       0.2287
    140  O         40.9260    8.5280   78.5950 O.2    92  VAL92      -0.2864
    141  CB        39.1680    6.1920   77.0420 C.3    92  VAL92       0.0276
    142  CG1       40.4070    5.5810   77.6810 C.3    92  VAL92       0.0022
    143  CG2       37.9350    5.3470   77.3530 C.3    92  VAL92       0.0022
    144  N         39.7030   11.5240   79.7230 N.3    95  PHE95      -0.1241
    145  CA        39.5800   11.0630   81.1010 C.3    95  PHE95       0.1605
    146  C         40.9430   10.6510   81.6640 C.2    95  PHE95       0.2264
    147  O         41.2680   10.9430   82.8270 O.2    95  PHE95      -0.2867
    148  CB        38.6120    9.8830   81.1850 C.3    95  PHE95       0.0534
    149  CG        37.1540   10.2240   80.9230 C.ar   95  PHE95      -0.0203
    150  CD1       36.7000   11.5290   80.7980 C.ar   95  PHE95      -0.0042
    151  CD2       36.2300    9.1890   80.8500 C.ar   95  PHE95      -0.0042
    152  CE1       35.3420   11.7790   80.5690 C.ar   95  PHE95      -0.0003
    153  CE2       34.8780    9.4370   80.6290 C.ar   95  PHE95      -0.0003
    154  CZ        34.4380   10.7240   80.4940 C.ar   95  PHE95      -0.0000
@<TRIPOS>BOND
     1   117   116    1
     2    75    74    1
     3    75    76    2
     4    74    73    1
     5    74    77    1
     6   114   116   ar
     7   114   112   ar
     8    81    82    1
     9   109   108    2
    10   116   115   ar
    11    79    77    1
    12    77    78    1
    13   112   111   ar
    14   120   121    2
    15   120   119    1
    16   115   113   ar
    17    82    83    1
    18    82    85    1
    19   108   107    1
    20   108   118   am
    21    83    84    2
    22   119   118    1
    23   119   122    1
    24   107   106    1
    25   107   110    1
    26    68    67    2
    27   111   113   ar
    28   111   110    1
    29    78    80    1
    30    67    66    1
    31    85    86    1
    32   122   123    1
    33   124   123    2
    34    86    87   ar
    35    86    88   ar
    36    87    89   ar
    37   123   125   am
    38    66    65    1
    39    66    69    1
    40    60    59    2
    41    65    59   am
    42   136   134    1
    43    59    58    1
    44    69    70    1
    45   126   127    1
    46    57    58    1
    47    88    90   ar
    48    89    91   ar
    49   104   103    2
    50    58    61    1
    51   133   134    2
    52   133   132    1
    53   134   135    1
    54    90    91   ar
    55   127   130    1
    56   127   128    1
    57   103   102    1
    58    91    92    1
    59   131   132    1
    60   131   130    1
    61    70    71    1
    62    70    72    1
    63   137   128   am
    64   137   138    1
    65    61    62    1
    66    55    54    1
    67   141   143    1
    68   141   138    1
    69   141   142    1
    70   128   129    2
    71   102   101    1
    72   102   105    1
    73    63    62    1
    74   138   139    1
    75   139   140    2
    76    62    64    1
    77    54    56    1
    78    54    51    1
    79    53    52    2
    80    52    51    1
    81    51    50    1
    82   144   145    1
    83   154   152   ar
    84   154   153   ar
    85   152   150   ar
    86   153   151   ar
    87    50    45   am
    88    20    21    1
    89    20    17    1
    90   150   149   ar
    91   151   149   ar
    92    21    22    1
    93   149   148    1
    94   145   148    1
    95   145   146    1
    96    33    31   ar
    97    33    32   ar
    98    46    45    2
    99    31    29   ar
   100   146   147    2
   101    45    44    1
   102    19    18    2
   103    17    18    1
   104    17    16    1
   105    93    94    1
   106    32    30   ar
   107    22    16    1
   108    18    23   am
   109    29    28   ar
   110    96    95    2
   111    16    10   am
   112    44    47    1
   113    44    43    1
   114    47    48    1
   115    30    28   ar
   116    94    95    1
   117    94    97    1
   118    28    27    1
   119    37    36    2
   120    42    40   am
   121     6     5    1
   122     6     7    1
   123    23    24    1
   124     5     2    1
   125    97    98    1
   126    10    11    2
   127    10     9    1
   128    43    36   am
   129    43    49    1
   130    39    40    1
   131    39    38    1
   132     4     3    2
   133    24    27    1
   134    24    25    1
   135    36    35    1
   136    40    41    2
   137    48    49    1
   138    12     9    1
   139    12    13    1
   140     3     2    1
   141     9     8    1
   142     7     1    1
   143     2     1    1
   144    15    13    1
   145    38    35    1
   146    98    99    1
   147    25    26    2
   148    35    34    1
   149   100    99    1
   150    13    14    1
