@<TRIPOS>MOLECULE
tmp/5enhA00.pdb
 100 97 0 0 0
SMALL
GASTEIGER

@<TRIPOS>ATOM
      1  N        -21.3270   12.1360   -4.0520 N.3    27  GLU27      -0.1231
      2  CA       -21.8390   11.3280   -2.9200 C.3    27  GLU27       0.1684
      3  C        -21.9550    9.8340   -3.2550 C.2    27  GLU27       0.2434
      4  O        -21.4320    9.0080   -2.5050 O.2    27  GLU27      -0.2733
      5  CB       -23.1380   11.9560   -2.3650 C.3    27  GLU27       0.0402
      6  CG       -23.6670   11.3620   -1.0640 C.3    27  GLU27       0.1161
      7  CD       -24.2740    9.9680   -1.2640 C.2    27  GLU27       0.3649
      8  OE1      -24.9410    9.7410   -2.3080 O.co2  27  GLU27      -0.2457
      9  OE2      -24.0380    9.0890   -0.4020 O.co2  27  GLU27      -0.2457
     10  N        -22.5350    9.4750   -4.4230 N.am   28  PRO28      -0.2718
     11  CA       -22.5880    8.0170   -4.7240 C.3    28  PRO28       0.1535
     12  C        -21.2450    7.3580   -5.0600 C.2    28  PRO28       0.2598
     13  O        -21.1440    6.1350   -5.0770 O.2    28  PRO28      -0.2715
     14  CB       -23.5170    7.9280   -5.9390 C.3    28  PRO28       0.0310
     15  CG       -24.1720    9.2730   -6.0780 C.3    28  PRO28       0.0237
     16  CD       -23.3160   10.2730   -5.3850 C.3    28  PRO28       0.0939
     17  N        -20.2230    8.1610   -5.3620 N.am   29  PHE29      -0.1974
     18  CA       -18.9730    7.6300   -5.8850 C.3    29  PHE29       0.1639
     19  C        -17.8290    7.6930   -4.8670 C.2    29  PHE29       0.2290
     20  O        -16.6870    7.3830   -5.2180 O.2    29  PHE29      -0.2864
     21  CB       -18.6370    8.3930   -7.1720 C.3    29  PHE29       0.0560
     22  CG       -19.7830    8.4670   -8.1080 C.ar   29  PHE29      -0.0200
     23  CD1      -20.2150    7.3160   -8.7400 C.ar   29  PHE29      -0.0042
     24  CD2      -20.4710    9.6500   -8.2980 C.ar   29  PHE29      -0.0042
     25  CE1      -21.3240    7.3520   -9.5880 C.ar   29  PHE29      -0.0003
     26  CE2      -21.5600    9.7120   -9.1510 C.ar   29  PHE29      -0.0003
     27  CZ       -21.9860    8.5510   -9.8040 C.ar   29  PHE29      -0.0000
     28  N        -17.2980    5.8870   -2.0310 N.3    31  GLN31      -0.1245
     29  CA       -16.9410    4.6160   -1.3770 C.3    31  GLN31       0.1566
     30  C        -17.2520    3.5210   -2.3020 C.2    31  GLN31       0.2260
     31  O        -18.1390    3.6860   -3.1280 O.2    31  GLN31      -0.2867
     32  CB       -17.7750    4.3630   -0.0930 C.3    31  GLN31       0.0367
     33  CG       -17.5220    5.3580    0.9970 C.3    31  GLN31       0.0905
     34  CD       -16.1400    5.2520    1.6470 C.2    31  GLN31       0.2608
     35  OE1      -15.5120    4.1790    1.7150 O.2    31  GLN31      -0.2717
     36  NE2      -15.6720    6.3860    2.1580 N.am   31  GLN31      -0.0878
     37  N        -19.0060    0.4880   -3.9750 N.3    33  VAL33      -0.1245
     38  CA       -20.3600   -0.0560   -3.9450 C.3    33  VAL33       0.1561
     39  C        -20.3590   -1.2630   -2.9820 C.2    33  VAL33       0.2260
     40  O        -19.4150   -2.0690   -2.9960 O.2    33  VAL33      -0.2867
     41  CB       -20.8150   -0.4490   -5.3810 C.3    33  VAL33       0.0252
     42  CG1      -22.1200   -1.2410   -5.3800 C.3    33  VAL33       0.0019
     43  CG2      -20.9410    0.7970   -6.2520 C.3    33  VAL33       0.0019
     44  N        -25.6250   -5.0020   -2.8270 N.3    38  TYR38      -0.1241
     45  CA       -26.1940   -4.6660   -4.1690 C.3    38  TYR38       0.1605
     46  C        -25.7710   -5.6550   -5.2780 C.2    38  TYR38       0.2264
     47  O        -24.7240   -5.4820   -5.9480 O.2    38  TYR38      -0.2867
     48  CB       -25.8970   -3.2160   -4.5150 C.3    38  TYR38       0.0534
     49  CG       -26.6060   -2.3050   -3.5380 C.ar   38  TYR38      -0.0201
     50  CD1      -28.0090   -2.2320   -3.5340 C.ar   38  TYR38      -0.0009
     51  CD2      -25.8960   -1.5620   -2.5700 C.ar   38  TYR38      -0.0009
     52  CE1      -28.6770   -1.4310   -2.6290 C.ar   38  TYR38       0.0417
     53  CE2      -26.5730   -0.7470   -1.6530 C.ar   38  TYR38       0.0417
     54  CZ       -27.9650   -0.6910   -1.6900 C.ar   38  TYR38       0.1957
     55  OH       -28.6890    0.1080   -0.8280 O.3    38  TYR38      -0.2866
     56  N        -24.3260   -5.7500   -9.0410 N.3    41  TYR41      -0.1241
     57  CA       -23.3220   -4.7580   -9.4600 C.3    41  TYR41       0.1605
     58  C        -22.1690   -5.4420  -10.1930 C.2    41  TYR41       0.2264
     59  O        -21.8460   -5.0750  -11.3310 O.2    41  TYR41      -0.2867
     60  CB       -22.7970   -3.8840   -8.3060 C.3    41  TYR41       0.0534
     61  CG       -21.9640   -2.6860   -8.8110 C.ar   41  TYR41      -0.0201
     62  CD1      -22.5880   -1.5530   -9.3280 C.ar   41  TYR41      -0.0009
     63  CD2      -20.5520   -2.6880   -8.7360 C.ar   41  TYR41      -0.0009
     64  CE1      -21.8520   -0.4600   -9.7690 C.ar   41  TYR41       0.0417
     65  CE2      -19.8120   -1.6250   -9.2060 C.ar   41  TYR41       0.0417
     66  CZ       -20.4560   -0.4910   -9.7090 C.ar   41  TYR41       0.1957
     67  OH       -19.7520    0.6140  -10.2000 O.3    41  TYR41      -0.2866
     68  N        -20.2510    4.1040  -13.8950 N.3    80  SER80      -0.1217
     69  CA       -21.5630    4.6730  -13.6590 C.3    80  SER80       0.1889
     70  C        -22.4290    4.6320  -14.9410 C.2    80  SER80       0.2288
     71  O        -23.5870    4.2990  -14.8680 O.2    80  SER80      -0.2866
     72  CB       -21.4400    6.1030  -13.2150 C.3    80  SER80       0.2089
     73  OG       -22.7280    6.6690  -12.9760 O.3    80  SER80      -0.2183
     74  N        -23.5370    1.0570  -15.4820 N.3    83  TYR83      -0.1227
     75  CA       -24.5080    0.5940  -14.4760 C.3    83  TYR83       0.1736
     76  C        -25.7980    1.3990  -14.4760 C.2    83  TYR83       0.2596
     77  O        -26.8680    0.8310  -14.2170 O.2    83  TYR83      -0.2718
     78  CB       -23.9160    0.5600  -13.0560 C.3    83  TYR83       0.0548
     79  CG       -24.7920   -0.2200  -12.0850 C.ar   83  TYR83      -0.0200
     80  CD1      -24.8420   -1.6160  -12.1420 C.ar   83  TYR83      -0.0009
     81  CD2      -25.6110    0.4360  -11.1510 C.ar   83  TYR83      -0.0009
     82  CE1      -25.6820   -2.3390  -11.2930 C.ar   83  TYR83       0.0417
     83  CE2      -26.4180   -0.2760  -10.2810 C.ar   83  TYR83       0.0417
     84  CZ       -26.4690   -1.6750  -10.3810 C.ar   83  TYR83       0.1957
     85  OH       -27.2770   -2.4200   -9.5540 O.3    83  TYR83      -0.2866
     86  N        -25.6970    2.6920  -14.7530 N.am   84  THR84      -0.1953
     87  CA       -26.8340    3.6210  -14.7430 C.3    84  THR84       0.1897
     88  C        -26.8680    4.2580  -16.1240 C.2    84  THR84       0.2313
     89  O        -26.4450    5.4010  -16.2760 O.2    84  THR84      -0.2863
     90  CB       -26.7160    4.7210  -13.6280 C.3    84  THR84       0.1794
     91  OG1      -26.4370    4.1160  -12.3540 O.3    84  THR84      -0.2208
     92  CG2      -28.0090    5.4940  -13.5060 C.3    84  THR84       0.0378
     93  N        -29.0530   10.0770  -11.1510 N.3    91  ILE91      -0.1245
     94  CA       -27.6940    9.6050  -10.8510 C.3    91  ILE91       0.1561
     95  C        -26.8210    9.6940  -12.1010 C.2    91  ILE91       0.2260
     96  O        -25.6410   10.0590  -12.0260 O.2    91  ILE91      -0.2867
     97  CB       -27.6920    8.1500  -10.3220 C.3    91  ILE91       0.0252
     98  CG1      -28.6270    7.9740   -9.1070 C.3    91  ILE91       0.0019
     99  CG2      -26.2690    7.7180  -10.0000 C.3    91  ILE91       0.0019
    100  CD1      -28.4930    9.0190   -8.0080 C.3    91  ILE91       0.0001
@<TRIPOS>BOND
     1    89    88    2
     2    88    87    1
     3    74    75    1
     4    70    71    2
     5    70    69    1
     6    86    87    1
     7    86    76   am
     8    87    90    1
     9    76    75    1
    10    76    77    2
    11    75    78    1
    12    68    69    1
    13    69    72    1
    14    90    92    1
    15    90    91    1
    16    72    73    1
    17    78    79    1
    18    80    79   ar
    19    80    82   ar
    20    95    96    2
    21    95    94    1
    22    79    81   ar
    23    59    58    2
    24    82    84   ar
    25    81    83   ar
    26    93    94    1
    27    94    97    1
    28    84    83   ar
    29    84    85    1
    30    97    99    1
    31    97    98    1
    32    67    66    1
    33    58    57    1
    34    27    25   ar
    35    27    26   ar
    36    64    66   ar
    37    64    62   ar
    38    66    65   ar
    39    25    23   ar
    40    57    56    1
    41    57    60    1
    42    62    61   ar
    43    65    63   ar
    44    26    24   ar
    45    98   100    1
    46    61    63   ar
    47    61    60    1
    48    23    22   ar
    49    24    22   ar
    50    22    21    1
    51    21    18    1
    52    43    41    1
    53    15    14    1
    54    15    16    1
    55    47    46    2
    56    14    11    1
    57    18    17    1
    58    18    19    1
    59    16    10    1
    60    41    42    1
    61    41    38    1
    62    17    12   am
    63    46    45    1
    64    20    19    2
    65    13    12    2
    66    12    11    1
    67    11    10    1
    68    48    45    1
    69    48    49    1
    70    10     3   am
    71    45    44    1
    72     1     2    1
    73    37    38    1
    74    38    39    1
    75    49    50   ar
    76    49    51   ar
    77    50    52   ar
    78     3     2    1
    79     3     4    2
    80    31    30    2
    81    40    39    2
    82     2     5    1
    83    52    54   ar
    84    51    53   ar
    85     5     6    1
    86     8     7   ar
    87    30    29    1
    88    28    29    1
    89    54    53   ar
    90    54    55    1
    91    29    32    1
    92     7     6    1
    93     7     9   ar
    94    32    33    1
    95    33    34    1
    96    34    35    2
    97    34    36   am
