@<TRIPOS>MOLECULE
tmp/5enkA00.pdb
 176 169 0 0 0
SMALL
GASTEIGER

@<TRIPOS>ATOM
      1  N         24.8530   45.7270    0.6100 N.3    13  GLY13      -0.1210
      2  CA        24.4930   45.9380   -0.7900 C.3    13  GLY13       0.1956
      3  C         24.6350   44.7190   -1.6860 C.2    13  GLY13       0.2612
      4  O         24.2620   44.7680   -2.8600 O.2    13  GLY13      -0.2717
      5  N         25.1660   43.6270   -1.1380 N.am   14  GLN14      -0.1965
      6  CA        25.4060   42.4020   -1.9090 C.3    14  GLN14       0.1733
      7  C         24.4570   41.2620   -1.5340 C.2    14  GLN14       0.2616
      8  O         24.5860   40.1430   -2.0410 O.2    14  GLN14      -0.2715
      9  CB        26.8640   41.9540   -1.7690 C.3    14  GLN14       0.0408
     10  CG        27.8630   42.8410   -2.5040 C.3    14  GLN14       0.0908
     11  CD        29.3010   42.3690   -2.3600 C.2    14  GLN14       0.2608
     12  OE1       29.5660   41.2870   -1.8350 O.2    14  GLN14      -0.2717
     13  NE2       30.2370   43.1830   -2.8310 N.am   14  GLN14      -0.0878
     14  N         23.5070   41.5540   -0.6470 N.am   15  GLY15      -0.1955
     15  CA        22.4830   40.5890   -0.2560 C.3    15  GLY15       0.1869
     16  C         22.8730   39.6930    0.9030 C.2    15  GLY15       0.2309
     17  O         23.9990   39.7540    1.4030 O.2    15  GLY15      -0.2863
     18  N         22.1320   32.9650   -1.9480 N.3    32  LEU32      -0.1245
     19  CA        21.3810   34.2000   -1.7180 C.3    32  LEU32       0.1561
     20  C         19.9110   33.9310   -1.3840 C.2    32  LEU32       0.2260
     21  O         19.2210   33.2170   -2.1110 O.2    32  LEU32      -0.2867
     22  CB        21.4790   35.1120   -2.9490 C.3    32  LEU32       0.0270
     23  CG        20.7030   36.4340   -2.9550 C.3    32  LEU32       0.0019
     24  CD1       21.5010   37.5400   -2.2750 C.3    32  LEU32       0.0001
     25  CD2       20.3540   36.8330   -4.3780 C.3    32  LEU32       0.0001
     26  N         16.3380   35.0710   -1.4740 N.3    34  ASP34      -0.1239
     27  CA        15.6100   35.9900   -2.3500 C.3    34  ASP34       0.1674
     28  C         14.1040   35.7210   -2.3960 C.2    34  ASP34       0.2266
     29  O         13.6510   34.7660   -3.0310 O.2    34  ASP34      -0.2867
     30  CB        16.2070   35.9570   -3.7640 C.3    34  ASP34       0.1410
     31  CG        15.5780   36.9810   -4.7000 C.2    34  ASP34       0.3668
     32  OD1       14.9870   37.9700   -4.2220 O.co2  34  ASP34      -0.2456
     33  OD2       15.6810   36.7970   -5.9280 O.co2  34  ASP34      -0.2456
     34  N         12.1020   37.6720   -3.8610 N.3    36  GLY36      -0.1210
     35  CA        11.6480   38.3220   -5.0920 C.3    36  GLY36       0.1956
     36  C         11.7850   37.4940   -6.3600 C.2    36  GLY36       0.2612
     37  O         11.6230   38.0160   -7.4650 O.2    36  GLY36      -0.2717
     38  N         12.0880   36.2080   -6.2020 N.am   37  SER37      -0.1952
     39  CA        12.1500   35.2670   -7.3230 C.3    37  SER37       0.1924
     40  C         11.7660   33.8640   -6.8490 C.2    37  SER37       0.2314
     41  O         11.5590   33.6500   -5.6550 O.2    37  SER37      -0.2863
     42  CB        13.5400   35.2720   -7.9670 C.3    37  SER37       0.2116
     43  OG        14.5300   34.8270   -7.0560 O.3    37  SER37      -0.2180
     44  N         16.9910   39.2970  -16.8670 N.3    73  TYR73      -0.1227
     45  CA        16.4230   40.2770  -15.9470 C.3    73  TYR73       0.1736
     46  C         16.4230   41.6520  -16.6100 C.2    73  TYR73       0.2596
     47  O         16.8380   41.7860  -17.7640 O.2    73  TYR73      -0.2718
     48  CB        17.2220   40.3200  -14.6410 C.3    73  TYR73       0.0548
     49  CG        17.2730   39.0100  -13.8860 C.ar   73  TYR73      -0.0200
     50  CD1       16.1390   38.5030  -13.2480 C.ar   73  TYR73      -0.0009
     51  CD2       18.4600   38.2850  -13.7950 C.ar   73  TYR73      -0.0009
     52  CE1       16.1840   37.3000  -12.5500 C.ar   73  TYR73       0.0417
     53  CE2       18.5160   37.0840  -13.0970 C.ar   73  TYR73       0.0417
     54  CZ        17.3760   36.5990  -12.4790 C.ar   73  TYR73       0.1957
     55  OH        17.4270   35.4120  -11.7860 O.3    73  TYR73      -0.2866
     56  N         15.9510   42.6650  -15.8820 N.am   74  THR74      -0.1939
     57  CA        16.0330   44.0540  -16.3340 C.3    74  THR74       0.2028
     58  C         17.4960   44.4270  -16.5570 C.2    74  THR74       0.2642
     59  O         17.8390   45.1080  -17.5270 O.2    74  THR74      -0.2714
     60  CB        15.4010   45.0210  -15.3140 C.3    74  THR74       0.1808
     61  OG1       16.1010   44.8940  -14.0860 O.3    74  THR74      -0.2208
     62  CG2       13.9210   44.7530  -15.1170 C.3    74  THR74       0.0379
     63  N         18.3470   43.9610  -15.6450 N.am   75  GLN75      -0.1976
     64  CA        19.7920   44.0620  -15.7770 C.3    75  GLN75       0.1601
     65  C         20.4120   42.7030  -15.4780 C.2    75  GLN75       0.2287
     66  O         20.1000   42.0790  -14.4600 O.2    75  GLN75      -0.2864
     67  CB        20.3420   45.1080  -14.8140 C.3    75  GLN75       0.0394
     68  CG        21.7930   45.4190  -15.1150 C.3    75  GLN75       0.0908
     69  CD        21.9370   46.2000  -16.3830 C.2    75  GLN75       0.2608
     70  OE1       21.4240   47.3110  -16.5250 O.2    75  GLN75      -0.2717
     71  NE2       22.6920   45.6680  -17.3270 N.am   75  GLN75      -0.0878
     72  N         26.5910   39.7780  -15.8510 N.3   109  LYS109     -0.1231
     73  CA        26.1930   40.7620  -14.8310 C.3   109  LYS109      0.1693
     74  C         25.1810   40.2010  -13.8220 C.2   109  LYS109      0.2592
     75  O         24.2140   40.8680  -13.4390 O.2   109  LYS109     -0.2718
     76  CB        25.6890   42.0590  -15.4850 C.3   109  LYS109      0.0285
     77  CG        26.8060   42.8160  -16.1990 C.3   109  LYS109      0.0035
     78  CD        26.2890   44.1010  -16.8370 C.3   109  LYS109      0.0206
     79  CE        27.3910   44.7610  -17.6590 C.3   109  LYS109      0.1093
     80  NZ        28.2480   43.7470  -18.3360 N.3   109  LYS109     -0.1314
     81  N         25.4300   38.9630  -13.4010 N.am  110  PHE110     -0.1976
     82  CA        24.5810   38.2550  -12.4520 C.3   110  PHE110      0.1639
     83  C         25.3190   38.0930  -11.1240 C.2   110  PHE110      0.2290
     84  O         24.8970   38.6450  -10.1060 O.2   110  PHE110     -0.2864
     85  CB        24.1540   36.9000  -13.0360 C.3   110  PHE110      0.0560
     86  CG        23.3740   36.0340  -12.0840 C.ar  110  PHE110     -0.0200
     87  CD1       22.0890   36.3910  -11.6820 C.ar  110  PHE110     -0.0042
     88  CD2       23.9170   34.8460  -11.6040 C.ar  110  PHE110     -0.0042
     89  CE1       21.3660   35.5870  -10.8040 C.ar  110  PHE110     -0.0003
     90  CE2       23.2000   34.0360  -10.7300 C.ar  110  PHE110     -0.0003
     91  CZ        21.9230   34.4070  -10.3280 C.ar  110  PHE110     -0.0000
     92  N         28.2530   38.7610   -8.4060 N.3   112  ILE112     -0.1245
     93  CA        28.9730   39.9600   -7.9830 C.3   112  ILE112      0.1561
     94  C         30.4360   39.6170   -7.7210 C.2   112  ILE112      0.2260
     95  O         30.7400   38.6810   -6.9740 O.2   112  ILE112     -0.2867
     96  CB        28.3420   40.5950   -6.7120 C.3   112  ILE112      0.0252
     97  CG1       26.8600   40.9210   -6.9450 C.3   112  ILE112      0.0019
     98  CG2       29.1170   41.8490   -6.2850 C.3   112  ILE112      0.0019
     99  CD1       26.0450   41.0800   -5.6660 C.3   112  ILE112      0.0001
    100  N         28.6630   34.5010   -2.2960 N.3   117  TRP117     -0.1241
    101  CA        27.6070   33.5690   -2.7020 C.3   117  TRP117      0.1605
    102  C         27.7250   33.1470   -4.1670 C.2   117  TRP117      0.2264
    103  O         28.2310   33.8990   -5.0040 O.2   117  TRP117     -0.2867
    104  CB        26.2020   34.1070   -2.3790 C.3   117  TRP117      0.0550
    105  CG        25.8510   35.4300   -3.0070 C.ar  117  TRP117      0.0003
    106  CD1       25.9670   36.6630   -2.4330 C.ar  117  TRP117      0.0946
    107  CD2       25.2980   35.6480   -4.3150 C.ar  117  TRP117      0.0152
    108  NE1       25.5340   37.6350   -3.3030 N.ar  117  TRP117     -0.2442
    109  CE2       25.1180   37.0410   -4.4650 C.ar  117  TRP117      0.0810
    110  CE3       24.9440   34.8010   -5.3770 C.ar  117  TRP117      0.0012
    111  CZ2       24.6000   37.6100   -5.6350 C.ar  117  TRP117      0.0191
    112  CZ3       24.4290   35.3680   -6.5410 C.ar  117  TRP117      0.0001
    113  CH2       24.2630   36.7600   -6.6580 C.ar  117  TRP117      0.0015
    114  N         21.3180   31.2990   -5.9920 N.3   120  ILE120     -0.1245
    115  CA        20.1440   32.0270   -5.5150 C.3   120  ILE120      0.1561
    116  C         19.0070   31.0880   -5.1050 C.2   120  ILE120      0.2260
    117  O         18.7100   30.1130   -5.7980 O.2   120  ILE120     -0.2867
    118  CB        19.6550   33.0740   -6.5570 C.3   120  ILE120      0.0252
    119  CG1       18.4890   33.8900   -5.9930 C.3   120  ILE120      0.0019
    120  CG2       19.2890   32.4080   -7.8960 C.3   120  ILE120      0.0019
    121  CD1       18.0940   35.0520   -6.8470 C.3   120  ILE120      0.0001
    122  N          4.6590   37.0050   -6.6490 N.3   188  TYR188     -0.1241
    123  CA         5.6030   37.6600   -5.7540 C.3   188  TYR188      0.1605
    124  C          4.9360   37.6670   -4.3790 C.2   188  TYR188      0.2264
    125  O          3.7840   37.2420   -4.2410 O.2   188  TYR188     -0.2867
    126  CB         5.8590   39.1020   -6.1940 C.3   188  TYR188      0.0534
    127  CG         6.5390   39.2660   -7.5360 C.ar  188  TYR188     -0.0201
    128  CD1        7.9280   39.3610   -7.6290 C.ar  188  TYR188     -0.0009
    129  CD2        5.7930   39.3520   -8.7120 C.ar  188  TYR188     -0.0009
    130  CE1        8.5570   39.5210   -8.8600 C.ar  188  TYR188      0.0417
    131  CE2        6.4130   39.5120   -9.9480 C.ar  188  TYR188      0.0417
    132  CZ         7.7930   39.5950  -10.0130 C.ar  188  TYR188      0.1957
    133  OH         8.4060   39.7530  -11.2330 O.3   188  TYR188     -0.2866
    134  N         10.8070   42.0960   -1.0660 N.3   218  ASP218     -0.1225
    135  CA        11.9090   41.4760   -1.8050 C.3   218  ASP218      0.1805
    136  C         13.2490   41.5970   -1.0740 C.2   218  ASP218      0.2598
    137  O         13.8390   42.6770   -1.0090 O.2   218  ASP218     -0.2718
    138  CB        11.9960   42.0900   -3.2090 C.3   218  ASP218      0.1424
    139  CG        13.0560   41.4380   -4.0860 C.2   218  ASP218      0.3668
    140  OD1       13.6790   40.4380   -3.6680 O.co2 218  ASP218     -0.2456
    141  OD2       13.2630   41.9360   -5.2110 O.co2 218  ASP218     -0.2456
    142  N         13.7290   40.4750   -0.5430 N.am  219  SER219     -0.1938
    143  CA        15.0070   40.4310    0.1670 C.3   219  SER219      0.2055
    144  C         16.2130   40.5100   -0.7770 C.2   219  SER219      0.2644
    145  O         17.3220   40.8200   -0.3410 O.2   219  SER219     -0.2714
    146  CB        15.0960   39.1750    1.0390 C.3   219  SER219      0.2130
    147  OG        15.0720   38.0020    0.2460 O.3   219  SER219     -0.2179
    148  N         15.9860   40.2330   -2.0610 N.am  220  GLY220     -0.1939
    149  CA        17.0380   40.2840   -3.0790 C.3   220  GLY220      0.2014
    150  C         17.1680   41.6270   -3.7800 C.2   220  GLY220      0.2640
    151  O         17.7920   41.7230   -4.8380 O.2   220  GLY220     -0.2714
    152  N         16.5630   42.6580   -3.1960 N.am  221  THR221     -0.1936
    153  CA        16.7170   44.0330   -3.6610 C.3   221  THR221      0.2028
    154  C         17.1950   44.8830   -2.4890 C.2   221  THR221      0.2642
    155  O         16.6620   44.7800   -1.3830 O.2   221  THR221     -0.2714
    156  CB        15.3930   44.6000   -4.2310 C.3   221  THR221      0.1808
    157  OG1       14.9780   43.8140   -5.3530 O.3   221  THR221     -0.2208
    158  CG2       15.5570   46.0500   -4.6810 C.3   221  THR221      0.0379
    159  N         18.2100   45.7080   -2.7330 N.am  222  THR222     -0.1950
    160  CA        18.7730   46.5710   -1.6980 C.3   222  THR222      0.1897
    161  C         17.8480   47.7510   -1.3980 C.2   222  THR222      0.2313
    162  O         17.5230   48.0130   -0.2390 O.2   222  THR222     -0.2863
    163  CB        20.1800   47.0880   -2.0940 C.3   222  THR222      0.1794
    164  OG1       21.0220   45.9800   -2.4340 O.3   222  THR222     -0.2208
    165  CG2       20.8210   47.8690   -0.9500 C.3   222  THR222      0.0378
    166  N         12.2600   50.7140   -3.6590 N.3   225  ARG225     -0.1245
    167  CA        11.8890   51.2210   -4.9740 C.3   225  ARG225      0.1563
    168  C         10.4470   51.7070   -4.9530 C.2   225  ARG225      0.2260
    169  O          9.5740   51.0490   -4.3880 O.2   225  ARG225     -0.2867
    170  CB        12.0790   50.1460   -6.0480 C.3   225  ARG225      0.0307
    171  CG        13.5220   49.6790   -6.2320 C.3   225  ARG225      0.0489
    172  CD        13.6430   48.6740   -7.3710 C.3   225  ARG225      0.2205
    173  NE        13.4270   49.2980   -8.6760 N.pl3 225  ARG225     -0.0865
    174  CZ        13.1580   48.6370   -9.7990 C.cat 225  ARG225      0.5346
    175  NH1       13.0610   47.3130   -9.7970 N.pl3 225  ARG225      0.1354
    176  NH2       12.9790   49.3060  -10.9320 N.pl3 225  ARG225      0.1354
@<TRIPOS>BOND
     1    80    79    1
     2    47    46    2
     3    79    78    1
     4    59    58    2
     5    71    69   am
     6    44    45    1
     7    78    77    1
     8    46    45    1
     9    46    56   am
    10    58    57    1
    11    58    63   am
    12    70    69    2
    13    69    68    1
    14    57    56    1
    15    57    60    1
    16    77    76    1
    17    45    48    1
    18    72    73    1
    19    64    63    1
    20    64    65    1
    21    64    67    1
    22    76    73    1
    23    65    66    2
    24    60    62    1
    25    60    61    1
    26    68    67    1
    27    73    74    1
    28    48    49    1
    29    49    51   ar
    30    49    50   ar
    31    74    75    2
    32    74    81   am
    33    51    53   ar
    34    81    82    1
    35    50    52   ar
    36    53    54   ar
    37    85    82    1
    38    85    86    1
    39    52    54   ar
    40    54    55    1
    41    82    83    1
    42    86    87   ar
    43    86    88   ar
    44    87    89   ar
    45    88    90   ar
    46   133   132    1
    47    83    84    2
    48   176   174    1
    49    89    91   ar
    50    90    91   ar
    51   132   131   ar
    52   132   130   ar
    53   131   129   ar
    54   174   175    1
    55   174   173    2
    56   130   128   ar
    57   129   127   ar
    58   173   172    1
    59    92    93    1
    60    93    94    1
    61    93    96    1
    62    42    39    1
    63    42    43    1
    64   120   118    1
    65    94    95    2
    66   128   127   ar
    67   127   126    1
    68    37    36    2
    69   172   171    1
    70    39    40    1
    71    39    38    1
    72    97    96    1
    73    97    99    1
    74    40    41    2
    75   121   119    1
    76    96    98    1
    77   113   112   ar
    78   113   111   ar
    79   122   123    1
    80   118   119    1
    81   118   115    1
    82   112   110   ar
    83    36    38   am
    84    36    35    1
    85   171   170    1
    86   126   123    1
    87   170   167    1
    88   114   115    1
    89    33    31   ar
    90   117   116    2
    91   123   124    1
    92   111   109   ar
    93   115   116    1
    94   110   107   ar
    95   157   156    1
    96   141   139   ar
    97    35    34    1
    98   103   102    2
    99   167   168    1
   100   167   166    1
   101   168   169    2
   102   151   150    2
   103    31    32   ar
   104    31    30    1
   105   158   156    1
   106   109   107   ar
   107   109   108   ar
   108   124   125    2
   109    25    23    1
   110   107   105   ar
   111   156   153    1
   112   102   101    1
   113   139   140   ar
   114   139   138    1
   115   150   152   am
   116   150   149    1
   117    30    27    1
   118   153   152    1
   119   153   154    1
   120   108   106   ar
   121   138   135    1
   122   149   148    1
   123    29    28    2
   124   105   106   ar
   125   105   104    1
   126    23    22    1
   127    23    24    1
   128    22    19    1
   129     4     3    2
   130    13    11   am
   131   159   154   am
   132   159   160    1
   133   101   104    1
   134   101   100    1
   135    10    11    1
   136    10     9    1
   137   154   155    2
   138   164   163    1
   139    28    27    1
   140    11    12    2
   141    27    26    1
   142    21    20    2
   143   163   160    1
   144   163   165    1
   145   148   144   am
   146     8     7    2
   147    18    19    1
   148     6     9    1
   149     6     7    1
   150     6     5    1
   151   135   136    1
   152   135   134    1
   153    19    20    1
   154   160   161    1
   155     3     5   am
   156     3     2    1
   157     7    14   am
   158   161   162    2
   159   136   137    2
   160   136   142   am
   161     2     1    1
   162   144   145    2
   163   144   143    1
   164    14    15    1
   165   142   143    1
   166    15    16    1
   167   143   146    1
   168   147   146    1
   169    16    17    2
