@<TRIPOS>MOLECULE
tmp/5ennB00.pdb
 170 162 0 0 0
SMALL
GASTEIGER

@<TRIPOS>ATOM
      1  N        -33.2860   -8.6000   46.4430 N.3   272  PHE272     -0.1241
      2  CA       -32.4720   -7.4890   46.9370 C.3   272  PHE272      0.1605
      3  C        -32.5830   -7.3080   48.4430 C.2   272  PHE272      0.2264
      4  O        -33.6410   -7.5850   49.0210 O.2   272  PHE272     -0.2867
      5  CB       -32.8740   -6.1850   46.2450 C.3   272  PHE272      0.0534
      6  CG       -32.3830   -6.0710   44.8260 C.ar  272  PHE272     -0.0203
      7  CD1      -31.0810   -5.6510   44.5530 C.ar  272  PHE272     -0.0042
      8  CD2      -33.2230   -6.3760   43.7550 C.ar  272  PHE272     -0.0042
      9  CE1      -30.6320   -5.5200   43.2350 C.ar  272  PHE272     -0.0003
     10  CE2      -32.7790   -6.2310   42.4360 C.ar  272  PHE272     -0.0003
     11  CZ       -31.4830   -5.8090   42.1850 C.ar  272  PHE272     -0.0000
     12  N        -33.6100   -5.2040   50.7490 N.3   274  SER274     -0.1217
     13  CA       -34.5360   -4.0570   50.7230 C.3   274  SER274      0.1889
     14  C        -35.8630   -4.4930   51.3990 C.2   274  SER274      0.2288
     15  O        -36.2060   -5.6730   51.3460 O.2   274  SER274     -0.2866
     16  CB       -34.7630   -3.6150   49.2750 C.3   274  SER274      0.2089
     17  OG       -35.5470   -2.4510   49.1390 O.3   274  SER274     -0.2183
     18  N        -39.1170   -4.4720   50.8600 N.3   276  LEU276     -0.1245
     19  CA       -40.0600   -5.2420   50.0590 C.3   276  LEU276      0.1561
     20  C        -39.3770   -6.3230   49.2200 C.2   276  LEU276      0.2260
     21  O        -40.0280   -6.9600   48.4170 O.2   276  LEU276     -0.2867
     22  CB       -40.9470   -4.3100   49.2180 C.3   276  LEU276      0.0270
     23  CG       -41.8440   -3.3590   50.0430 C.3   276  LEU276      0.0019
     24  CD1      -42.5890   -2.3920   49.1590 C.3   276  LEU276      0.0001
     25  CD2      -42.8300   -4.1200   50.9210 C.3   276  LEU276      0.0001
     26  N        -37.4260   -6.6650   46.5070 N.3   278  PRO278     -0.2116
     27  CA       -37.7330   -6.8250   45.0870 C.3   278  PRO278      0.1372
     28  C        -36.7690   -7.8600   44.4950 C.2   278  PRO278      0.2244
     29  O        -35.7000   -8.0950   45.0800 O.2   278  PRO278     -0.2868
     30  CB       -37.5090   -5.4160   44.5210 C.3   278  PRO278      0.0268
     31  CG       -36.5250   -4.7860   45.4170 C.3   278  PRO278      0.0207
     32  CD       -36.8220   -5.3400   46.7740 C.3   278  PRO278      0.0892
     33  N        -35.6260   -5.7350   37.4560 N.3   294  ILE294     -0.1245
     34  CA       -35.9830   -5.6240   38.8500 C.3   294  ILE294      0.1561
     35  C        -37.4880   -5.8610   38.8290 C.2   294  ILE294      0.2260
     36  O        -38.2000   -5.1960   38.0550 O.2   294  ILE294     -0.2867
     37  CB       -35.6280   -4.2470   39.4740 C.3   294  ILE294      0.0252
     38  CG1      -34.1120   -3.9390   39.3810 C.3   294  ILE294      0.0019
     39  CG2      -36.1490   -4.1530   40.9310 C.3   294  ILE294      0.0019
     40  CD1      -33.7970   -2.4900   39.2130 C.3   294  ILE294      0.0001
     41  N        -40.4890   -5.4770   41.2280 N.3   296  LYS296     -0.1245
     42  CA       -40.9360   -4.7760   42.4200 C.3   296  LYS296      0.1561
     43  C        -42.3920   -5.1440   42.6550 C.2   296  LYS296      0.2260
     44  O        -43.2000   -5.0030   41.7570 O.2   296  LYS296     -0.2867
     45  CB       -40.7290   -3.2650   42.1660 C.3   296  LYS296      0.0271
     46  CG       -40.9430   -2.3180   43.3270 C.3   296  LYS296      0.0035
     47  CD       -40.3290   -0.9630   42.9660 C.3   296  LYS296      0.0206
     48  CE       -41.1950    0.2170   43.3690 C.3   296  LYS296      0.1093
     49  NZ       -40.5650    1.5340   43.0310 N.3   296  LYS296     -0.1314
     50  N        -45.7170   -2.3880   45.8530 N.3   299  ASP299     -0.1239
     51  CA       -45.4290   -0.9550   45.7450 C.3   299  ASP299      0.1674
     52  C        -45.7960   -0.4690   44.3470 C.2   299  ASP299      0.2266
     53  O        -45.6760   -1.2390   43.4000 O.2   299  ASP299     -0.2867
     54  CB       -43.9500   -0.6610   46.0530 C.3   299  ASP299      0.1410
     55  CG       -43.6950    0.7970   46.3460 C.2   299  ASP299      0.3668
     56  OD1      -43.9780    1.2290   47.4900 O.co2 299  ASP299     -0.2456
     57  OD2      -43.2490    1.5230   45.4210 O.co2 299  ASP299     -0.2456
     58  N        -42.5720    6.7100   39.1970 N.3   304  ASP304     -0.1239
     59  CA       -41.2770    6.5050   38.5520 C.3   304  ASP304      0.1674
     60  C        -41.4620    6.3140   37.0710 C.2   304  ASP304      0.2266
     61  O        -40.6800    6.8430   36.2840 O.2   304  ASP304     -0.2867
     62  CB       -40.5390    5.3000   39.1550 C.3   304  ASP304      0.1410
     63  CG       -39.7650    5.5730   40.4540 C.2   304  ASP304      0.3668
     64  OD1      -39.9890    6.6290   41.0760 O.co2 304  ASP304     -0.2456
     65  OD2      -39.0000    4.6990   40.8810 O.co2 304  ASP304     -0.2456
     66  N        -33.5640    4.3720   31.8890 N.3   330  TYR330     -0.1241
     67  CA       -33.8910    2.9530   32.0620 C.3   330  TYR330      0.1605
     68  C        -35.3900    2.7720   31.9970 C.2   330  TYR330      0.2264
     69  O        -36.1200    3.6140   32.5100 O.2   330  TYR330     -0.2867
     70  CB       -33.2880    2.3550   33.3750 C.3   330  TYR330      0.0534
     71  CG       -33.6990    3.0620   34.6570 C.ar  330  TYR330     -0.0201
     72  CD1      -34.8390    2.6740   35.3630 C.ar  330  TYR330     -0.0009
     73  CD2      -32.9210    4.0890   35.1920 C.ar  330  TYR330     -0.0009
     74  CE1      -35.2240    3.3290   36.5330 C.ar  330  TYR330      0.0417
     75  CE2      -33.2980    4.7520   36.3590 C.ar  330  TYR330      0.0417
     76  CZ       -34.4420    4.3610   37.0310 C.ar  330  TYR330      0.1957
     77  OH       -34.7870    5.0060   38.1860 O.3   330  TYR330     -0.2866
     78  N        -38.5910   -2.8180   36.2370 N.3   342  MET342     -0.1230
     79  CA       -37.6090   -1.7880   35.9590 C.3   342  MET342      0.1702
     80  C        -36.4570   -2.5110   35.2760 C.2   342  MET342      0.2592
     81  O        -36.1580   -3.6570   35.6100 O.2   342  MET342     -0.2718
     82  CB       -37.1080   -1.1020   37.2230 C.3   342  MET342      0.0401
     83  CG       -38.1360   -0.2430   37.8820 C.3   342  MET342      0.0596
     84  SD       -37.3800    0.7310   39.1900 S.3   342  MET342     -0.1393
     85  CE       -37.1170   -0.4970   40.4310 C.3   342  MET342      0.0692
     86  N        -35.8400   -1.8550   34.3090 N.am  343  GLN343     -0.1966
     87  CA       -34.6770   -2.3370   33.5980 C.3   343  GLN343      0.1733
     88  C        -33.4530   -2.1190   34.5110 C.2   343  GLN343      0.2616
     89  O        -33.1370   -0.9690   34.8490 O.2   343  GLN343     -0.2715
     90  CB       -34.5330   -1.5550   32.2800 C.3   343  GLN343      0.0408
     91  CG       -33.2650   -1.8470   31.4820 C.3   343  GLN343      0.0908
     92  CD       -33.1170   -0.8890   30.3320 C.2   343  GLN343      0.2608
     93  OE1      -33.7990    0.1300   30.2360 O.2   343  GLN343     -0.2717
     94  NE2      -32.2630   -1.2120   29.3950 N.am  343  GLN343     -0.0878
     95  N        -32.7490   -3.2360   34.8750 N.am  344  PHE344     -0.1960
     96  CA       -31.5540   -3.2140   35.7170 C.3   344  PHE344      0.1771
     97  C        -30.3590   -2.7350   34.9460 C.2   344  PHE344      0.2619
     98  O        -30.0490   -3.2700   33.8980 O.2   344  PHE344     -0.2715
     99  CB       -31.2920   -4.5670   36.3790 C.3   344  PHE344      0.0574
    100  CG       -30.1820   -4.5070   37.4030 C.ar  344  PHE344     -0.0200
    101  CD1      -30.4320   -4.0740   38.7030 C.ar  344  PHE344     -0.0042
    102  CD2      -28.8810   -4.8870   37.0710 C.ar  344  PHE344     -0.0042
    103  CE1      -29.3910   -3.9990   39.6540 C.ar  344  PHE344     -0.0003
    104  CE2      -27.8460   -4.8140   38.0210 C.ar  344  PHE344     -0.0003
    105  CZ       -28.1100   -4.3620   39.3000 C.ar  344  PHE344     -0.0000
    106  N        -29.6920   -1.7060   35.4700 N.am  345  ILE345     -0.1963
    107  CA       -28.4930   -1.0800   34.8920 C.3   345  ILE345      0.1727
    108  C        -27.3080   -1.3910   35.7840 C.2   345  ILE345      0.2616
    109  O        -27.3320   -1.0740   36.9850 O.2   345  ILE345     -0.2715
    110  CB       -28.6560    0.4520   34.6820 C.3   345  ILE345      0.0290
    111  CG1      -29.9750    0.8180   33.9310 C.3   345  ILE345      0.0022
    112  CG2      -27.4380    1.0560   34.0110 C.3   345  ILE345      0.0023
    113  CD1      -30.1340    0.3380   32.4370 C.3   345  ILE345      0.0001
    114  N        -26.2750   -2.0180   35.1930 N.am  346  GLN346     -0.1963
    115  CA       -25.0720   -2.3460   35.9270 C.3   346  GLN346      0.1733
    116  C        -24.3100   -1.0520   36.1940 C.2   346  GLN346      0.2617
    117  O        -23.8500   -0.3710   35.2630 O.2   346  GLN346     -0.2715
    118  CB       -24.2320   -3.4460   35.2290 C.3   346  GLN346      0.0408
    119  CG       -23.2550   -4.1920   36.1730 C.3   346  GLN346      0.0908
    120  CD       -23.9070   -4.7460   37.4370 C.2   346  GLN346      0.2608
    121  OE1      -23.8660   -4.1270   38.5280 O.2   346  GLN346     -0.2717
    122  NE2      -24.5470   -5.9100   37.3040 N.am  346  GLN346     -0.0878
    123  N        -24.3040   -0.6760   37.4850 N.am  347  SER347     -0.1950
    124  CA       -23.7470    0.5500   38.0470 C.3   347  SER347      0.1924
    125  C        -23.4750    0.3280   39.5310 C.2   347  SER347      0.2314
    126  O        -23.7890   -0.7360   40.0730 O.2   347  SER347     -0.2863
    127  CB       -24.7450    1.6960   37.8770 C.3   347  SER347      0.2116
    128  OG       -26.0250    1.3360   38.3660 O.3   347  SER347     -0.2180
    129  N        -23.8450    2.4960   43.3630 N.3   349  PRO349     -0.2116
    130  CA       -24.3240    3.7360   44.0070 C.3   349  PRO349      0.1372
    131  C        -23.1330    4.5870   44.4450 C.2   349  PRO349      0.2244
    132  O        -22.0930    4.0190   44.7740 O.2   349  PRO349     -0.2868
    133  CB       -25.1340    3.2240   45.2020 C.3   349  PRO349      0.0268
    134  CG       -25.4650    1.8190   44.8730 C.3   349  PRO349      0.0207
    135  CD       -24.2860    1.3050   44.1210 C.3   349  PRO349      0.0892
    136  N        -26.3170    6.8590   40.9100 N.3   410  LEU410     -0.1245
    137  CA       -25.5840    5.6800   40.4470 C.3   410  LEU410      0.1561
    138  C        -24.5400    6.0610   39.4130 C.2   410  LEU410      0.2260
    139  O        -24.7130    7.0440   38.6970 O.2   410  LEU410     -0.2867
    140  CB       -26.5900    4.6750   39.8560 C.3   410  LEU410      0.0270
    141  CG       -27.2560    3.6220   40.7590 C.3   410  LEU410      0.0019
    142  CD1      -27.9020    4.2110   41.9590 C.3   410  LEU410      0.0001
    143  CD2      -28.3500    2.9270   40.0360 C.3   410  LEU410      0.0001
    144  N        -26.2380    8.8190   36.8310 N.3   418  PHE418     -0.1241
    145  CA       -27.6980    8.8880   36.7090 C.3   418  PHE418      0.1605
    146  C        -28.3980    8.7770   38.0580 C.2   418  PHE418      0.2264
    147  O        -27.7750    8.3450   39.0260 O.2   418  PHE418     -0.2867
    148  CB       -28.2340    7.8720   35.6880 C.3   418  PHE418      0.0534
    149  CG       -28.1370    6.4160   36.0430 C.ar  418  PHE418     -0.0203
    150  CD1      -26.9480    5.7180   35.8630 C.ar  418  PHE418     -0.0042
    151  CD2      -29.2580    5.7140   36.4700 C.ar  418  PHE418     -0.0042
    152  CE1      -26.8720    4.3560   36.1600 C.ar  418  PHE418     -0.0003
    153  CE2      -29.1830    4.3590   36.7670 C.ar  418  PHE418     -0.0003
    154  CZ       -27.9930    3.6890   36.6070 C.ar  418  PHE418     -0.0000
    155  N        -32.0440    7.6010   40.3400 N.3   420  ILE420     -0.1231
    156  CA       -33.0560    6.5550   40.5160 C.3   420  ILE420      0.1692
    157  C        -33.9900    6.9680   41.6630 C.2   420  ILE420      0.2592
    158  O        -33.7000    7.9400   42.3830 O.2   420  ILE420     -0.2718
    159  CB       -32.4520    5.1300   40.7580 C.3   420  ILE420      0.0266
    160  CG1      -31.6740    5.0500   42.1130 C.3   420  ILE420      0.0019
    161  CG2      -31.6230    4.6170   39.5710 C.3   420  ILE420      0.0020
    162  CD1      -31.5200    3.5610   42.7260 C.3   420  ILE420      0.0001
    163  N        -35.1210    6.2400   41.7940 N.am  421  ASP421     -0.1974
    164  CA       -36.1280    6.3740   42.8480 C.3   421  ASP421      0.1709
    165  C        -36.6940    7.7870   42.9140 C.2   421  ASP421      0.2293
    166  O        -36.1640    8.6220   43.6350 O.2   421  ASP421     -0.2864
    167  CB       -35.5310    5.8970   44.1950 C.3   421  ASP421      0.1436
    168  CG       -36.4820    5.6910   45.3450 C.2   421  ASP421      0.3671
    169  OD1      -37.5700    6.2940   45.3310 O.co2 421  ASP421     -0.2456
    170  OD2      -36.1110    4.9700   46.2900 O.co2 421  ASP421     -0.2456
@<TRIPOS>BOND
     1    94    92   am
     2    93    92    2
     3    92    91    1
     4    91    90    1
     5    66    67    1
     6    68    67    1
     7    68    69    2
     8    67    70    1
     9    90    87    1
    10   113   111    1
    11    70    71    1
    12    87    86    1
    13    87    88    1
    14    98    97    2
    15   111   110    1
    16   112   110    1
    17    86    80   am
    18    88    89    2
    19    88    95   am
    20    71    73   ar
    21    71    72   ar
    22   110   107    1
    23    95    96    1
    24   107   106    1
    25   107   108    1
    26    97   106   am
    27    97    96    1
    28    73    75   ar
    29   114   108   am
    30   114   115    1
    31   118   115    1
    32   118   119    1
    33   117   116    2
    34    80    81    2
    35    80    79    1
    36    72    74   ar
    37   148   149    1
    38   148   145    1
    39    96    99    1
    40   108   109    2
    41   150   149   ar
    42   150   152   ar
    43   115   116    1
    44    79    78    1
    45    79    82    1
    46   149   151   ar
    47   152   154   ar
    48   119   120    1
    49   116   123   am
    50    61    60    2
    51    75    76   ar
    52    99   100    1
    53   151   153   ar
    54    74    76   ar
    55   154   153   ar
    56   145   144    1
    57   145   146    1
    58    76    77    1
    59   102   100   ar
    60   102   104   ar
    61    60    59    1
    62    82    83    1
    63   122   120   am
    64   100   101   ar
    65   120   121    2
    66    33    34    1
    67   123   124    1
    68   127   124    1
    69   127   128    1
    70    83    84    1
    71   104   105   ar
    72   124   125    1
    73    36    35    2
    74   146   147    2
    75    59    62    1
    76    59    58    1
    77   139   138    2
    78   101   103   ar
    79    35    34    1
    80    34    37    1
    81    62    63    1
    82    84    85    1
    83    40    38    1
    84   105   103   ar
    85    38    37    1
    86   138   137    1
    87    37    39    1
    88   125   126    2
    89   161   159    1
    90   140   137    1
    91   140   141    1
    92   143   141    1
    93   155   156    1
    94   137   136    1
    95    63    65   ar
    96    63    64   ar
    97   156   159    1
    98   156   157    1
    99   159   160    1
   100   141   142    1
   101    41    42    1
   102   157   163   am
   103   157   158    2
   104    44    43    2
   105   163   164    1
   106   160   162    1
   107    45    42    1
   108    45    46    1
   109    11    10   ar
   110    11     9   ar
   111    42    43    1
   112    10     8   ar
   113   164   165    1
   114   164   167    1
   115   165   166    2
   116    47    46    1
   117    47    48    1
   118    49    48    1
   119     9     7   ar
   120   129   130    1
   121   129   135    1
   122    53    52    2
   123     8     6   ar
   124   130   131    1
   125   130   133    1
   126   135   134    1
   127   167   168    1
   128    52    51    1
   129   131   132    2
   130    28    29    2
   131    28    27    1
   132    30    27    1
   133    30    31    1
   134     7     6   ar
   135     6     5    1
   136   134   133    1
   137    27    26    1
   138   169   168   ar
   139   168   170   ar
   140    31    32    1
   141    57    55   ar
   142    51    50    1
   143    51    54    1
   144    54    55    1
   145     5     2    1
   146    55    56   ar
   147     1     2    1
   148    26    32    1
   149     2     3    1
   150    21    20    2
   151     3     4    2
   152    17    16    1
   153    24    23    1
   154    22    23    1
   155    22    19    1
   156    20    19    1
   157    16    13    1
   158    23    25    1
   159    19    18    1
   160    13    12    1
   161    13    14    1
   162    15    14    2
