@<TRIPOS>MOLECULE
tmp/5enoC00.pdb
 167 158 0 0 0
SMALL
GASTEIGER

@<TRIPOS>ATOM
      1  N          0.5630   17.9940    4.6630 N.3    97  SER97      -0.1202
      2  CA         1.8170   18.0340    5.4170 C.3    97  SER97       0.2020
      3  C          2.1130   16.6640    6.0010 C.2    97  SER97       0.2618
      4  O          1.3570   15.6890    5.7710 O.2    97  SER97      -0.2717
      5  CB         1.7590   19.1070    6.5000 C.3    97  SER97       0.2103
      6  OG         2.3700   20.2770    5.9930 O.3    97  SER97      -0.2182
      7  N          3.2320   16.5810    6.7160 N.am   98  PHE98      -0.1975
      8  CA         3.6960   15.3200    7.2610 C.3    98  PHE98       0.1639
      9  C          2.9410   14.8420    8.5100 C.2    98  PHE98       0.2290
     10  O          2.6830   15.6050    9.4260 O.2    98  PHE98      -0.2864
     11  CB         5.2090   15.3800    7.5800 C.3    98  PHE98       0.0560
     12  CG         6.0700   15.5110    6.3760 C.ar   98  PHE98      -0.0200
     13  CD1        6.3320   14.4120    5.5780 C.ar   98  PHE98      -0.0042
     14  CD2        6.5880   16.7460    6.0170 C.ar   98  PHE98      -0.0042
     15  CE1        7.0880   14.5510    4.4280 C.ar   98  PHE98      -0.0003
     16  CE2        7.3760   16.8790    4.8890 C.ar   98  PHE98      -0.0003
     17  CZ         7.6290   15.7850    4.0960 C.ar   98  PHE98      -0.0000
     18  N          8.2230   13.0190   10.7910 N.3   101  VAL101     -0.1245
     19  CA         9.5560   13.0220   10.2260 C.3   101  VAL101      0.1561
     20  C         10.4150   12.1490   11.1250 C.2   101  VAL101      0.2260
     21  O         10.4840   12.3740   12.3500 O.2   101  VAL101     -0.2867
     22  CB        10.0990   14.4480   10.1450 C.3   101  VAL101      0.0252
     23  CG1       11.5110   14.4340    9.5790 C.3   101  VAL101      0.0019
     24  CG2        9.1510   15.2900    9.2950 C.3   101  VAL101      0.0019
     25  N          8.8530   10.3790    1.6460 N.3   138  GLN138     -0.1245
     26  CA         9.9810   10.9770    0.9690 C.3   138  GLN138      0.1566
     27  C         11.2630   10.5210    1.7000 C.2   138  GLN138      0.2260
     28  O         11.3440   10.6080    2.9230 O.2   138  GLN138     -0.2867
     29  CB         9.7970   12.4780    0.9550 C.3   138  GLN138      0.0367
     30  CG        11.0960   13.2630    0.9910 C.3   138  GLN138      0.0905
     31  CD        10.8880   14.7530    0.7410 C.2   138  GLN138      0.2608
     32  OE1        9.8620   15.3330    1.1510 O.2   138  GLN138     -0.2717
     33  NE2       11.8630   15.3820    0.0650 N.am  138  GLN138     -0.0878
     34  N         15.1320   11.3460    2.6670 N.3   140  PHE140     -0.1241
     35  CA        16.0250   12.5320    2.7730 C.3   140  PHE140      0.1605
     36  C         17.4770   12.1840    2.5240 C.2   140  PHE140      0.2264
     37  O         18.2680   11.9920    3.4800 O.2   140  PHE140     -0.2867
     38  CB        15.8800   13.2110    4.1460 C.3   140  PHE140      0.0534
     39  CG        14.4710   13.6510    4.4620 C.ar  140  PHE140     -0.0203
     40  CD1       13.7290   14.4250    3.5360 C.ar  140  PHE140     -0.0042
     41  CD2       13.8700   13.2930    5.6730 C.ar  140  PHE140     -0.0042
     42  CE1       12.4110   14.8230    3.8150 C.ar  140  PHE140     -0.0003
     43  CE2       12.5560   13.6860    5.9430 C.ar  140  PHE140     -0.0003
     44  CZ        11.8260   14.4520    5.0230 C.ar  140  PHE140     -0.0000
     45  N         22.5620   18.7540   -0.2830 N.3   239  ILE239     -0.1245
     46  CA        22.0920   18.7490    1.0950 C.3   239  ILE239      0.1561
     47  C         23.0560   18.0630    2.0690 C.2   239  ILE239      0.2260
     48  O         23.5090   16.9240    1.8140 O.2   239  ILE239     -0.2867
     49  CB        20.7460   18.0430    1.2370 C.3   239  ILE239      0.0252
     50  CG1       19.7190   18.5740    0.2190 C.3   239  ILE239      0.0019
     51  CG2       20.2190   18.2350    2.6590 C.3   239  ILE239      0.0019
     52  CD1       19.4110   20.0450    0.3930 C.3   239  ILE239      0.0001
     53  N         22.8250   17.0920    6.1380 N.3   241  ALA241     -0.1245
     54  CA        21.9310   17.0090    7.2880 C.3   241  ALA241      0.1562
     55  C         22.6490   16.4910    8.4980 C.2   241  ALA241      0.2260
     56  O         23.2820   15.4190    8.4460 O.2   241  ALA241     -0.2867
     57  CB        20.7910   16.0850    6.9890 C.3   241  ALA241      0.0290
     58  N         23.0590   12.5230    9.3570 N.3   248  ALA248     -0.1231
     59  CA        21.6950   11.9970    9.3690 C.3   248  ALA248      0.1694
     60  C         21.0590   11.8280    7.9980 C.2   248  ALA248      0.2592
     61  O         21.4170   12.4770    7.0420 O.2   248  ALA248     -0.2718
     62  CB        20.8260   12.8990   10.2080 C.3   248  ALA248      0.0304
     63  N         20.1080   10.9140    7.9430 N.am  249  SER249     -0.1952
     64  CA        19.1330   10.8690    6.8720 C.3   249  SER249      0.1924
     65  C         17.7630   10.7450    7.5300 C.2   249  SER249      0.2314
     66  O         17.6050   11.0060    8.7230 O.2   249  SER249     -0.2863
     67  CB        19.4790    9.6860    5.9630 C.3   249  SER249      0.2116
     68  OG        18.4410    9.3230    5.0920 O.3   249  SER249     -0.2180
     69  N         12.0220   13.6380   15.4340 N.3   288  PRO288     -0.2102
     70  CA        11.9700   15.1070   15.6080 C.3   288  PRO288      0.1504
     71  C         10.5710   15.7490   15.4580 C.2   288  PRO288      0.2575
     72  O         10.3370   16.8340   16.0060 O.2   288  PRO288     -0.2718
     73  CB        12.9760   15.6390   14.5740 C.3   288  PRO288      0.0282
     74  CG        13.2490   14.4830   13.6390 C.3   288  PRO288      0.0208
     75  CD        12.9760   13.2230   14.3890 C.3   288  PRO288      0.0893
     76  N          9.6580   15.0750   14.7580 N.am  289  TYR289     -0.1977
     77  CA         8.2970   15.5720   14.5690 C.3   289  TYR289      0.1639
     78  C          7.3140   14.4150   14.3950 C.2   289  TYR289      0.2290
     79  O          7.5200   13.5430   13.5240 O.2   289  TYR289     -0.2864
     80  CB         8.2430   16.4960   13.3460 C.3   289  TYR289      0.0560
     81  CG         6.8720   17.0610   13.1080 C.ar  289  TYR289     -0.0198
     82  CD1        6.4070   18.1450   13.8650 C.ar  289  TYR289     -0.0009
     83  CD2        6.0050   16.4850   12.1590 C.ar  289  TYR289     -0.0009
     84  CE1        5.1270   18.6600   13.6740 C.ar  289  TYR289      0.0417
     85  CE2        4.7300   16.9870   11.9620 C.ar  289  TYR289      0.0417
     86  CZ         4.2990   18.0740   12.7240 C.ar  289  TYR289      0.1957
     87  OH         3.0490   18.5800   12.5590 O.3   289  TYR289     -0.2866
     88  N          7.7880   21.9510   17.4120 N.3   293  VAL293     -0.1245
     89  CA         8.9640   22.1290   16.5630 C.3   293  VAL293      0.1561
     90  C          8.9160   23.5410   16.0120 C.2   293  VAL293      0.2260
     91  O          7.9090   23.9510   15.4130 O.2   293  VAL293     -0.2867
     92  CB         8.9680   21.1300   15.3560 C.3   293  VAL293      0.0252
     93  CG1        9.9880   21.4930   14.2670 C.3   293  VAL293      0.0019
     94  CG2        9.1850   19.7120   15.8570 C.3   293  VAL293      0.0019
     95  N         11.6170   26.5280   13.9150 N.3   295  MET295     -0.1245
     96  CA        12.6250   26.5730   12.8870 C.3   295  MET295      0.1570
     97  C         13.5510   27.7720   13.0410 C.2   295  MET295      0.2261
     98  O         13.2030   28.7660   13.6870 O.2   295  MET295     -0.2867
     99  CB        11.9240   26.6790   11.5510 C.3   295  MET295      0.0387
    100  CG        11.0040   25.5070   11.3050 C.3   295  MET295      0.0595
    101  SD        10.1040   25.7840    9.7950 S.3   295  MET295     -0.1393
    102  CE         8.6030   24.9200   10.2610 C.3   295  MET295      0.0692
    103  N         17.8210   19.5980   14.0920 N.3   332  PHE332     -0.1241
    104  CA        17.9970   18.9570   12.7900 C.3   332  PHE332      0.1605
    105  C         18.3710   20.0210   11.7290 C.2   332  PHE332      0.2264
    106  O         17.5360   20.8310   11.2870 O.2   332  PHE332     -0.2867
    107  CB        16.7000   18.2750   12.4070 C.3   332  PHE332      0.0534
    108  CG        16.8740   16.9860   11.7160 C.ar  332  PHE332     -0.0203
    109  CD1       17.9150   16.7610   10.8560 C.ar  332  PHE332     -0.0042
    110  CD2       15.9370   16.0130   11.8760 C.ar  332  PHE332     -0.0042
    111  CE1       18.0430   15.5650   10.2040 C.ar  332  PHE332     -0.0003
    112  CE2       16.0440   14.8120   11.2210 C.ar  332  PHE332     -0.0003
    113  CZ        17.1120   14.5790   10.3990 C.ar  332  PHE332     -0.0000
    114  N         19.7090   21.3760    8.2930 N.3   334  VAL334     -0.1245
    115  CA        19.6200   21.0160    6.8990 C.3   334  VAL334      0.1561
    116  C         20.2650   22.1160    6.0770 C.2   334  VAL334      0.2260
    117  O         19.7080   23.1950    5.8940 O.2   334  VAL334     -0.2867
    118  CB        18.1800   20.7770    6.4770 C.3   334  VAL334      0.0252
    119  CG1       18.1580   20.1070    5.1130 C.3   334  VAL334      0.0019
    120  CG2       17.5200   19.8480    7.4850 C.3   334  VAL334      0.0019
    121  N         18.8850   23.6000    2.0400 N.3   337  PHE337     -0.1241
    122  CA        17.4450   23.6550    1.9450 C.3   337  PHE337      0.1605
    123  C         16.8850   24.9010    2.6220 C.2   337  PHE337      0.2264
    124  O         17.2380   25.2530    3.7650 O.2   337  PHE337     -0.2867
    125  CB        16.8070   22.4290    2.5880 C.3   337  PHE337      0.0534
    126  CG        15.3270   22.4280    2.4630 C.ar  337  PHE337     -0.0203
    127  CD1       14.7340   22.2150    1.2190 C.ar  337  PHE337     -0.0042
    128  CD2       14.5200   22.7320    3.5590 C.ar  337  PHE337     -0.0042
    129  CE1       13.3490   22.2490    1.0770 C.ar  337  PHE337     -0.0003
    130  CE2       13.1400   22.7680    3.4330 C.ar  337  PHE337     -0.0003
    131  CZ        12.5480   22.5240    2.1890 C.ar  337  PHE337     -0.0000
    132  N         12.6920   27.0200    2.2340 N.3   339  PHE339     -0.1241
    133  CA        11.4760   27.3800    1.5180 C.3   339  PHE339      0.1605
    134  C         11.8250   28.7800    0.9420 C.2   339  PHE339      0.2264
    135  O         12.5120   29.5940    1.6040 O.2   339  PHE339     -0.2867
    136  CB        10.2560   27.4160    2.4760 C.3   339  PHE339      0.0534
    137  CG        10.0260   26.1240    3.2800 C.ar  339  PHE339     -0.0203
    138  CD1        9.4060   24.9940    2.6890 C.ar  339  PHE339     -0.0042
    139  CD2       10.3870   26.0460    4.6450 C.ar  339  PHE339     -0.0042
    140  CE1        9.1770   23.8280    3.4330 C.ar  339  PHE339     -0.0003
    141  CE2       10.1630   24.8820    5.3790 C.ar  339  PHE339     -0.0003
    142  CZ         9.5600   23.7780    4.7790 C.ar  339  PHE339     -0.0000
    143  N         15.6050   22.6990   12.1480 N.3   350  PHE350     -0.1241
    144  CA        14.3680   22.2730   12.7720 C.3   350  PHE350      0.1605
    145  C         14.6960   21.9420   14.1880 C.2   350  PHE350      0.2264
    146  O         15.4220   20.9600   14.4570 O.2   350  PHE350     -0.2867
    147  CB        13.7710   21.0490   12.0740 C.3   350  PHE350      0.0534
    148  CG        13.3480   21.3590   10.6750 C.ar  350  PHE350     -0.0203
    149  CD1       12.1290   21.9800   10.4320 C.ar  350  PHE350     -0.0042
    150  CD2       14.2030   21.1480    9.6220 C.ar  350  PHE350     -0.0042
    151  CE1       11.7520   22.3520    9.1300 C.ar  350  PHE350     -0.0003
    152  CE2       13.8340   21.4930    8.3240 C.ar  350  PHE350     -0.0003
    153  CZ        12.6050   22.1010    8.0700 C.ar  350  PHE350     -0.0000
    154  N         13.4360   20.9070   17.8760 N.3   352  SER352     -0.1217
    155  CA        12.3670   20.2270   18.5400 C.3   352  SER352      0.1889
    156  C         12.4800   20.3860   20.0680 C.2   352  SER352      0.2288
    157  O         13.4920   20.0720   20.6860 O.2   352  SER352     -0.2866
    158  CB        12.3870   18.7790   18.1220 C.3   352  SER352      0.2089
    159  OG        12.0350   18.0270   19.2330 O.3   352  SER352     -0.2183
    160  N          5.9590   28.6230   13.1880 N.3   390  LEU390     -0.1245
    161  CA         5.1440   28.6790   11.9600 C.3   390  LEU390      0.1561
    162  C          3.6130   28.8660   12.1870 C.2   390  LEU390      0.2260
    163  O          2.9620   28.1780   12.9880 O.2   390  LEU390     -0.2867
    164  CB         5.4380   27.4460   11.0890 C.3   390  LEU390      0.0270
    165  CG         5.0930   27.5610    9.5960 C.3   390  LEU390      0.0019
    166  CD1        5.8050   28.7410    8.9290 C.3   390  LEU390      0.0001
    167  CD2        5.4060   26.2450    8.8790 C.3   390  LEU390      0.0001
@<TRIPOS>BOND
     1    45    46    1
     2    33    31   am
     3    50    52    1
     4    50    49    1
     5    31    30    1
     6    31    32    2
     7   134   133    1
     8   134   135    2
     9    29    26    1
    10    29    30    1
    11    26    25    1
    12    26    27    1
    13   129   127   ar
    14   129   131   ar
    15    46    49    1
    16    46    47    1
    17   127   126   ar
    18    49    51    1
    19   133   132    1
    20   133   136    1
    21    27    28    2
    22    48    47    2
    23   122   121    1
    24   122   125    1
    25   122   123    1
    26   131   130   ar
    27   126   125    1
    28   126   128   ar
    29   136   137    1
    30    36    35    1
    31    36    37    2
    32   123   124    2
    33    34    35    1
    34   138   137   ar
    35   138   140   ar
    36    35    38    1
    37   137   139   ar
    38   130   128   ar
    39   140   142   ar
    40    40    42   ar
    41    40    39   ar
    42    42    44   ar
    43    17    15   ar
    44    17    16   ar
    45    38    39    1
    46    15    13   ar
    47    39    41   ar
    48   139   141   ar
    49     1     2    1
    50   142   141   ar
    51    16    14   ar
    52    44    43   ar
    53    68    67    1
    54   119   118    1
    55     2     3    1
    56     2     5    1
    57    13    12   ar
    58    41    43   ar
    59     4     3    2
    60   117   116    2
    61    67    64    1
    62     6     5    1
    63     3     7   am
    64    14    12   ar
    65   116   115    1
    66    53    54    1
    67    12    11    1
    68   118   115    1
    69   118   120    1
    70     7     8    1
    71    64    65    1
    72    64    63    1
    73   115   114    1
    74    57    54    1
    75    61    60    2
    76     8    11    1
    77     8     9    1
    78    54    55    1
    79    65    66    2
    80    63    60   am
    81    60    59    1
    82   153   152   ar
    83   153   151   ar
    84   152   150   ar
    85    56    55    2
    86     9    10    2
    87   167   165    1
    88   166   165    1
    89   151   149   ar
    90    24    22    1
    91    58    59    1
    92    59    62    1
    93    23    22    1
    94   165   164    1
    95   150   148   ar
    96   101   102    1
    97   101   100    1
    98    22    19    1
    99   111   113   ar
   100   111   109   ar
   101    19    18    1
   102    19    20    1
   103   113   112   ar
   104   149   148   ar
   105   148   147    1
   106   109   108   ar
   107   164   161    1
   108    20    21    2
   109   112   110   ar
   110   106   105    2
   111   100    99    1
   112    99    96    1
   113   108   110   ar
   114   108   107    1
   115   105   104    1
   116   161   162    1
   117   161   160    1
   118    85    83   ar
   119    85    86   ar
   120   147   144    1
   121   143   144    1
   122    83    81   ar
   123   162   163    2
   124   107   104    1
   125    87    86    1
   126    86    84   ar
   127   144   145    1
   128   104   103    1
   129    96    97    1
   130    96    95    1
   131    97    98    2
   132    81    80    1
   133    81    82   ar
   134    80    77    1
   135    79    78    2
   136    74    75    1
   137    74    73    1
   138    84    82   ar
   139   145   146    2
   140    93    92    1
   141    75    69    1
   142    78    77    1
   143    77    76    1
   144    73    70    1
   145    76    71   am
   146    92    94    1
   147    92    89    1
   148    91    90    2
   149    69    70    1
   150    71    70    1
   151    71    72    2
   152    90    89    1
   153    89    88    1
   154   154   155    1
   155   158   155    1
   156   158   159    1
   157   155   156    1
   158   156   157    2
