@<TRIPOS>MOLECULE
tmp/5enpC00.pdb
 208 197 0 0 0
SMALL
GASTEIGER

@<TRIPOS>ATOM
      1  N         10.0340   23.2060   -9.8390 N.3    51  GLN51      -0.1245
      2  CA         8.7980   22.8530   -9.2050 C.3    51  GLN51       0.1566
      3  C          7.6790   23.6910   -9.8210 C.2    51  GLN51       0.2260
      4  O          7.7380   24.9400   -9.8110 O.2    51  GLN51      -0.2867
      5  CB         8.8940   23.0700   -7.7150 C.3    51  GLN51       0.0367
      6  CG         9.8280   21.9780   -7.1560 C.3    51  GLN51       0.0905
      7  CD         9.5080   21.6500   -5.7190 C.2    51  GLN51       0.2608
      8  OE1        9.4720   22.5380   -4.8840 O.2    51  GLN51      -0.2717
      9  NE2        9.2370   20.3860   -5.4290 N.am   51  GLN51      -0.0878
     10  N          0.5610   17.6750    4.4030 N.3    97  SER97      -0.1202
     11  CA         1.7800   17.8030    5.2200 C.3    97  SER97       0.2020
     12  C          1.9970   16.5050    6.0110 C.2    97  SER97       0.2618
     13  O          1.2720   15.5330    5.8460 O.2    97  SER97      -0.2717
     14  CB         1.7150   19.0310    6.1000 C.3    97  SER97       0.2103
     15  OG         0.6310   18.8390    6.9880 O.3    97  SER97      -0.2182
     16  N          3.0190   16.4780    6.8450 N.am   98  PHE98      -0.1975
     17  CA         3.5710   15.2280    7.2930 C.3    98  PHE98       0.1639
     18  C          2.9020   14.7130    8.5090 C.2    98  PHE98       0.2290
     19  O          2.6610   15.4450    9.4090 O.2    98  PHE98      -0.2864
     20  CB         5.0590   15.3750    7.5800 C.3    98  PHE98       0.0560
     21  CG         5.8560   15.5940    6.3650 C.ar   98  PHE98      -0.0200
     22  CD1        5.9510   16.8690    5.8200 C.ar   98  PHE98      -0.0042
     23  CD2        6.4260   14.5220    5.7050 C.ar   98  PHE98      -0.0042
     24  CE1        6.6630   17.0680    4.6550 C.ar   98  PHE98      -0.0003
     25  CE2        7.1130   14.7120    4.5390 C.ar   98  PHE98      -0.0003
     26  CZ         7.2760   15.9870    4.0340 C.ar   98  PHE98      -0.0000
     27  N          8.2880   12.7260   10.8000 N.3   101  VAL101     -0.1245
     28  CA         9.6320   12.7940   10.2270 C.3   101  VAL101      0.1561
     29  C         10.4840   11.8960   11.1110 C.2   101  VAL101      0.2260
     30  O         10.5530   12.0530   12.3560 O.2   101  VAL101     -0.2867
     31  CB        10.1870   14.2360   10.1670 C.3   101  VAL101      0.0252
     32  CG1       11.6310   14.2110    9.6570 C.3   101  VAL101      0.0019
     33  CG2        9.3110   15.1170    9.2770 C.3   101  VAL101      0.0019
     34  N         26.5930   10.6070    5.7750 N.3   113  GLN113     -0.1245
     35  CA        25.1780   10.6870    5.4390 C.3   113  GLN113      0.1566
     36  C         24.8080    9.8390    4.2010 C.2   113  GLN113      0.2260
     37  O         23.7310    9.3640    4.1390 O.2   113  GLN113     -0.2867
     38  CB        24.6630   12.0850    5.2710 C.3   113  GLN113      0.0367
     39  CG        25.1820   12.8230    4.0900 C.3   113  GLN113      0.0905
     40  CD        24.5740   14.2260    3.9770 C.2   113  GLN113      0.2608
     41  OE1       24.5110   14.9660    4.9350 O.2   113  GLN113     -0.2717
     42  NE2       24.1890   14.5960    2.7830 N.am  113  GLN113     -0.0878
     43  N          9.0050   10.1700    1.6670 N.3   138  GLN138     -0.1231
     44  CA        10.0770   10.8480    1.0160 C.3   138  GLN138      0.1698
     45  C         11.3820   10.4320    1.6890 C.2   138  GLN138      0.2592
     46  O         11.4680   10.4500    2.9240 O.2   138  GLN138     -0.2718
     47  CB         9.8120   12.3430    1.1820 C.3   138  GLN138      0.0381
     48  CG        10.9480   13.2330    0.7350 C.3   138  GLN138      0.0905
     49  CD        10.7260   14.7250    1.0410 C.2   138  GLN138      0.2608
     50  OE1        9.9970   15.1150    1.9780 O.2   138  GLN138     -0.2717
     51  NE2       11.3810   15.5680    0.2470 N.am  138  GLN138     -0.0878
     52  N         12.3890   10.0600    0.9020 N.am  139  LEU139     -0.1966
     53  CA        13.6980    9.7090    1.4160 C.3   139  LEU139      0.1728
     54  C         14.5500   10.9650    1.4870 C.2   139  LEU139      0.2616
     55  O         14.6510   11.7020    0.5160 O.2   139  LEU139     -0.2715
     56  CB        14.3860    8.6370    0.5240 C.3   139  LEU139      0.0311
     57  CG        15.8800    8.3040    0.7870 C.3   139  LEU139      0.0022
     58  CD1       15.9890    7.6130    2.1080 C.3   139  LEU139      0.0001
     59  CD2       16.4350    7.4420   -0.3190 C.3   139  LEU139      0.0001
     60  N         15.2020   11.1770    2.6310 N.am  140  PHE140     -0.1960
     61  CA        16.1580   12.2990    2.8170 C.3   140  PHE140      0.1771
     62  C         17.5980   11.9790    2.4190 C.2   140  PHE140      0.2620
     63  O         18.4310   11.7100    3.2870 O.2   140  PHE140     -0.2715
     64  CB        16.2120   12.6960    4.2980 C.3   140  PHE140      0.0574
     65  CG        14.8870   13.1080    4.8770 C.ar  140  PHE140     -0.0200
     66  CD1       13.9080   13.7060    4.1170 C.ar  140  PHE140     -0.0042
     67  CD2       14.6550   12.9090    6.2210 C.ar  140  PHE140     -0.0042
     68  CE1       12.6740   14.0520    4.6740 C.ar  140  PHE140     -0.0003
     69  CE2       13.4550   13.2510    6.7870 C.ar  140  PHE140     -0.0003
     70  CZ        12.4470   13.8210    6.0040 C.ar  140  PHE140     -0.0000
     71  N         17.9070   12.1230    1.1320 N.am  141  GLY141     -0.1954
     72  CA        19.1270   11.6200    0.5350 C.3   141  GLY141      0.1869
     73  C         18.7680   10.6230   -0.5890 C.2   141  GLY141      0.2309
     74  O         17.6390   10.5790   -1.0340 O.2   141  GLY141     -0.2863
     75  N         22.8230   18.7540   -0.4880 N.3   239  ILE239     -0.1245
     76  CA        22.2930   18.8840    0.8450 C.3   239  ILE239      0.1561
     77  C         23.1770   18.2060    1.9000 C.2   239  ILE239      0.2260
     78  O         23.5350   17.0390    1.7250 O.2   239  ILE239     -0.2867
     79  CB        20.9100   18.2540    1.0130 C.3   239  ILE239      0.0252
     80  CG1       19.9000   18.7380   -0.0210 C.3   239  ILE239      0.0019
     81  CG2       20.3700   18.5420    2.4250 C.3   239  ILE239      0.0019
     82  CD1       19.7390   20.2130   -0.1030 C.3   239  ILE239      0.0001
     83  N         22.9540   17.2110    5.8830 N.3   241  ALA241     -0.1245
     84  CA        22.0150   17.1630    7.0530 C.3   241  ALA241      0.1562
     85  C         22.6890   16.6170    8.2820 C.2   241  ALA241      0.2260
     86  O         23.3860   15.5710    8.2150 O.2   241  ALA241     -0.2867
     87  CB        20.8500   16.2580    6.7900 C.3   241  ALA241      0.0290
     88  N         23.1420   12.4760    9.1680 N.3   248  ALA248     -0.1231
     89  CA        21.7520   11.9840    9.2420 C.3   248  ALA248      0.1694
     90  C         21.0800   11.8070    7.8840 C.2   248  ALA248      0.2592
     91  O         21.3780   12.5320    6.9400 O.2   248  ALA248     -0.2718
     92  CB        20.9350   12.9150   10.0630 C.3   248  ALA248      0.0304
     93  N         20.2260   10.7960    7.8130 N.am  249  SER249     -0.1952
     94  CA        19.1990   10.6700    6.7600 C.3   249  SER249      0.1924
     95  C         17.8550   10.5330    7.4530 C.2   249  SER249      0.2314
     96  O         17.7060   10.9000    8.6080 O.2   249  SER249     -0.2863
     97  CB        19.5420    9.4580    5.8820 C.3   249  SER249      0.2116
     98  OG        18.5860    9.1520    4.8650 O.3   249  SER249     -0.2180
     99  N         11.9710   13.5020   15.3610 N.3   288  PRO288     -0.2102
    100  CA        11.8810   14.9420   15.5960 C.3   288  PRO288      0.1504
    101  C         10.5090   15.6060   15.4390 C.2   288  PRO288      0.2575
    102  O         10.3180   16.7380   15.9470 O.2   288  PRO288     -0.2718
    103  CB        12.8790   15.5320   14.5970 C.3   288  PRO288      0.0282
    104  CG        13.1780   14.4320   13.6290 C.3   288  PRO288      0.0208
    105  CD        12.9640   13.1620   14.3150 C.3   288  PRO288      0.0893
    106  N          9.5920   14.9240   14.7360 N.am  289  TYR289     -0.1977
    107  CA         8.2450   15.4120   14.5340 C.3   289  TYR289      0.1639
    108  C          7.3160   14.2300   14.3340 C.2   289  TYR289      0.2290
    109  O          7.5360   13.3710   13.4300 O.2   289  TYR289     -0.2864
    110  CB         8.2140   16.3160   13.3230 C.3   289  TYR289      0.0560
    111  CG         6.8670   16.8620   13.0470 C.ar  289  TYR289     -0.0198
    112  CD1        6.3940   17.9690   13.7410 C.ar  289  TYR289     -0.0009
    113  CD2        6.0130   16.2300   12.1080 C.ar  289  TYR289     -0.0009
    114  CE1        5.1230   18.4760   13.4970 C.ar  289  TYR289      0.0417
    115  CE2        4.7450   16.7100   11.8740 C.ar  289  TYR289      0.0417
    116  CZ         4.3060   17.8260   12.5680 C.ar  289  TYR289      0.1957
    117  OH         3.0570   18.2940   12.3390 O.3   289  TYR289     -0.2866
    118  N          7.7760   21.9590   17.2720 N.3   293  VAL293     -0.1245
    119  CA         8.9580   22.1050   16.4130 C.3   293  VAL293      0.1561
    120  C          8.9340   23.4960   15.8260 C.2   293  VAL293      0.2260
    121  O          7.9050   23.9440   15.3080 O.2   293  VAL293     -0.2867
    122  CB         8.9600   21.0600   15.2670 C.3   293  VAL293      0.0252
    123  CG1       10.1100   21.2680   14.3060 C.3   293  VAL293      0.0019
    124  CG2        9.0040   19.6510   15.8420 C.3   293  VAL293      0.0019
    125  N         11.5350   26.5570   13.7050 N.3   295  MET295     -0.1245
    126  CA        12.5330   26.6460   12.6870 C.3   295  MET295      0.1570
    127  C         13.4860   27.7970   12.8860 C.2   295  MET295      0.2261
    128  O         13.1620   28.7760   13.5260 O.2   295  MET295     -0.2867
    129  CB        11.8030   26.8150   11.3690 C.3   295  MET295      0.0387
    130  CG        10.9370   25.5750   11.1110 C.3   295  MET295      0.0595
    131  SD        10.0540   25.7880    9.5930 S.3   295  MET295     -0.1393
    132  CE         8.5850   24.8490   10.0390 C.3   295  MET295      0.0692
    133  N         17.8260   19.5840   13.8500 N.3   332  PHE332     -0.1241
    134  CA        18.0090   18.8800   12.5720 C.3   332  PHE332      0.1605
    135  C         18.3720   20.0040   11.5810 C.2   332  PHE332      0.2264
    136  O         17.5120   20.7880   11.1770 O.2   332  PHE332     -0.2867
    137  CB        16.6910   18.1770   12.2010 C.3   332  PHE332      0.0534
    138  CG        16.8670   16.9320   11.4010 C.ar  332  PHE332     -0.0203
    139  CD1       17.9290   16.7720   10.5330 C.ar  332  PHE332     -0.0042
    140  CD2       15.9940   15.8860   11.5600 C.ar  332  PHE332     -0.0042
    141  CE1       18.1070   15.6030    9.8520 C.ar  332  PHE332     -0.0003
    142  CE2       16.1510   14.7220   10.8590 C.ar  332  PHE332     -0.0003
    143  CZ        17.2050   14.5800    9.9990 C.ar  332  PHE332     -0.0000
    144  N         19.7110   21.4510    8.1700 N.3   334  VAL334     -0.1245
    145  CA        19.7730   21.1230    6.7500 C.3   334  VAL334      0.1561
    146  C         20.4460   22.2490    5.9830 C.2   334  VAL334      0.2260
    147  O         19.9270   23.3460    5.9430 O.2   334  VAL334     -0.2867
    148  CB        18.3560   20.9850    6.2190 C.3   334  VAL334      0.0252
    149  CG1       18.3940   20.5280    4.7670 C.3   334  VAL334      0.0019
    150  CG2       17.6300   19.9570    7.0800 C.3   334  VAL334      0.0019
    151  N         18.9570   23.7440    1.5390 N.3   337  PHE337     -0.1241
    152  CA        17.6850   24.4130    1.3160 C.3   337  PHE337      0.1605
    153  C         17.1760   25.2230    2.4960 C.2   337  PHE337      0.2264
    154  O         17.5940   25.0450    3.6290 O.2   337  PHE337     -0.2867
    155  CB        16.6380   23.5000    0.6790 C.3   337  PHE337      0.0534
    156  CG        16.0690   22.5280    1.5800 C.ar  337  PHE337     -0.0203
    157  CD1       15.0800   22.9170    2.4780 C.ar  337  PHE337     -0.0042
    158  CD2       16.4900   21.2060    1.5230 C.ar  337  PHE337     -0.0042
    159  CE1       14.5570   22.0070    3.3540 C.ar  337  PHE337     -0.0003
    160  CE2       15.9630   20.2760    2.3780 C.ar  337  PHE337     -0.0003
    161  CZ        14.9990   20.6750    3.3070 C.ar  337  PHE337     -0.0000
    162  N         13.4280   28.0960    3.0480 N.3   339  PHE339     -0.1241
    163  CA        12.2090   28.3400    2.2700 C.3   339  PHE339      0.1605
    164  C         12.5340   29.6410    1.5130 C.2   339  PHE339      0.2264
    165  O         13.3600   30.4350    1.9840 O.2   339  PHE339     -0.2867
    166  CB        10.9140   28.2260    3.1250 C.3   339  PHE339      0.0534
    167  CG        10.4850   26.7620    3.4350 C.ar  339  PHE339     -0.0203
    168  CD1       10.1840   25.8480    2.3960 C.ar  339  PHE339     -0.0042
    169  CD2       10.3720   26.2980    4.7710 C.ar  339  PHE339     -0.0042
    170  CE1        9.7980   24.5300    2.6810 C.ar  339  PHE339     -0.0003
    171  CE2        9.9810   24.9790    5.0490 C.ar  339  PHE339     -0.0003
    172  CZ         9.6880   24.0990    4.0090 C.ar  339  PHE339     -0.0000
    173  N         16.5940   26.8380   -2.8020 N.3   342  ARG342     -0.1245
    174  CA        17.6790   25.8950   -2.6490 C.3   342  ARG342      0.1563
    175  C         18.9640   26.6700   -2.9530 C.2   342  ARG342      0.2260
    176  O         18.9270   27.7640   -3.5480 O.2   342  ARG342     -0.2867
    177  CB        17.5120   24.7760   -3.6270 C.3   342  ARG342      0.0307
    178  CG        16.5070   23.7630   -3.1840 C.3   342  ARG342      0.0489
    179  CD        16.1450   22.7400   -4.2690 C.3   342  ARG342      0.2205
    180  NE        14.9950   23.2050   -5.0700 N.pl3 342  ARG342     -0.0865
    181  CZ        13.6880   23.0400   -4.7870 C.cat 342  ARG342      0.5346
    182  NH1       13.2860   22.3880   -3.7050 N.pl3 342  ARG342      0.1354
    183  NH2       12.7570   23.5450   -5.6060 N.pl3 342  ARG342      0.1354
    184  N         15.5450   22.6140   11.9210 N.3   350  PHE350     -0.1241
    185  CA        14.3200   22.2080   12.5780 C.3   350  PHE350      0.1605
    186  C         14.6440   21.8720   14.0150 C.2   350  PHE350      0.2264
    187  O         15.3410   20.8850   14.2850 O.2   350  PHE350     -0.2867
    188  CB        13.7000   20.9920   11.8720 C.3   350  PHE350      0.0534
    189  CG        13.3370   21.2970   10.4580 C.ar  350  PHE350     -0.0203
    190  CD1       12.1030   21.8710   10.1560 C.ar  350  PHE350     -0.0042
    191  CD2       14.2550   21.1050    9.4530 C.ar  350  PHE350     -0.0042
    192  CE1       11.7700   22.2040    8.8520 C.ar  350  PHE350     -0.0003
    193  CE2       13.9380   21.4670    8.1310 C.ar  350  PHE350     -0.0003
    194  CZ        12.6970   21.9950    7.8310 C.ar  350  PHE350     -0.0000
    195  N         13.3590   20.7360   17.6820 N.3   352  SER352     -0.1217
    196  CA        12.3230   20.0290   18.4030 C.3   352  SER352      0.1889
    197  C         12.4440   20.3280   19.9020 C.2   352  SER352      0.2288
    198  O         13.4590   20.0670   20.5410 O.2   352  SER352     -0.2866
    199  CB        12.4080   18.5320   18.1520 C.3   352  SER352      0.2089
    200  OG        12.3620   18.2820   16.7440 O.3   352  SER352     -0.2183
    201  N          6.1290   28.6500   13.0530 N.3   390  LEU390     -0.1245
    202  CA         5.1760   28.7730   11.9270 C.3   390  LEU390      0.1561
    203  C          3.6950   28.9580   12.3490 C.2   390  LEU390      0.2260
    204  O          3.0990   28.1020   13.0080 O.2   390  LEU390     -0.2867
    205  CB         5.3260   27.5570   11.0050 C.3   390  LEU390      0.0270
    206  CG         4.7130   27.6520    9.6050 C.3   390  LEU390      0.0019
    207  CD1        5.4740   28.6630    8.7520 C.3   390  LEU390      0.0001
    208  CD2        4.6820   26.2730    8.9420 C.3   390  LEU390      0.0001
@<TRIPOS>BOND
     1     1     2    1
     2     3     4    2
     3     3     2    1
     4     2     5    1
     5     5     6    1
     6     6     7    1
     7     7     9   am
     8     7     8    2
     9   183   181    1
    10   180   181    2
    11   180   179    1
    12   181   182    1
    13   179   178    1
    14   177   178    1
    15   177   174    1
    16   176   175    2
    17   175   174    1
    18   173   174    1
    19    74    73    2
    20    73    72    1
    21    75    76    1
    22    59    57    1
    23    82    80    1
    24    80    79    1
    25    51    49   am
    26    55    54    2
    27    56    57    1
    28    56    53    1
    29    72    71    1
    30   155   152    1
    31   155   156    1
    32    48    49    1
    33    48    47    1
    34    57    58    1
    35    76    79    1
    36    76    77    1
    37    52    53    1
    38    52    45   am
    39    79    81    1
    40    44    47    1
    41    44    43    1
    42    44    45    1
    43    49    50    2
    44    71    62   am
    45   152   151    1
    46   152   153    1
    47    53    54    1
    48    54    60   am
    49   164   165    2
    50   164   163    1
    51   158   156   ar
    52   158   160   ar
    53   156   157   ar
    54    45    46    2
    55    78    77    2
    56   163   162    1
    57   163   166    1
    58   160   161   ar
    59   168   170   ar
    60   168   167   ar
    61    62    61    1
    62    62    63    2
    63   157   159   ar
    64   153   154    2
    65    60    61    1
    66   170   172   ar
    67    42    40   am
    68    61    64    1
    69   166   167    1
    70   161   159   ar
    71   167   169   ar
    72    40    39    1
    73    40    41    2
    74   172   171   ar
    75    26    25   ar
    76    26    24   ar
    77    39    38    1
    78    66    68   ar
    79    66    65   ar
    80    37    36    2
    81    36    35    1
    82    64    65    1
    83    10    11    1
    84    25    23   ar
    85    24    22   ar
    86    68    70   ar
    87   149   148    1
    88   169   171   ar
    89    98    97    1
    90    65    67   ar
    91    11    12    1
    92    11    14    1
    93    38    35    1
    94    35    34    1
    95    23    21   ar
    96    22    21   ar
    97    13    12    2
    98    97    94    1
    99    83    84    1
   100   147   146    2
   101   146   145    1
   102    70    69   ar
   103    12    16   am
   104    14    15    1
   105   148   145    1
   106   148   150    1
   107    67    69   ar
   108    21    20    1
   109   145   144    1
   110    94    95    1
   111    94    93    1
   112    87    84    1
   113    16    17    1
   114    91    90    2
   115    84    85    1
   116    17    20    1
   117    17    18    1
   118    95    96    2
   119    93    90   am
   120   194   193   ar
   121   194   192   ar
   122    90    89    1
   123   193   191   ar
   124    86    85    2
   125    18    19    2
   126   207   206    1
   127   192   190   ar
   128   208   206    1
   129    88    89    1
   130    89    92    1
   131    33    31    1
   132   191   189   ar
   133   131   132    1
   134   131   130    1
   135   206   205    1
   136    32    31    1
   137   141   143   ar
   138   141   139   ar
   139   143   142   ar
   140   190   189   ar
   141    31    28    1
   142    28    27    1
   143    28    29    1
   144   189   188    1
   145   139   138   ar
   146   142   140   ar
   147   205   202    1
   148   130   129    1
   149    29    30    2
   150   136   135    2
   151   129   126    1
   152   138   140   ar
   153   138   137    1
   154   135   134    1
   155   188   185    1
   156   115   113   ar
   157   115   116   ar
   158   184   185    1
   159   202   203    1
   160   202   201    1
   161   113   111   ar
   162   137   134    1
   163   117   116    1
   164   203   204    2
   165   116   114   ar
   166   134   133    1
   167   185   186    1
   168   126   127    1
   169   126   125    1
   170   127   128    2
   171   111   110    1
   172   111   112   ar
   173   110   107    1
   174   109   108    2
   175   114   112   ar
   176   104   105    1
   177   104   103    1
   178   186   187    2
   179   123   122    1
   180   105    99    1
   181   108   107    1
   182   107   106    1
   183   103   100    1
   184   106   101   am
   185   122   124    1
   186   122   119    1
   187   121   120    2
   188    99   100    1
   189   101   100    1
   190   101   102    2
   191   120   119    1
   192   119   118    1
   193   200   199    1
   194   195   196    1
   195   199   196    1
   196   196   197    1
   197   197   198    2
