@<TRIPOS>MOLECULE
tmp/5enrC00.pdb
 198 186 0 0 0
SMALL
GASTEIGER

@<TRIPOS>ATOM
      1  N          0.4870   17.7940    4.3890 N.3    97  SER97      -0.1202
      2  CA         1.8120   17.9270    5.0050 C.3    97  SER97       0.2020
      3  C          2.0890   16.6550    5.8190 C.2    97  SER97       0.2618
      4  O          1.3840   15.6360    5.6540 O.2    97  SER97      -0.2717
      5  CB         1.8790   19.2040    5.8240 C.3    97  SER97       0.2103
      6  OG         0.8620   19.1410    6.7990 O.3    97  SER97      -0.2182
      7  N          3.1190   16.6910    6.6550 N.am   98  PHE98      -0.1975
      8  CA         3.7030   15.4770    7.1790 C.3    98  PHE98       0.1639
      9  C          3.0200   14.9680    8.4350 C.2    98  PHE98       0.2290
     10  O          2.7070   15.7340    9.3220 O.2    98  PHE98      -0.2864
     11  CB         5.2100   15.6620    7.4650 C.3    98  PHE98       0.0560
     12  CG         6.0530   15.7670    6.2360 C.ar   98  PHE98      -0.0200
     13  CD1        6.4030   14.6400    5.5430 C.ar   98  PHE98      -0.0042
     14  CD2        6.4770   17.0050    5.7740 C.ar   98  PHE98      -0.0042
     15  CE1        7.1220   14.7400    4.3670 C.ar   98  PHE98      -0.0003
     16  CE2        7.2540   17.1080    4.6420 C.ar   98  PHE98      -0.0003
     17  CZ         7.5610   15.9730    3.9320 C.ar   98  PHE98      -0.0000
     18  N          8.3850   13.1150   10.6810 N.3   101  VAL101     -0.1245
     19  CA         9.6950   13.0820   10.0730 C.3   101  VAL101      0.1561
     20  C         10.5590   12.2740   11.0030 C.2   101  VAL101      0.2260
     21  O         10.5970   12.5510   12.2070 O.2   101  VAL101     -0.2867
     22  CB        10.2350   14.4820    9.8520 C.3   101  VAL101      0.0252
     23  CG1       11.6760   14.4170    9.3460 C.3   101  VAL101      0.0019
     24  CG2        9.3320   15.2180    8.8750 C.3   101  VAL101      0.0019
     25  N         26.3950   10.5010    5.8370 N.3   113  GLN113     -0.1245
     26  CA        24.9800   10.6280    5.5280 C.3   113  GLN113      0.1566
     27  C         24.6110    9.8110    4.2590 C.2   113  GLN113      0.2260
     28  O         23.4700    9.3740    4.0960 O.2   113  GLN113     -0.2867
     29  CB        24.5730   12.0970    5.4050 C.3   113  GLN113      0.0367
     30  CG        25.1410   12.7440    4.1500 C.3   113  GLN113      0.0905
     31  CD        24.7830   14.2020    3.9770 C.2   113  GLN113      0.2608
     32  OE1       24.2360   14.8620    4.8820 O.2   113  GLN113     -0.2717
     33  NE2       25.0910   14.7180    2.8020 N.am  113  GLN113     -0.0878
     34  N         21.9180    7.0650    4.1720 N.3   117  SER117     -0.1217
     35  CA        20.8430    7.1170    3.1900 C.3   117  SER117      0.1889
     36  C         20.7030    5.8260    2.3680 C.2   117  SER117      0.2288
     37  O         19.5930    5.3860    2.1260 O.2   117  SER117     -0.2866
     38  CB        20.9320    8.3350    2.2660 C.3   117  SER117      0.2089
     39  OG        20.7720    9.4980    3.0690 O.3   117  SER117     -0.2183
     40  N          9.0760   10.1670    1.6260 N.3   138  GLN138     -0.1245
     41  CA        10.1390   10.8110    0.9150 C.3   138  GLN138      0.1566
     42  C         11.4300   10.4960    1.6690 C.2   138  GLN138      0.2260
     43  O         11.5140   10.6730    2.9070 O.2   138  GLN138     -0.2867
     44  CB         9.8370   12.2980    0.8000 C.3   138  GLN138      0.0367
     45  CG        11.0510   13.2200    0.7640 C.3   138  GLN138      0.0905
     46  CD        10.6630   14.6740    0.4650 C.2   138  GLN138      0.2608
     47  OE1        9.5420   15.1100    0.7960 O.2   138  GLN138     -0.2717
     48  NE2       11.5770   15.4230   -0.1590 N.am  138  GLN138     -0.0878
     49  N         15.0470   11.5870    2.4420 N.3   140  PHE140     -0.1227
     50  CA        15.8940   12.7970    2.4630 C.3   140  PHE140      0.1736
     51  C         17.3390   12.3610    2.2900 C.2   140  PHE140      0.2596
     52  O         18.1150   12.2440    3.2700 O.2   140  PHE140     -0.2718
     53  CB        15.7120   13.5840    3.7630 C.3   140  PHE140      0.0547
     54  CG        14.3030   14.0520    3.9860 C.ar  140  PHE140     -0.0202
     55  CD1       13.6840   14.9030    3.0600 C.ar  140  PHE140     -0.0042
     56  CD2       13.5960   13.6540    5.0920 C.ar  140  PHE140     -0.0042
     57  CE1       12.3840   15.3320    3.2550 C.ar  140  PHE140     -0.0003
     58  CE2       12.2830   14.0570    5.2750 C.ar  140  PHE140     -0.0003
     59  CZ        11.6830   14.9100    4.3610 C.ar  140  PHE140     -0.0000
     60  N         17.6670   12.1230    1.0240 N.am  141  GLY141     -0.1957
     61  CA        18.9330   11.5090    0.6110 C.3   141  GLY141      0.1869
     62  C         18.6350   10.5940   -0.5550 C.2   141  GLY141      0.2309
     63  O         17.5100   10.5870   -1.0580 O.2   141  GLY141     -0.2863
     64  N         23.6170   12.9910   -5.2450 N.3   236  ASN236     -0.1240
     65  CA        23.6220   14.4270   -5.2040 C.3   236  ASN236      0.1653
     66  C         24.2080   14.9140   -3.8760 C.2   236  ASN236      0.2266
     67  O         24.0740   14.2720   -2.8560 O.2   236  ASN236     -0.2867
     68  CB        22.1720   14.9290   -5.3890 C.3   236  ASN236      0.1155
     69  CG        22.1000   16.4240   -5.4750 C.2   236  ASN236      0.2627
     70  OD1       22.1380   17.0840   -4.4680 O.2   236  ASN236     -0.2716
     71  ND2       22.0880   16.9730   -6.6920 N.am  236  ASN236     -0.0877
     72  N         22.9240   18.9400   -0.2960 N.3   239  ILE239     -0.1245
     73  CA        22.4630   19.0480    1.0710 C.3   239  ILE239      0.1561
     74  C         23.3850   18.2900    2.0350 C.2   239  ILE239      0.2260
     75  O         23.8580   17.1860    1.7100 O.2   239  ILE239     -0.2867
     76  CB        21.0760   18.4470    1.2510 C.3   239  ILE239      0.0252
     77  CG1       20.0800   18.9870    0.2130 C.3   239  ILE239      0.0019
     78  CG2       20.6070   18.6170    2.7130 C.3   239  ILE239      0.0019
     79  CD1       19.4430   20.2740    0.6320 C.3   239  ILE239      0.0001
     80  N         23.0260   17.2920    6.1150 N.3   241  ALA241     -0.1245
     81  CA        22.1890   17.3070    7.3340 C.3   241  ALA241      0.1562
     82  C         22.8730   16.6730    8.5370 C.2   241  ALA241      0.2260
     83  O         23.4810   15.5950    8.4070 O.2   241  ALA241     -0.2867
     84  CB        20.8770   16.5830    7.1080 C.3   241  ALA241      0.0290
     85  N         23.1950   12.5670    9.4360 N.3   248  ALA248     -0.1231
     86  CA        21.8390   12.0390    9.4650 C.3   248  ALA248      0.1694
     87  C         21.1570   11.9600    8.1070 C.2   248  ALA248      0.2593
     88  O         21.3540   12.8110    7.2550 O.2   248  ALA248     -0.2718
     89  CB        21.0100   12.8660   10.3870 C.3   248  ALA248      0.0304
     90  N         20.3370   10.9290    7.9500 N.am  249  SER249     -0.1938
     91  CA        19.3480   10.8670    6.8890 C.3   249  SER249      0.2058
     92  C         17.9680   10.9770    7.5070 C.2   249  SER249      0.2682
     93  O         17.8260   11.1610    8.7240 O.2   249  SER249     -0.2710
     94  CB        19.4530    9.5330    6.1710 C.3   249  SER249      0.2130
     95  OG        18.6240    9.4930    5.0150 O.3   249  SER249     -0.2179
     96  N         16.9340   10.8290    6.6900 N.am  250  GLY250     -0.1729
     97  CA        15.6080   10.6930    7.2600 C.2   250  GLY250      0.1340
     98  C         14.5360   10.2310    6.3020 C.2   250  GLY250      0.2521
     99  O         14.8050    9.9710    5.1340 O.2   250  GLY250     -0.2816
    100  N         12.0360   13.6900   15.3380 N.3   288  PRO288     -0.2102
    101  CA        12.0190   15.1370   15.5470 C.3   288  PRO288      0.1504
    102  C         10.6590   15.8420   15.3920 C.2   288  PRO288      0.2575
    103  O         10.4860   16.9470   15.9660 O.2   288  PRO288     -0.2718
    104  CB        13.0600   15.6560   14.5410 C.3   288  PRO288      0.0282
    105  CG        13.2380   14.5440   13.5580 C.3   288  PRO288      0.0208
    106  CD        13.0030   13.2830   14.3170 C.3   288  PRO288      0.0893
    107  N          9.7280   15.2180   14.6600 N.am  289  TYR289     -0.1977
    108  CA         8.3980   15.7670   14.4160 C.3   289  TYR289      0.1639
    109  C          7.4060   14.6500   14.2800 C.2   289  TYR289      0.2290
    110  O          7.6180   13.7590   13.4560 O.2   289  TYR289     -0.2864
    111  CB         8.4340   16.5730   13.1120 C.3   289  TYR289      0.0560
    112  CG         7.1570   17.2660   12.7230 C.ar  289  TYR289     -0.0198
    113  CD1        6.7960   18.4730   13.3010 C.ar  289  TYR289     -0.0009
    114  CD2        6.3110   16.7270   11.7560 C.ar  289  TYR289     -0.0009
    115  CE1        5.6250   19.1290   12.9350 C.ar  289  TYR289      0.0417
    116  CE2        5.1420   17.3650   11.3810 C.ar  289  TYR289      0.0417
    117  CZ         4.8040   18.5650   11.9840 C.ar  289  TYR289      0.1957
    118  OH         3.6690   19.2200   11.6180 O.3   289  TYR289     -0.2866
    119  N          7.9100   22.2390   17.3440 N.3   293  VAL293     -0.1245
    120  CA         9.1200   22.3780   16.5510 C.3   293  VAL293      0.1561
    121  C          9.1120   23.7750   15.9620 C.2   293  VAL293      0.2260
    122  O          8.0990   24.2430   15.4360 O.2   293  VAL293     -0.2867
    123  CB         9.1570   21.3250   15.4000 C.3   293  VAL293      0.0252
    124  CG1       10.3400   21.5420   14.4570 C.3   293  VAL293      0.0019
    125  CG2        9.1830   19.9240   15.9910 C.3   293  VAL293      0.0019
    126  N         11.8850   26.7180   13.8480 N.3   295  MET295     -0.1245
    127  CA        12.8750   26.7490   12.8260 C.3   295  MET295      0.1570
    128  C         13.8270   27.9160   12.9920 C.2   295  MET295      0.2261
    129  O         13.4820   28.9190   13.6140 O.2   295  MET295     -0.2867
    130  CB        12.1330   26.8700   11.5110 C.3   295  MET295      0.0387
    131  CG        11.3670   25.5950   11.2240 C.3   295  MET295      0.0595
    132  SD        10.2440   25.8650    9.8830 S.3   295  MET295     -0.1393
    133  CE         8.7330   25.2990   10.6770 C.3   295  MET295      0.0692
    134  N         18.1510   19.7860   14.0930 N.3   332  PHE332     -0.1241
    135  CA        18.3350   19.0860   12.8390 C.3   332  PHE332      0.1605
    136  C         18.6910   20.1560   11.8020 C.2   332  PHE332      0.2264
    137  O         17.8230   20.9530   11.3840 O.2   332  PHE332     -0.2867
    138  CB        17.0340   18.3340   12.4680 C.3   332  PHE332      0.0534
    139  CG        17.2480   17.0370   11.7720 C.ar  332  PHE332     -0.0203
    140  CD1       18.3060   16.8520   10.8820 C.ar  332  PHE332     -0.0042
    141  CD2       16.3820   16.0010   11.9870 C.ar  332  PHE332     -0.0042
    142  CE1       18.5010   15.6280   10.2550 C.ar  332  PHE332     -0.0003
    143  CE2       16.5480   14.7980   11.3540 C.ar  332  PHE332     -0.0003
    144  CZ        17.6020   14.6020   10.4990 C.ar  332  PHE332     -0.0000
    145  N         20.0070   21.5390    8.3340 N.3   334  VAL334     -0.1245
    146  CA        19.8830   21.1570    6.9680 C.3   334  VAL334      0.1561
    147  C         20.5460   22.2220    6.1310 C.2   334  VAL334      0.2260
    148  O         19.9930   23.2830    5.9420 O.2   334  VAL334     -0.2867
    149  CB        18.4110   20.9490    6.5930 C.3   334  VAL334      0.0252
    150  CG1       18.3040   20.3430    5.1960 C.3   334  VAL334      0.0019
    151  CG2       17.7590   20.0280    7.6360 C.3   334  VAL334      0.0019
    152  N         19.1590   23.5960    2.0980 N.3   337  PHE337     -0.1241
    153  CA        17.7140   23.7390    1.9910 C.3   337  PHE337      0.1605
    154  C         17.1910   25.0270    2.6250 C.2   337  PHE337      0.2264
    155  O         17.5390   25.3990    3.7590 O.2   337  PHE337     -0.2867
    156  CB        17.0170   22.5620    2.6650 C.3   337  PHE337      0.0534
    157  CG        15.5290   22.6060    2.5430 C.ar  337  PHE337     -0.0203
    158  CD1       14.9040   22.1330    1.4060 C.ar  337  PHE337     -0.0042
    159  CD2       14.7520   23.1610    3.5660 C.ar  337  PHE337     -0.0042
    160  CE1       13.5230   22.1940    1.2860 C.ar  337  PHE337     -0.0003
    161  CE2       13.3700   23.2270    3.4650 C.ar  337  PHE337     -0.0003
    162  CZ        12.7480   22.7370    2.3180 C.ar  337  PHE337     -0.0000
    163  N         12.9660   27.1930    2.1300 N.3   339  PHE339     -0.1241
    164  CA        11.6220   27.1190    1.5460 C.3   339  PHE339      0.1605
    165  C         11.5100   28.0300    0.2950 C.2   339  PHE339      0.2264
    166  O         11.0290   27.5710   -0.7340 O.2   339  PHE339     -0.2867
    167  CB        10.5460   27.4070    2.6140 C.3   339  PHE339      0.0534
    168  CG        10.2950   26.2400    3.5630 C.ar  339  PHE339     -0.0203
    169  CD1        9.6310   25.0810    3.1110 C.ar  339  PHE339     -0.0042
    170  CD2       10.7120   26.2970    4.9020 C.ar  339  PHE339     -0.0042
    171  CE1        9.3830   24.0160    3.9710 C.ar  339  PHE339     -0.0003
    172  CE2       10.4710   25.2420    5.7610 C.ar  339  PHE339     -0.0003
    173  CZ         9.8060   24.1020    5.2980 C.ar  339  PHE339     -0.0000
    174  N         15.8980   22.8630   12.1390 N.3   350  PHE350     -0.1241
    175  CA        14.6580   22.4420   12.7680 C.3   350  PHE350      0.1605
    176  C         14.9720   22.1170   14.2050 C.2   350  PHE350      0.2264
    177  O         15.7650   21.2020   14.4760 O.2   350  PHE350     -0.2867
    178  CB        14.0740   21.2050   12.0770 C.3   350  PHE350      0.0534
    179  CG        13.6640   21.4790   10.6770 C.ar  350  PHE350     -0.0203
    180  CD1       12.4240   22.0060   10.4080 C.ar  350  PHE350     -0.0042
    181  CD2       14.5570   21.3070    9.6380 C.ar  350  PHE350     -0.0042
    182  CE1       12.0520   22.3130    9.0950 C.ar  350  PHE350     -0.0003
    183  CE2       14.1990   21.5970    8.3350 C.ar  350  PHE350     -0.0003
    184  CZ        12.9550   22.1200    8.0610 C.ar  350  PHE350     -0.0000
    185  N         13.6120   20.9380   17.8280 N.3   352  SER352     -0.1217
    186  CA        12.5670   20.2580   18.5500 C.3   352  SER352      0.1889
    187  C         12.6640   20.5690   20.0370 C.2   352  SER352      0.2288
    188  O         13.6910   20.3330   20.6930 O.2   352  SER352     -0.2866
    189  CB        12.6650   18.7570   18.3220 C.3   352  SER352      0.2089
    190  OG        12.5920   18.4680   16.9240 O.3   352  SER352     -0.2183
    191  N          6.2360   28.6730   13.0340 N.3   390  LEU390     -0.1245
    192  CA         5.3910   28.7400   11.8060 C.3   390  LEU390      0.1561
    193  C          3.8530   28.8110   12.0160 C.2   390  LEU390      0.2260
    194  O          3.2880   28.2670   12.9720 O.2   390  LEU390     -0.2867
    195  CB         5.7430   27.6180   10.8190 C.3   390  LEU390      0.0270
    196  CG         5.1470   27.7500    9.3930 C.3   390  LEU390      0.0019
    197  CD1        5.1970   29.1800    8.8510 C.3   390  LEU390      0.0001
    198  CD2        5.8100   26.7860    8.4040 C.3   390  LEU390      0.0001
@<TRIPOS>BOND
     1    71    69   am
     2    69    68    1
     3    69    70    2
     4    68    65    1
     5    64    65    1
     6    65    66    1
     7    66    67    2
     8    63    62    2
     9   166   165    2
    10    62    61    1
    11    72    73    1
    12    48    46   am
    13    77    79    1
    14    77    76    1
    15   165   164    1
    16    46    45    1
    17    46    47    2
    18    61    60    1
    19    45    44    1
    20    44    41    1
    21    41    40    1
    22    41    42    1
    23    60    51   am
    24    73    76    1
    25    73    74    1
    26    76    78    1
    27   160   158   ar
    28   160   162   ar
    29   158   157   ar
    30   164   163    1
    31   164   167    1
    32    42    43    2
    33    75    74    2
    34   153   152    1
    35   153   154    1
    36   153   156    1
    37    37    36    2
    38    38    39    1
    39    38    35    1
    40    51    50    1
    41    51    52    2
    42   162   161   ar
    43    36    35    1
    44    49    50    1
    45    50    53    1
    46   157   156    1
    47   157   159   ar
    48   167   168    1
    49   154   155    2
    50    33    31   am
    51    55    57   ar
    52    55    54   ar
    53   169   168   ar
    54   169   171   ar
    55    35    34    1
    56    57    59   ar
    57   161   159   ar
    58   168   170   ar
    59    53    54    1
    60    17    15   ar
    61    17    16   ar
    62   171   173   ar
    63    31    30    1
    64    31    32    2
    65    54    56   ar
    66    28    27    2
    67    30    29    1
    68    27    26    1
    69    59    58   ar
    70    15    13   ar
    71     1     2    1
    72    16    14   ar
    73   170   172   ar
    74     2     3    1
    75     2     5    1
    76    95    94    1
    77    56    58   ar
    78    99    98    2
    79   150   149    1
    80   173   172   ar
    81    29    26    1
    82    26    25    1
    83    13    12   ar
    84     4     3    2
    85    14    12   ar
    86     3     7   am
    87     5     6    1
    88   148   147    2
    89    80    81    1
    90   147   146    1
    91    94    91    1
    92    12    11    1
    93    98    97    1
    94   149   146    1
    95   149   151    1
    96     7     8    1
    97    96    97    2
    98    96    92    1
    99    91    92    1
   100    91    90    1
   101   146   145    1
   102    84    81    1
   103     8    11    1
   104     8     9    1
   105    88    87    2
   106    81    82    1
   107    92    93    2
   108    90    87   am
   109   184   183   ar
   110   184   182   ar
   111    87    86    1
   112   183   181   ar
   113   198   196    1
   114    83    82    2
   115     9    10    2
   116   197   196    1
   117    24    22    1
   118   182   180   ar
   119    23    22    1
   120   196   195    1
   121    85    86    1
   122    86    89    1
   123   181   179   ar
   124    22    19    1
   125   132   133    1
   126   132   131    1
   127    19    18    1
   128    19    20    1
   129   142   144   ar
   130   142   140   ar
   131   180   179   ar
   132   144   143   ar
   133   179   178    1
   134   195   192    1
   135   140   139   ar
   136    20    21    2
   137   131   130    1
   138   143   141   ar
   139   116   114   ar
   140   116   117   ar
   141   137   136    2
   142   130   127    1
   143   118   117    1
   144   114   112   ar
   145   139   141   ar
   146   139   138    1
   147   136   135    1
   148   192   193    1
   149   192   191    1
   150   117   115   ar
   151   193   194    2
   152   178   175    1
   153   174   175    1
   154   138   135    1
   155   112   111    1
   156   112   113   ar
   157   175   176    1
   158   127   128    1
   159   127   126    1
   160   135   134    1
   161   115   113   ar
   162   128   129    2
   163   111   108    1
   164   110   109    2
   165   105   106    1
   166   105   104    1
   167   176   177    2
   168   109   108    1
   169   106   100    1
   170   108   107    1
   171   124   123    1
   172   104   101    1
   173   107   102   am
   174   100   101    1
   175   102   101    1
   176   102   103    2
   177   123   125    1
   178   123   120    1
   179   122   121    2
   180   121   120    1
   181   120   119    1
   182   190   189    1
   183   185   186    1
   184   189   186    1
   185   186   187    1
   186   187   188    2
