@<TRIPOS>MOLECULE
tmp/5ensC00.pdb
 176 166 0 0 0
SMALL
GASTEIGER

@<TRIPOS>ATOM
      1  N          3.6160   16.7270    6.7180 N.3    98  PHE98      -0.1241
      2  CA         4.0110   15.4080    7.2100 C.3    98  PHE98       0.1605
      3  C          3.1360   14.9430    8.3680 C.2    98  PHE98       0.2264
      4  O          2.8200   15.7240    9.2690 O.2    98  PHE98      -0.2867
      5  CB         5.5000   15.3520    7.6090 C.3    98  PHE98       0.0534
      6  CG         6.4380   15.3350    6.4320 C.ar   98  PHE98      -0.0203
      7  CD1        6.3490   14.3290    5.4770 C.ar   98  PHE98      -0.0042
      8  CD2        7.4040   16.3290    6.2710 C.ar   98  PHE98      -0.0042
      9  CE1        7.1810   14.3250    4.3830 C.ar   98  PHE98      -0.0003
     10  CE2        8.2520   16.3220    5.1820 C.ar   98  PHE98      -0.0003
     11  CZ         8.1410   15.3180    4.2390 C.ar   98  PHE98      -0.0000
     12  N          7.8960   12.6400   11.0220 N.3   101  VAL101     -0.1245
     13  CA         9.2540   12.5840   10.5100 C.3   101  VAL101      0.1561
     14  C         10.1090   11.6450   11.3610 C.2   101  VAL101      0.2260
     15  O         10.1820   11.7570   12.5730 O.2   101  VAL101     -0.2867
     16  CB         9.8890   13.9830   10.4760 C.3   101  VAL101      0.0252
     17  CG1       11.3400   13.8950   10.0180 C.3   101  VAL101      0.0019
     18  CG2        9.0850   14.8950    9.5580 C.3   101  VAL101      0.0019
     19  N         26.2900   10.6550    5.9700 N.3   113  GLN113     -0.1245
     20  CA        24.8600   10.7550    5.6850 C.3   113  GLN113      0.1566
     21  C         24.4890    9.9730    4.3980 C.2   113  GLN113      0.2260
     22  O         23.3470    9.5490    4.2200 O.2   113  GLN113     -0.2867
     23  CB        24.4170   12.2120    5.6020 C.3   113  GLN113      0.0367
     24  CG        24.4900   12.8110    4.2120 C.3   113  GLN113      0.0905
     25  CD        24.2460   14.3000    4.1770 C.2   113  GLN113      0.2608
     26  OE1       23.8580   14.9170    5.1740 O.2   113  GLN113     -0.2717
     27  NE2       24.4890   14.8980    3.0100 N.am  113  GLN113     -0.0878
     28  N         21.6870    7.0550    4.4790 N.3   117  SER117     -0.1217
     29  CA        20.6160    7.1810    3.5080 C.3   117  SER117      0.1889
     30  C         20.4990    5.8910    2.7120 C.2   117  SER117      0.2288
     31  O         19.3900    5.3840    2.5200 O.2   117  SER117     -0.2866
     32  CB        20.8160    8.3910    2.5970 C.3   117  SER117      0.2089
     33  OG        20.6590    9.5810    3.3410 O.3   117  SER117     -0.2183
     34  N          9.0540   10.0220    1.7770 N.3   138  GLN138     -0.1231
     35  CA        10.1530   10.6950    1.0780 C.3   138  GLN138      0.1698
     36  C         11.4300   10.4840    1.8300 C.2   138  GLN138      0.2592
     37  O         11.4710   10.7460    3.0260 O.2   138  GLN138     -0.2718
     38  CB         9.9090   12.1900    0.9750 C.3   138  GLN138      0.0381
     39  CG         8.6320   12.5330    0.2200 C.3   138  GLN138      0.0905
     40  CD         8.2540   13.9970    0.3730 C.2   138  GLN138      0.2608
     41  OE1        9.1220   14.8440    0.6420 O.2   138  GLN138     -0.2717
     42  NE2        6.9580   14.3070    0.2130 N.am  138  GLN138     -0.0878
     43  N         12.4700   10.0280    1.1290 N.am  139  LEU139     -0.1966
     44  CA        13.8030    9.8510    1.7120 C.3   139  LEU139      0.1728
     45  C         14.5830   11.1940    1.7860 C.2   139  LEU139      0.2616
     46  O         14.5250   12.0220    0.8770 O.2   139  LEU139     -0.2715
     47  CB        14.5860    8.7820    0.9340 C.3   139  LEU139      0.0311
     48  CG        15.9930    8.3390    1.3800 C.3   139  LEU139      0.0022
     49  CD1       15.9680    7.7630    2.7840 C.3   139  LEU139      0.0001
     50  CD2       16.5820    7.3260    0.3940 C.3   139  LEU139      0.0001
     51  N         15.2830   11.3830    2.9070 N.am  140  PHE140     -0.1960
     52  CA        16.1030   12.5560    3.1830 C.3   140  PHE140      0.1771
     53  C         17.5150   12.1710    2.8140 C.2   140  PHE140      0.2620
     54  O         18.3920   11.9690    3.6800 O.2   140  PHE140     -0.2715
     55  CB        16.0160   12.9470    4.6590 C.3   140  PHE140      0.0574
     56  CG        14.6450   13.3750    5.1130 C.ar  140  PHE140     -0.0200
     57  CD1       13.6410   13.7870    4.2130 C.ar  140  PHE140     -0.0042
     58  CD2       14.3530   13.3820    6.4560 C.ar  140  PHE140     -0.0042
     59  CE1       12.3740   14.1640    4.6640 C.ar  140  PHE140     -0.0003
     60  CE2       13.0970   13.7750    6.9150 C.ar  140  PHE140     -0.0003
     61  CZ        12.1030   14.1680    6.0230 C.ar  140  PHE140     -0.0000
     62  N         17.7010   12.0910    1.4990 N.am  141  GLY141     -0.1954
     63  CA        18.8890   11.5520    0.8570 C.3   141  GLY141      0.1869
     64  C         18.4470   10.6440   -0.2730 C.2   141  GLY141      0.2309
     65  O         17.2590   10.5220   -0.5660 O.2   141  GLY141     -0.2863
     66  N         23.1130   13.1920   -5.1190 N.3   236  ASN236     -0.1240
     67  CA        23.5860   14.5730   -5.0970 C.3   236  ASN236      0.1653
     68  C         23.8450   15.1100   -3.7100 C.2   236  ASN236      0.2266
     69  O         23.3460   14.6110   -2.7240 O.2   236  ASN236     -0.2867
     70  CB        22.6640   15.5340   -5.8750 C.3   236  ASN236      0.1155
     71  CG        21.4400   15.9140   -5.0980 C.2   236  ASN236      0.2627
     72  OD1       21.3270   17.0080   -4.5830 O.2   236  ASN236     -0.2716
     73  ND2       20.5260   14.9970   -4.9940 N.am  236  ASN236     -0.0877
     74  N         22.2230   19.0190   -0.3600 N.3   239  ILE239     -0.1245
     75  CA        21.6830   19.1490    0.9860 C.3   239  ILE239      0.1561
     76  C         22.5890   18.4480    1.9880 C.2   239  ILE239      0.2260
     77  O         23.1620   17.4310    1.6560 O.2   239  ILE239     -0.2867
     78  CB        20.2840   18.5170    1.0790 C.3   239  ILE239      0.0252
     79  CG1       19.3840   18.9280   -0.0990 C.3   239  ILE239      0.0019
     80  CG2       19.6340   18.8830    2.4060 C.3   239  ILE239      0.0019
     81  CD1       18.9230   20.3580   -0.0580 C.3   239  ILE239      0.0001
     82  N         22.3850   17.1060    6.1590 N.3   241  ALA241     -0.1245
     83  CA        21.4420   16.9290    7.2680 C.3   241  ALA241      0.1562
     84  C         22.1620   16.4910    8.5120 C.2   241  ALA241      0.2260
     85  O         22.7940   15.4490    8.5190 O.2   241  ALA241     -0.2867
     86  CB        20.3850   15.9140    6.9150 C.3   241  ALA241      0.0290
     87  N         22.9540   12.7120    9.4960 N.3   248  ALA248     -0.1245
     88  CA        21.5790   12.2600    9.5540 C.3   248  ALA248      0.1562
     89  C         20.9850   11.8550    8.2200 C.2   248  ALA248      0.2260
     90  O         21.4020   12.2810    7.1570 O.2   248  ALA248     -0.2867
     91  CB        20.7200   13.3560   10.1630 C.3   248  ALA248      0.0290
     92  N         11.5390   13.8980   15.7310 N.3   288  PRO288     -0.2116
     93  CA        11.1320   15.3100   15.9930 C.3   288  PRO288      0.1372
     94  C          9.7710   15.7670   15.3630 C.2   288  PRO288      0.2244
     95  O          8.7170   15.8030   16.0320 O.2   288  PRO288     -0.2868
     96  CB        12.3110   16.1130   15.4230 C.3   288  PRO288      0.0268
     97  CG        13.1990   15.1240   14.6890 C.3   288  PRO288      0.0207
     98  CD        12.5240   13.7940   14.6450 C.3   288  PRO288      0.0892
     99  N          7.4750   21.6070   18.3240 N.3   290  VAL290     -0.1245
    100  CA         8.6090   22.0340   17.4740 C.3   290  VAL290      0.1561
    101  C          8.4560   23.4760   16.9660 C.2   290  VAL290      0.2260
    102  O          7.3690   23.8930   16.5620 O.2   290  VAL290     -0.2867
    103  CB         8.7450   21.0990   16.2230 C.3   290  VAL290      0.0252
    104  CG1        9.7860   21.5930   15.1930 C.3   290  VAL290      0.0019
    105  CG2        9.0510   19.6660   16.6530 C.3   290  VAL290      0.0019
    106  N         11.0990   26.5350   14.5630 N.3   292  MET292     -0.1245
    107  CA        12.1550   26.5980   13.5170 C.3   292  MET292      0.1570
    108  C         13.1620   27.7560   13.6850 C.2   292  MET292      0.2261
    109  O         12.9140   28.7090   14.4370 O.2   292  MET292     -0.2867
    110  CB        11.4950   26.6970   12.1370 C.3   292  MET292      0.0387
    111  CG        10.2770   25.8020   11.9900 C.3   292  MET292      0.0595
    112  SD         9.8590   25.4370   10.2810 S.3   292  MET292     -0.1393
    113  CE         8.7900   24.0030   10.4880 C.3   292  MET292      0.0692
    114  N         17.5930   19.5140   14.3890 N.3   329  PHE329     -0.1241
    115  CA        17.7440   18.7910   13.1110 C.3   329  PHE329      0.1605
    116  C         18.0170   19.8630   12.0470 C.2   329  PHE329      0.2264
    117  O         17.1560   20.7210   11.7750 O.2   329  PHE329     -0.2867
    118  CB        16.4580   17.9980   12.7900 C.3   329  PHE329      0.0534
    119  CG        16.5710   17.0730   11.6010 C.ar  329  PHE329     -0.0203
    120  CD1       16.5650   17.5690   10.2990 C.ar  329  PHE329     -0.0042
    121  CD2       16.6450   15.7060   11.7760 C.ar  329  PHE329     -0.0042
    122  CE1       16.6730   16.7180    9.2180 C.ar  329  PHE329     -0.0003
    123  CE2       16.7460   14.8540   10.7020 C.ar  329  PHE329     -0.0003
    124  CZ        16.7550   15.3540    9.4230 C.ar  329  PHE329     -0.0000
    125  N         19.2420   21.2710    8.2750 N.3   331  VAL331     -0.1245
    126  CA        19.1700   21.0200    6.8510 C.3   331  VAL331      0.1561
    127  C         19.8320   22.1950    6.1210 C.2   331  VAL331      0.2260
    128  O         19.3920   23.3370    6.2380 O.2   331  VAL331     -0.2867
    129  CB        17.7040   20.9000    6.4190 C.3   331  VAL331      0.0252
    130  CG1       17.6030   20.7080    4.9080 C.3   331  VAL331      0.0019
    131  CG2       17.0350   19.7640    7.1950 C.3   331  VAL331      0.0019
    132  N         18.3110   24.0000    1.9820 N.3   334  PHE334     -0.1227
    133  CA        16.8500   24.1010    1.8590 C.3   334  PHE334      0.1736
    134  C         16.3480   25.1480    2.8740 C.2   334  PHE334      0.2596
    135  O         16.9210   25.2840    3.9520 O.2   334  PHE334     -0.2718
    136  CB        16.2060   22.7310    2.1450 C.3   334  PHE334      0.0547
    137  CG        15.1490   22.3100    1.1470 C.ar  334  PHE334     -0.0202
    138  CD1       13.9970   23.0910    0.9390 C.ar  334  PHE334     -0.0042
    139  CD2       15.2750   21.1050    0.4390 C.ar  334  PHE334     -0.0042
    140  CE1       13.0070   22.6960    0.0370 C.ar  334  PHE334     -0.0003
    141  CE2       14.2870   20.7060   -0.4630 C.ar  334  PHE334     -0.0003
    142  CZ        13.1500   21.5000   -0.6590 C.ar  334  PHE334     -0.0000
    143  N         15.3060   25.8990    2.5140 N.am  335  GLY335     -0.1942
    144  CA        14.6300   26.8220    3.4380 C.3   335  GLY335      0.2014
    145  C         13.2540   27.2580    2.9520 C.2   335  GLY335      0.2638
    146  O         12.6620   26.6310    2.0700 O.2   335  GLY335     -0.2714
    147  N         12.7280   28.3250    3.5440 N.am  336  PHE336     -0.1973
    148  CA        11.5470   28.9940    3.0040 C.3   336  PHE336      0.1639
    149  C         11.9910   29.8650    1.8250 C.2   336  PHE336      0.2290
    150  O         12.9640   30.6220    1.9340 O.2   336  PHE336     -0.2864
    151  CB        10.8570   29.8460    4.0700 C.3   336  PHE336      0.0560
    152  CG        10.0250   29.0530    5.0420 C.ar  336  PHE336     -0.0200
    153  CD1       10.6210   28.3870    6.1150 C.ar  336  PHE336     -0.0042
    154  CD2        8.6340   28.9850    4.9000 C.ar  336  PHE336     -0.0042
    155  CE1        9.8500   27.6600    7.0190 C.ar  336  PHE336     -0.0003
    156  CE2        7.8620   28.2590    5.8010 C.ar  336  PHE336     -0.0003
    157  CZ         8.4700   27.5930    6.8610 C.ar  336  PHE336     -0.0000
    158  N         17.8660   25.7480    7.3600 N.3   345  ILE345     -0.1245
    159  CA        16.7800   25.7890    8.2930 C.3   345  ILE345      0.1561
    160  C         16.9860   24.7280    9.3570 C.2   345  ILE345      0.2260
    161  O         17.2580   23.5690    9.0630 O.2   345  ILE345     -0.2867
    162  CB        15.4270   25.6710    7.5560 C.3   345  ILE345      0.0252
    163  CG1       14.2680   25.8440    8.5260 C.3   345  ILE345      0.0019
    164  CG2       15.3000   24.3600    6.7790 C.3   345  ILE345      0.0019
    165  CD1       12.9920   26.2310    7.8140 C.3   345  ILE345      0.0001
    166  N         15.2740   22.8570   12.5110 N.3   347  PHE347     -0.1241
    167  CA        14.0540   22.4680   13.1990 C.3   347  PHE347      0.1605
    168  C         14.4550   22.1000   14.6060 C.2   347  PHE347      0.2264
    169  O         15.2660   21.1780   14.7920 O.2   347  PHE347     -0.2867
    170  CB        13.4520   21.2240   12.5780 C.3   347  PHE347      0.0534
    171  CG        13.0470   21.3960   11.1750 C.ar  347  PHE347     -0.0203
    172  CD1       13.9690   21.2320   10.1570 C.ar  347  PHE347     -0.0042
    173  CD2       11.7410   21.7070   10.8630 C.ar  347  PHE347     -0.0042
    174  CE1       13.5980   21.3890    8.8410 C.ar  347  PHE347     -0.0003
    175  CE2       11.3610   21.8700    9.5460 C.ar  347  PHE347     -0.0003
    176  CZ        12.2950   21.7100    8.5330 C.ar  347  PHE347     -0.0000
@<TRIPOS>BOND
     1    70    71    1
     2    70    67    1
     3    66    67    1
     4    71    73   am
     5    71    72    2
     6    67    68    1
     7    68    69    2
     8   142   141   ar
     9   142   140   ar
    10    65    64    2
    11   141   139   ar
    12    74    75    1
    13    64    63    1
    14    79    81    1
    15    79    78    1
    16   140   138   ar
    17    42    40   am
    18    39    40    1
    19    39    38    1
    20    40    41    2
    21    50    48    1
    22   139   137   ar
    23    63    62    1
    24    46    45    2
    25    47    48    1
    26    47    44    1
    27   138   137   ar
    28    38    35    1
    29    75    78    1
    30    75    76    1
    31    35    34    1
    32    35    36    1
    33    78    80    1
    34    43    44    1
    35    43    36   am
    36   137   136    1
    37    48    49    1
    38    62    53   am
    39    77    76    2
    40    44    45    1
    41    45    51   am
    42   149   150    2
    43   149   148    1
    44    36    37    2
    45   133   132    1
    46   133   136    1
    47   133   134    1
    48   146   145    2
    49   143   134   am
    50   143   144    1
    51    31    30    2
    52    32    33    1
    53    32    29    1
    54    30    29    1
    55    53    52    1
    56    53    54    2
    57   134   135    2
    58    51    52    1
    59   145   144    1
    60   145   147   am
    61   148   147    1
    62   148   151    1
    63    27    25   am
    64    52    55    1
    65    29    28    1
    66   151   152    1
    67    25    24    1
    68    25    26    2
    69    24    23    1
    70    57    59   ar
    71    57    56   ar
    72    22    21    2
    73    11     9   ar
    74    11    10   ar
    75     9     7   ar
    76    21    20    1
    77    55    56    1
    78    59    61   ar
    79   154   152   ar
    80   154   156   ar
    81   130   129    1
    82   152   153   ar
    83    56    58   ar
    84    10     8   ar
    85     7     6   ar
    86    23    20    1
    87    20    19    1
    88   156   157   ar
    89    61    60   ar
    90   153   155   ar
    91   127   128    2
    92   127   126    1
    93    82    83    1
    94     8     6   ar
    95   129   126    1
    96   129   131    1
    97     6     5    1
    98    58    60   ar
    99     1     2    1
   100   164   162    1
   101   126   125    1
   102   157   155   ar
   103    86    83    1
   104    90    89    2
   105     2     5    1
   106     2     3    1
   107    83    84    1
   108   158   159    1
   109   162   159    1
   110   162   163    1
   111   165   163    1
   112    89    88    1
   113   159   160    1
   114     3     4    2
   115    84    85    2
   116   176   174   ar
   117   176   175   ar
   118   174   172   ar
   119   161   160    2
   120   122   124   ar
   121   122   120   ar
   122   124   123   ar
   123    87    88    1
   124   175   173   ar
   125    88    91    1
   126    18    16    1
   127    17    16    1
   128   172   171   ar
   129   112   113    1
   130   112   111    1
   131   120   119   ar
   132    16    13    1
   133    13    12    1
   134    13    14    1
   135   123   121   ar
   136   173   171   ar
   137   171   170    1
   138    14    15    2
   139   119   121   ar
   140   119   118    1
   141   117   116    2
   142   111   110    1
   143   116   115    1
   144   110   107    1
   145   166   167    1
   146   170   167    1
   147   118   115    1
   148   115   114    1
   149   167   168    1
   150   107   108    1
   151   107   106    1
   152   108   109    2
   153   168   169    2
   154    98    97    1
   155    98    92    1
   156    97    96    1
   157   104   103    1
   158    94    93    1
   159    94    95    2
   160    96    93    1
   161    92    93    1
   162   103   105    1
   163   103   100    1
   164   102   101    2
   165   101   100    1
   166   100    99    1
