@<TRIPOS>MOLECULE
tmp/5entC00.pdb
 185 174 0 0 0
SMALL
GASTEIGER

@<TRIPOS>ATOM
      1  N         13.8380   17.5990  -12.5260 N.3    10  SER10      -0.1217
      2  CA        15.2190   17.8480  -12.2400 C.3    10  SER10       0.1889
      3  C         16.0910   17.7840  -13.4970 C.2    10  SER10       0.2288
      4  O         15.9060   16.8840  -14.3130 O.2    10  SER10      -0.2866
      5  CB        15.6540   16.8150  -11.2410 C.3    10  SER10       0.2089
      6  OG        16.8860   17.1880  -10.7390 O.3    10  SER10      -0.2183
      7  N         19.7990   25.1540   -8.8690 N.3    47  THR47      -0.1218
      8  CA        20.0750   23.7420   -8.5710 C.3    47  THR47       0.1862
      9  C         19.5570   22.7570   -9.6540 C.2    47  THR47       0.2287
     10  O         19.7200   21.5800   -9.5190 O.2    47  THR47      -0.2866
     11  CB        19.5120   23.3670   -7.1940 C.3    47  THR47       0.1770
     12  OG1       18.0830   23.2630   -7.2710 O.3    47  THR47      -0.2211
     13  CG2       19.9430   24.4380   -6.1140 C.3    47  THR47       0.0375
     14  N         16.3160   22.6320  -10.7060 N.3    49  THR49      -0.1218
     15  CA        15.0250   22.1490  -10.2490 C.3    49  THR49       0.1862
     16  C         13.9130   23.0360  -10.7780 C.2    49  THR49       0.2287
     17  O         14.0690   24.2360  -10.8730 O.2    49  THR49      -0.2866
     18  CB        15.0060   22.1140   -8.7160 C.3    49  THR49       0.1770
     19  OG1       15.9920   21.1720   -8.2860 O.3    49  THR49      -0.2211
     20  CG2       13.6560   21.6260   -8.1810 C.3    49  THR49       0.0375
     21  N         15.5650   11.5290  -14.9420 N.3    87  GLN87      -0.1245
     22  CA        15.5110   11.7720  -13.5000 C.3    87  GLN87       0.1566
     23  C         14.1380   11.4920  -12.8880 C.2    87  GLN87       0.2260
     24  O         14.0230   11.3000  -11.6910 O.2    87  GLN87      -0.2867
     25  CB        15.9340   13.2010  -13.1820 C.3    87  GLN87       0.0367
     26  CG        17.4240   13.4860  -13.2910 C.3    87  GLN87       0.0905
     27  CD        18.2410   12.7060  -12.2890 C.2    87  GLN87       0.2608
     28  OE1       17.8060   12.4330  -11.1530 O.2    87  GLN87      -0.2717
     29  NE2       19.4220   12.3030  -12.7140 N.am   87  GLN87      -0.0878
     30  N          3.3680   16.4830    6.3940 N.3    98  PHE98      -0.1241
     31  CA         3.9840   15.3090    6.9800 C.3    98  PHE98       0.1605
     32  C          3.2360   14.9470    8.2660 C.2    98  PHE98       0.2264
     33  O          3.0640   15.7940    9.1430 O.2    98  PHE98      -0.2867
     34  CB         5.4890   15.5160    7.2600 C.3    98  PHE98       0.0534
     35  CG         6.3430   15.6010    6.0140 C.ar   98  PHE98      -0.0203
     36  CD1        6.6300   14.4570    5.2630 C.ar   98  PHE98      -0.0042
     37  CD2        6.8680   16.8280    5.5920 C.ar   98  PHE98      -0.0042
     38  CE1        7.4100   14.5390    4.1150 C.ar   98  PHE98      -0.0003
     39  CE2        7.6530   16.9130    4.4500 C.ar   98  PHE98      -0.0003
     40  CZ         7.9270   15.7660    3.7140 C.ar   98  PHE98      -0.0000
     41  N         26.3500   10.5140    5.7510 N.3   113  GLN113     -0.1245
     42  CA        24.9340   10.6290    5.4630 C.3   113  GLN113      0.1566
     43  C         24.4890    9.8500    4.1850 C.2   113  GLN113      0.2260
     44  O         23.3450    9.4270    4.0620 O.2   113  GLN113     -0.2867
     45  CB        24.5050   12.0680    5.4600 C.3   113  GLN113      0.0367
     46  CG        24.9130   12.8710    4.2510 C.3   113  GLN113      0.0905
     47  CD        24.1010   14.1550    4.1220 C.2   113  GLN113      0.2608
     48  OE1       23.3920   14.5680    5.0520 O.2   113  GLN113     -0.2717
     49  NE2       24.1740   14.7780    2.9540 N.am  113  GLN113     -0.0878
     50  N          9.0670   10.1310    1.6040 N.3   138  GLN138     -0.1231
     51  CA        10.1940   10.7640    0.8980 C.3   138  GLN138      0.1698
     52  C         11.4920   10.5510    1.6350 C.2   138  GLN138      0.2592
     53  O         11.5300   10.7250    2.8460 O.2   138  GLN138     -0.2718
     54  CB         9.9060   12.2320    0.7110 C.3   138  GLN138      0.0381
     55  CG         8.8280   12.4250   -0.3640 C.3   138  GLN138      0.0905
     56  CD         8.0970   13.7470   -0.2570 C.2   138  GLN138      0.2608
     57  OE1        6.8840   13.8320   -0.5380 O.2   138  GLN138     -0.2717
     58  NE2        8.8280   14.7950    0.1650 N.am  138  GLN138     -0.0878
     59  N         12.5430   10.1490    0.9150 N.am  139  LEU139     -0.1966
     60  CA        13.8590    9.8440    1.5220 C.3   139  LEU139      0.1728
     61  C         14.7370   11.1300    1.6860 C.2   139  LEU139      0.2616
     62  O         14.8450   11.9380    0.7570 O.2   139  LEU139     -0.2715
     63  CB        14.5730    8.7490    0.6820 C.3   139  LEU139      0.0311
     64  CG        16.0480    8.3500    0.9970 C.3   139  LEU139      0.0022
     65  CD1       16.1810    7.7300    2.3660 C.3   139  LEU139      0.0001
     66  CD2       16.6150    7.3940   -0.0460 C.3   139  LEU139      0.0001
     67  N         15.3770   11.2980    2.8460 N.am  140  PHE140     -0.1960
     68  CA        16.2780   12.4670    3.1190 C.3   140  PHE140      0.1771
     69  C         17.7040   12.1440    2.7210 C.2   140  PHE140      0.2620
     70  O         18.6440   12.1050    3.5700 O.2   140  PHE140     -0.2715
     71  CB        16.2280   12.8850    4.5960 C.3   140  PHE140      0.0574
     72  CG        14.8870   13.4050    5.0570 C.ar  140  PHE140     -0.0200
     73  CD1       13.8360   13.7240    4.1630 C.ar  140  PHE140     -0.0042
     74  CD2       14.6680   13.5890    6.4040 C.ar  140  PHE140     -0.0042
     75  CE1       12.6120   14.2110    4.6260 C.ar  140  PHE140     -0.0003
     76  CE2       13.4570   14.0770    6.8660 C.ar  140  PHE140     -0.0003
     77  CZ        12.4250   14.3880    5.9830 C.ar  140  PHE140     -0.0000
     78  N         17.8390   11.9380    1.4070 N.am  141  GLY141     -0.1940
     79  CA        19.0560   11.4190    0.7530 C.3   141  GLY141      0.2014
     80  C         18.7490   10.5760   -0.5020 C.2   141  GLY141      0.2639
     81  O         17.6580   10.6420   -1.0720 O.2   141  GLY141     -0.2714
     82  N         19.7100    9.7820   -0.9470 N.am  142  SER142     -0.1949
     83  CA        19.4360    8.8100   -1.9920 C.3   142  SER142      0.1924
     84  C         20.1080    7.5280   -1.6510 C.2   142  SER142      0.2314
     85  O         21.0470    7.4820   -0.8770 O.2   142  SER142     -0.2863
     86  CB        19.9540    9.2730   -3.3570 C.3   142  SER142      0.2116
     87  OG        21.3420    8.9920   -3.4900 O.3   142  SER142     -0.2180
     88  N         23.5920   10.3230   -4.9290 N.3   235  GLU235     -0.1231
     89  CA        23.1710   10.7890   -6.2470 C.3   235  GLU235      0.1699
     90  C         23.4550   12.2590   -6.3980 C.2   235  GLU235      0.2592
     91  O         23.8000   12.6800   -7.4910 O.2   235  GLU235     -0.2718
     92  CB        21.7100   10.5020   -6.5290 C.3   235  GLU235      0.0402
     93  CG        21.4390    9.0250   -6.7270 C.3   235  GLU235      0.1161
     94  CD        19.9980    8.7000   -7.0920 C.2   235  GLU235      0.3649
     95  OE1       19.6720    7.4740   -7.0640 O.co2 235  GLU235     -0.2457
     96  OE2       19.2180    9.6420   -7.4350 O.co2 235  GLU235     -0.2457
     97  N         23.2990   13.0370   -5.3260 N.am  236  ASN236     -0.1974
     98  CA        23.9750   14.3420   -5.2440 C.3   236  ASN236      0.1688
     99  C         24.1460   14.8940   -3.8310 C.2   236  ASN236      0.2292
    100  O         23.7320   14.2790   -2.8590 O.2   236  ASN236     -0.2864
    101  CB        23.3420   15.3840   -6.1870 C.3   236  ASN236      0.1181
    102  CG        21.9860   15.7650   -5.7530 C.2   236  ASN236      0.2629
    103  OD1       21.2290   14.8910   -5.3440 O.2   236  ASN236     -0.2716
    104  ND2       21.6610   17.0670   -5.8150 N.am  236  ASN236     -0.0877
    105  N         23.7880   18.3390   -2.7280 N.3   238  ASP238     -0.1225
    106  CA        23.2720   19.6890   -2.4970 C.3   238  ASP238      0.1805
    107  C         22.8800   19.9370   -1.0510 C.2   238  ASP238      0.2597
    108  O         23.0050   21.0660   -0.5880 O.2   238  ASP238     -0.2718
    109  CB        22.0910   20.0040   -3.4320 C.3   238  ASP238      0.1424
    110  CG        22.5450   20.4970   -4.7870 C.2   238  ASP238      0.3668
    111  OD1       23.6430   21.1170   -4.8470 O.co2 238  ASP238     -0.2456
    112  OD2       21.7990   20.2830   -5.7820 O.co2 238  ASP238     -0.2456
    113  N         22.4610   18.8800   -0.3550 N.am  239  ILE239     -0.1980
    114  CA        21.9130   18.9460    0.9920 C.3   239  ILE239      0.1595
    115  C         22.8010   18.2410    1.9720 C.2   239  ILE239      0.2287
    116  O         23.2160   17.1160    1.7030 O.2   239  ILE239     -0.2864
    117  CB        20.5730   18.1760    1.1210 C.3   239  ILE239      0.0276
    118  CG1       19.5170   18.6820    0.1440 C.3   239  ILE239      0.0022
    119  CG2       20.0420   18.2740    2.5640 C.3   239  ILE239      0.0022
    120  CD1       18.9560   20.0390    0.4880 C.3   239  ILE239      0.0001
    121  N         22.5730   17.0430    6.0610 N.3   241  ALA241     -0.1245
    122  CA        21.6150   16.8320    7.1430 C.3   241  ALA241      0.1562
    123  C         22.3640   16.4080    8.3670 C.2   241  ALA241      0.2260
    124  O         23.1560   15.4550    8.3050 O.2   241  ALA241     -0.2867
    125  CB        20.6760   15.7340    6.7700 C.3   241  ALA241      0.0290
    126  N         17.6850   19.4470   14.3020 N.3   331  PHE331     -0.1241
    127  CA        17.8650   18.7820   13.0050 C.3   331  PHE331      0.1605
    128  C         18.1750   19.8610   11.9390 C.2   331  PHE331      0.2264
    129  O         17.3400   20.7070   11.6240 O.2   331  PHE331     -0.2867
    130  CB        16.6190   17.9670   12.6660 C.3   331  PHE331      0.0534
    131  CG        16.7830   17.0550   11.4830 C.ar  331  PHE331     -0.0203
    132  CD1       17.5480   15.9180   11.5770 C.ar  331  PHE331     -0.0042
    133  CD2       16.1560   17.3280   10.2910 C.ar  331  PHE331     -0.0042
    134  CE1       17.6980   15.0910   10.5020 C.ar  331  PHE331     -0.0003
    135  CE2       16.2990   16.4960    9.2120 C.ar  331  PHE331     -0.0003
    136  CZ        17.0690   15.3820    9.3170 C.ar  331  PHE331     -0.0000
    137  N         19.4480   21.2500    8.2600 N.3   333  VAL333     -0.1245
    138  CA        19.3960   20.9220    6.8530 C.3   333  VAL333      0.1561
    139  C         20.0490   22.0840    6.1320 C.2   333  VAL333      0.2260
    140  O         19.5960   23.2330    6.2630 O.2   333  VAL333     -0.2867
    141  CB        17.9470   20.7270    6.3960 C.3   333  VAL333      0.0252
    142  CG1       17.9110   20.3320    4.9250 C.3   333  VAL333      0.0019
    143  CG2       17.2720   19.6610    7.2680 C.3   333  VAL333      0.0019
    144  N         18.6750   23.8100    1.7960 N.3   336  PHE336     -0.1241
    145  CA        17.2240   23.9730    1.6900 C.3   336  PHE336      0.1605
    146  C         16.8100   25.0280    2.7300 C.2   336  PHE336      0.2264
    147  O         17.3830   25.0760    3.8150 O.2   336  PHE336     -0.2867
    148  CB        16.5620   22.6270    2.0100 C.3   336  PHE336      0.0534
    149  CG        15.0960   22.6110    1.8060 C.ar  336  PHE336     -0.0203
    150  CD1       14.5580   22.3160    0.5470 C.ar  336  PHE336     -0.0042
    151  CD2       14.2360   22.8750    2.8620 C.ar  336  PHE336     -0.0042
    152  CE1       13.1800   22.2930    0.3410 C.ar  336  PHE336     -0.0003
    153  CE2       12.8540   22.8570    2.6690 C.ar  336  PHE336     -0.0003
    154  CZ        12.3230   22.5650    1.4080 C.ar  336  PHE336     -0.0000
    155  N         16.3030   26.8330   -2.6130 N.3   341  ARG341     -0.1245
    156  CA        17.4570   25.9590   -2.4090 C.3   341  ARG341      0.1563
    157  C         18.7140   26.7470   -2.7370 C.2   341  ARG341      0.2260
    158  O         18.6540   27.8290   -3.3040 O.2   341  ARG341     -0.2867
    159  CB        17.4160   24.7680   -3.3480 C.3   341  ARG341      0.0307
    160  CG        16.1650   23.9600   -3.2770 C.3   341  ARG341      0.0489
    161  CD        16.0990   22.9570   -4.4200 C.3   341  ARG341      0.2205
    162  NE        15.1980   21.8680   -4.0270 N.pl3 341  ARG341     -0.0865
    163  CZ        13.8580   21.8930   -4.0620 C.cat 341  ARG341      0.5346
    164  NH1       13.1770   22.9480   -4.5450 N.pl3 341  ARG341      0.1354
    165  NH2       13.1890   20.8180   -3.6240 N.pl3 341  ARG341      0.1354
    166  N         15.3660   22.6790   12.4060 N.3   349  PHE349     -0.1241
    167  CA        14.1740   22.2540   13.1340 C.3   349  PHE349      0.1605
    168  C         14.6260   21.9640   14.5460 C.2   349  PHE349      0.2264
    169  O         15.4500   21.0790   14.7740 O.2   349  PHE349     -0.2867
    170  CB        13.5060   21.0010   12.5010 C.3   349  PHE349      0.0534
    171  CG        13.1530   21.2070   11.0630 C.ar  349  PHE349     -0.0203
    172  CD1       12.0790   22.0200   10.7060 C.ar  349  PHE349     -0.0042
    173  CD2       13.9660   20.6990   10.0560 C.ar  349  PHE349     -0.0042
    174  CE1       11.8030   22.2850    9.3670 C.ar  349  PHE349     -0.0003
    175  CE2       13.6850   20.9450    8.7240 C.ar  349  PHE349     -0.0003
    176  CZ        12.6070   21.7450    8.3790 C.ar  349  PHE349     -0.0000
    177  N         22.1020    4.0440   -9.7000 N.3   487  LYS487     -0.1245
    178  CA        22.7290    4.8700  -10.7530 C.3   487  LYS487      0.1561
    179  C         24.2650    4.9030  -10.7980 C.2   487  LYS487      0.2260
    180  O         24.9120    4.5690   -9.8220 O.2   487  LYS487     -0.2867
    181  CB        22.1900    6.2730  -10.6620 C.3   487  LYS487      0.0271
    182  CG        20.6890    6.2980  -10.8730 C.3   487  LYS487      0.0035
    183  CD        20.1920    7.7070  -10.9950 C.3   487  LYS487      0.0206
    184  CE        18.6860    7.7240  -10.9250 C.3   487  LYS487      0.1093
    185  NZ        18.2490    8.2410   -9.6110 N.3   487  LYS487     -0.1314
@<TRIPOS>BOND
     1    21    22    1
     2     4     3    2
     3    22    25    1
     4    22    23    1
     5     3     2    1
     6    26    25    1
     7    26    27    1
     8    23    24    2
     9    29    27   am
    10     1     2    1
    11    27    28    2
    12     2     5    1
    13     5     6    1
    14   183   184    1
    15   183   182    1
    16   184   185    1
    17   182   181    1
    18    17    16    2
    19   179   178    1
    20   179   180    2
    21    16    15    1
    22   178   181    1
    23   178   177    1
    24    14    15    1
    25    15    18    1
    26     9    10    2
    27     9     8    1
    28     7     8    1
    29    18    19    1
    30    18    20    1
    31     8    11    1
    32    91    90    2
    33    96    94   ar
    34    12    11    1
    35    11    13    1
    36    94    95   ar
    37    94    93    1
    38    93    92    1
    39    92    89    1
    40    90    89    1
    41    90    97   am
    42    89    88    1
    43   101   102    1
    44   101    98    1
    45   104   102   am
    46   112   110   ar
    47   102   103    2
    48    97    98    1
    49    98    99    1
    50   111   110   ar
    51   110   109    1
    52   164   163    1
    53   161   162    1
    54   161   160    1
    55   163   162    2
    56   163   165    1
    57    99   100    2
    58    87    86    1
    59   109   106    1
    60    86    83    1
    61   159   160    1
    62   159   156    1
    63   158   157    2
    64   157   156    1
    65   105   106    1
    66   155   156    1
    67   106   107    1
    68    83    84    1
    69    83    82    1
    70    84    85    2
    71    81    80    2
    72   107   108    2
    73   107   113   am
    74    82    80   am
    75    57    56    2
    76    80    79    1
    77    55    56    1
    78    55    54    1
    79   113   114    1
    80    56    58   am
    81    66    64    1
    82   118   120    1
    83   118   117    1
    84   152   150   ar
    85   152   154   ar
    86   150   149   ar
    87    63    64    1
    88    63    60    1
    89    54    51    1
    90    79    78    1
    91    62    61    2
    92    51    50    1
    93    51    52    1
    94    59    60    1
    95    59    52   am
    96   114   117    1
    97   114   115    1
    98    64    65    1
    99   117   119    1
   100    78    69   am
   101   154   153   ar
   102    60    61    1
   103    52    53    2
   104    61    67   am
   105   145   144    1
   106   145   148    1
   107   145   146    1
   108   116   115    2
   109   149   148    1
   110   149   151   ar
   111   153   151   ar
   112    69    68    1
   113    69    70    2
   114   146   147    2
   115    67    68    1
   116    49    47   am
   117    68    71    1
   118    40    38   ar
   119    40    39   ar
   120    44    43    2
   121    38    36   ar
   122    47    46    1
   123    47    48    2
   124    73    75   ar
   125    73    72   ar
   126    43    42    1
   127    46    45    1
   128    39    37   ar
   129    71    72    1
   130    75    77   ar
   131   142   141    1
   132    72    74   ar
   133    36    35   ar
   134    45    42    1
   135    42    41    1
   136    37    35   ar
   137    77    76   ar
   138    35    34    1
   139   121   122    1
   140   139   140    2
   141   139   138    1
   142    30    31    1
   143   141   138    1
   144   141   143    1
   145    74    76   ar
   146   125   122    1
   147   138   137    1
   148    31    34    1
   149    31    32    1
   150   122   123    1
   151    32    33    2
   152   124   123    2
   153   176   175   ar
   154   176   174   ar
   155   175   173   ar
   156   135   136   ar
   157   135   133   ar
   158   136   134   ar
   159   174   172   ar
   160   173   171   ar
   161   133   131   ar
   162   134   132   ar
   163   172   171   ar
   164   171   170    1
   165   131   132   ar
   166   131   130    1
   167   129   128    2
   168   128   127    1
   169   166   167    1
   170   170   167    1
   171   130   127    1
   172   127   126    1
   173   167   168    1
   174   168   169    2
