@<TRIPOS>MOLECULE
tmp/5entC01.pdb
 85 82 0 0 0
SMALL
GASTEIGER

@<TRIPOS>ATOM
      1  N          0.4830   18.2280   -3.3140 N.3    94  SER94      -0.1217
      2  CA         1.1810   18.8170   -2.1470 C.3    94  SER94       0.1889
      3  C          0.1570   19.3730   -1.1610 C.2    94  SER94       0.2288
      4  O          0.3800   20.4220   -0.5710 O.2    94  SER94      -0.2866
      5  CB         2.2530   19.8520   -2.5450 C.3    94  SER94       0.2089
      6  OG         1.8180   20.7190   -3.5740 O.3    94  SER94      -0.2183
      7  N          0.2240   17.5670    4.8270 N.3    97  SER97      -0.1202
      8  CA         1.5800   17.7710    5.3790 C.3    97  SER97       0.2020
      9  C          2.1340   16.4380    5.8930 C.2    97  SER97       0.2618
     10  O          1.4650   15.3880    5.8000 O.2    97  SER97      -0.2717
     11  CB         1.5990   18.8360    6.4980 C.3    97  SER97       0.2103
     12  OG         1.9240   20.1150    5.9850 O.3    97  SER97      -0.2182
     13  N          3.3680   16.4830    6.3940 N.am   98  PHE98      -0.1975
     14  CA         3.9840   15.3090    6.9800 C.3    98  PHE98       0.1639
     15  C          3.2360   14.9470    8.2660 C.2    98  PHE98       0.2290
     16  O          3.0640   15.7940    9.1430 O.2    98  PHE98      -0.2864
     17  CB         5.4890   15.5160    7.2600 C.3    98  PHE98       0.0560
     18  CG         6.3430   15.6010    6.0140 C.ar   98  PHE98      -0.0200
     19  CD1        6.6300   14.4570    5.2630 C.ar   98  PHE98      -0.0042
     20  CD2        6.8680   16.8280    5.5920 C.ar   98  PHE98      -0.0042
     21  CE1        7.4100   14.5390    4.1150 C.ar   98  PHE98      -0.0003
     22  CE2        7.6530   16.9130    4.4500 C.ar   98  PHE98      -0.0003
     23  CZ         7.9270   15.7660    3.7140 C.ar   98  PHE98      -0.0000
     24  N          4.0400   10.8910    4.8060 N.3   254  LYS254     -0.1245
     25  CA         2.6920   11.4690    4.6190 C.3   254  LYS254      0.1561
     26  C          1.5710   10.4260    4.8380 C.2   254  LYS254      0.2260
     27  O          1.7480    9.2290    4.5650 O.2   254  LYS254     -0.2867
     28  CB         2.5650   12.0800    3.2000 C.3   254  LYS254      0.0271
     29  CG         3.4550   13.2880    2.9500 C.3   254  LYS254      0.0035
     30  CD         2.9220   14.2940    1.9330 C.3   254  LYS254      0.0206
     31  CE         3.9400   15.4360    1.8090 C.3   254  LYS254      0.1093
     32  NZ         3.7180   16.5060    0.7820 N.3   254  LYS254     -0.1314
     33  N         11.3200   26.5200   14.4840 N.3   294  MET294     -0.1245
     34  CA        12.4020   26.5600   13.4960 C.3   294  MET294      0.1570
     35  C         13.3890   27.7380   13.6740 C.2   294  MET294      0.2261
     36  O         13.0950   28.7120   14.3710 O.2   294  MET294     -0.2867
     37  CB        11.7860   26.6640   12.1200 C.3   294  MET294      0.0387
     38  CG        10.8310   25.5490   11.7630 C.3   294  MET294      0.0595
     39  SD        10.0110   25.9960   10.2160 S.3   294  MET294     -0.1393
     40  CE         9.0240   24.5150    9.9800 C.3   294  MET294      0.0692
     41  N         18.6750   23.8100    1.7960 N.3   336  PHE336     -0.1227
     42  CA        17.2240   23.9730    1.6900 C.3   336  PHE336      0.1740
     43  C         16.8100   25.0280    2.7300 C.2   336  PHE336      0.2635
     44  O         17.3830   25.0760    3.8150 O.2   336  PHE336     -0.2714
     45  CB        16.5620   22.6270    2.0100 C.3   336  PHE336      0.0548
     46  CG        15.0960   22.6110    1.8060 C.ar  336  PHE336     -0.0202
     47  CD1       14.5580   22.3160    0.5470 C.ar  336  PHE336     -0.0042
     48  CD2       14.2360   22.8750    2.8620 C.ar  336  PHE336     -0.0042
     49  CE1       13.1800   22.2930    0.3410 C.ar  336  PHE336     -0.0003
     50  CE2       12.8540   22.8570    2.6690 C.ar  336  PHE336     -0.0003
     51  CZ        12.3230   22.5650    1.4080 C.ar  336  PHE336     -0.0000
     52  N         15.8350   25.8740    2.4190 N.am  337  GLY337     -0.1718
     53  CA        15.3950   26.8860    3.3840 C.2   337  GLY337      0.1480
     54  C         14.2220   27.7380    2.9610 C.2   337  GLY337      0.2820
     55  O         13.5120   27.4110    2.0190 O.2   337  GLY337     -0.2669
     56  N         14.0020   28.8270    3.6880 N.am  338  PHE338     -0.1939
     57  CA        12.9900   29.8110    3.3020 C.3   338  PHE338      0.1642
     58  C         13.4950   30.5070    2.0360 C.2   338  PHE338      0.2290
     59  O         14.6990   30.6980    1.8620 O.2   338  PHE338     -0.2864
     60  CB        12.6700   30.8020    4.4510 C.3   338  PHE338      0.0560
     61  CG        11.4980   30.3710    5.3220 C.ar  338  PHE338     -0.0200
     62  CD1       11.5920   29.2410    6.1510 C.ar  338  PHE338     -0.0042
     63  CD2       10.2850   31.0860    5.3070 C.ar  338  PHE338     -0.0042
     64  CE1       10.5130   28.8350    6.9380 C.ar  338  PHE338     -0.0003
     65  CE2        9.2060   30.6850    6.0970 C.ar  338  PHE338     -0.0003
     66  CZ         9.3220   29.5600    6.9130 C.ar  338  PHE338     -0.0000
     67  N         18.1570   25.5880    7.3580 N.3   347  ILE347     -0.1245
     68  CA        17.1120   25.6740    8.3230 C.3   347  ILE347      0.1561
     69  C         17.2880   24.5950    9.3720 C.2   347  ILE347      0.2260
     70  O         17.6480   23.4630    9.0620 O.2   347  ILE347     -0.2867
     71  CB        15.7370   25.5860    7.6280 C.3   347  ILE347      0.0252
     72  CG1       14.6090   25.6630    8.6560 C.3   347  ILE347      0.0019
     73  CG2       15.6040   24.3180    6.7820 C.3   347  ILE347      0.0019
     74  CD1       13.3450   26.2830    8.0930 C.3   347  ILE347      0.0001
     75  N         15.3660   22.6790   12.4060 N.3   349  PHE349     -0.1241
     76  CA        14.1740   22.2540   13.1340 C.3   349  PHE349      0.1605
     77  C         14.6260   21.9640   14.5460 C.2   349  PHE349      0.2264
     78  O         15.4500   21.0790   14.7740 O.2   349  PHE349     -0.2867
     79  CB        13.5060   21.0010   12.5010 C.3   349  PHE349      0.0534
     80  CG        13.1530   21.2070   11.0630 C.ar  349  PHE349     -0.0203
     81  CD1       12.0790   22.0200   10.7060 C.ar  349  PHE349     -0.0042
     82  CD2       13.9660   20.6990   10.0560 C.ar  349  PHE349     -0.0042
     83  CE1       11.8030   22.2850    9.3670 C.ar  349  PHE349     -0.0003
     84  CE2       13.6850   20.9450    8.7240 C.ar  349  PHE349     -0.0003
     85  CZ        12.6070   21.7450    8.3790 C.ar  349  PHE349     -0.0000
@<TRIPOS>BOND
     1     6     5    1
     2     1     2    1
     3     5     2    1
     4     2     3    1
     5     3     4    2
     6    49    47   ar
     7    49    51   ar
     8    47    46   ar
     9    32    31    1
    10    51    50   ar
    11    42    41    1
    12    42    45    1
    13    42    43    1
    14    46    45    1
    15    46    48   ar
    16    31    30    1
    17    59    58    2
    18    30    29    1
    19    55    54    2
    20    58    57    1
    21    52    43    1
    22    52    53    2
    23    50    48   ar
    24    43    44    2
    25    29    28    1
    26    54    53    1
    27    54    56   am
    28    28    25    1
    29    57    56    1
    30    57    60    1
    31    23    21   ar
    32    23    22   ar
    33    21    19   ar
    34    22    20   ar
    35    60    61    1
    36    27    26    2
    37    25    24    1
    38    25    26    1
    39     7     8    1
    40    19    18   ar
    41    63    61   ar
    42    63    65   ar
    43    61    62   ar
    44     8     9    1
    45     8    11    1
    46    20    18   ar
    47    10     9    2
    48     9    13   am
    49    12    11    1
    50    18    17    1
    51    65    66   ar
    52    62    64   ar
    53    13    14    1
    54    73    71    1
    55    66    64   ar
    56    14    17    1
    57    14    15    1
    58    67    68    1
    59    71    68    1
    60    71    72    1
    61    74    72    1
    62    15    16    2
    63    68    69    1
    64    85    84   ar
    65    85    83   ar
    66    84    82   ar
    67    70    69    2
    68    83    81   ar
    69    40    39    1
    70    82    80   ar
    71    39    38    1
    72    81    80   ar
    73    80    79    1
    74    38    37    1
    75    37    34    1
    76    75    76    1
    77    79    76    1
    78    76    77    1
    79    34    35    1
    80    34    33    1
    81    35    36    2
    82    77    78    2
