@<TRIPOS>MOLECULE
tmp/5enzB01.pdb
 173 167 0 0 0
SMALL
GASTEIGER

@<TRIPOS>ATOM
      1  N         14.0280    2.1080  -64.3970 N.3    11  ARG11      -0.1231
      2  CA        14.2490    2.6520  -65.7290 C.3    11  ARG11       0.1679
      3  C         13.9270    4.1620  -65.7940 C.2    11  ARG11       0.2434
      4  O         14.7400    4.9030  -66.3320 O.2    11  ARG11      -0.2733
      5  CB        13.4520    1.8290  -66.7840 C.3    11  ARG11       0.0321
      6  CG        13.4850    2.3710  -68.2200 C.3    11  ARG11       0.0489
      7  CD        12.2040    2.0910  -68.9990 C.3    11  ARG11       0.2205
      8  NE        11.2010    3.1590  -68.8430 N.pl3  11  ARG11      -0.0865
      9  CZ         9.9320    3.0010  -68.4600 C.cat  11  ARG11       0.5346
     10  NH1        9.4460    1.7940  -68.2010 N.pl3  11  ARG11       0.1354
     11  NH2        9.1370    4.0460  -68.3470 N.pl3  11  ARG11       0.1354
     12  N         12.7850    4.6420  -65.2450 N.am   12  PRO12      -0.2729
     13  CA        12.5230    6.0920  -65.2970 C.3    12  PRO12       0.1401
     14  C         13.6050    6.9190  -64.5770 C.2    12  PRO12       0.2269
     15  O         13.9950    8.0000  -65.0380 O.2    12  PRO12      -0.2865
     16  CB        11.1640    6.2340  -64.6030 C.3    12  PRO12       0.0296
     17  CG        10.5160    4.9000  -64.7370 C.3    12  PRO12       0.0237
     18  CD        11.6080    3.8960  -64.7350 C.3    12  PRO12       0.0939
     19  N         16.8170    7.0060  -66.7280 N.3    15  ILE15      -0.1231
     20  CA        16.7230    7.9920  -67.8040 C.3    15  ILE15       0.1692
     21  C         17.0850    9.3830  -67.2610 C.2    15  ILE15       0.2591
     22  O         17.8270   10.1300  -67.9100 O.2    15  ILE15      -0.2718
     23  CB        15.3030    7.9870  -68.4670 C.3    15  ILE15       0.0266
     24  CG1       15.0850    6.6790  -69.2720 C.3    15  ILE15       0.0019
     25  CG2       15.1080    9.2130  -69.3910 C.3    15  ILE15       0.0020
     26  CD1       13.6190    6.3130  -69.5240 C.3    15  ILE15       0.0001
     27  N         16.5270    9.7480  -66.0930 N.am   16  LYS16      -0.1980
     28  CA        16.7810   11.0880  -65.5320 C.3    16  LYS16       0.1596
     29  C         18.1680   11.2450  -64.9490 C.2    16  LYS16       0.2287
     30  O         18.7100   12.3380  -64.9920 O.2    16  LYS16      -0.2864
     31  CB        15.7170   11.4390  -64.4770 C.3    16  LYS16       0.0298
     32  CG        14.3850   11.8020  -65.1330 C.3    16  LYS16       0.0038
     33  CD        13.2160   11.8810  -64.1180 C.3    16  LYS16       0.0206
     34  CE        12.0530   12.6490  -64.6770 C.3    16  LYS16       0.1093
     35  NZ        10.8960   12.6390  -63.7200 N.3    16  LYS16      -0.1314
     36  N         13.6700   -2.4830  -61.6810 N.3    40  HIS40      -0.1241
     37  CA        13.4650   -2.7320  -63.1120 C.3    40  HIS40       0.1621
     38  C         14.8310   -3.2920  -63.5710 C.2    40  HIS40       0.2264
     39  O         15.8350   -2.6110  -63.3750 O.2    40  HIS40      -0.2867
     40  CB        13.1600   -1.4360  -63.8910 C.3    40  HIS40       0.0745
     41  CG        11.8200   -0.8150  -63.6140 C.ar   40  HIS40       0.0817
     42  ND1       11.0540   -0.2770  -64.6400 N.ar   40  HIS40      -0.2268
     43  CD2       11.1560   -0.6480  -62.4460 C.ar   40  HIS40       0.1154
     44  CE1        9.9490    0.1790  -64.0710 C.ar   40  HIS40       0.1986
     45  NE2        9.9700   -0.0080  -62.7510 N.ar   40  HIS40      -0.2212
     46  N          5.2850    7.2880  -53.2300 N.3   129  GLU129     -0.1245
     47  CA         6.1540    8.3480  -53.7200 C.3   129  GLU129      0.1567
     48  C          6.0330    9.6700  -52.9710 C.2   129  GLU129      0.2260
     49  O          7.0600   10.2860  -52.7120 O.2   129  GLU129     -0.2867
     50  CB         5.9440    8.6130  -55.2340 C.3   129  GLU129      0.0388
     51  CG         6.5000    7.5310  -56.1510 C.3   129  GLU129      0.1160
     52  CD         5.5590    6.3910  -56.4760 C.2   129  GLU129      0.3649
     53  OE1        4.5460    6.2020  -55.7650 O.co2 129  GLU129     -0.2457
     54  OE2        5.8480    5.6650  -57.4510 O.co2 129  GLU129     -0.2457
     55  N          0.3630    5.4920  -71.9650 N.3   200  THR200     -0.1218
     56  CA         1.1110    4.6100  -71.0390 C.3   200  THR200      0.1862
     57  C          0.3380    4.6950  -69.7260 C.2   200  THR200      0.2287
     58  O         -0.3320    5.7020  -69.4820 O.2   200  THR200     -0.2866
     59  CB         2.5730    4.9570  -70.8550 C.3   200  THR200      0.1770
     60  OG1        2.6680    6.1860  -70.1510 O.3   200  THR200     -0.2211
     61  CG2        3.3810    4.9990  -72.1830 C.3   200  THR200      0.0375
     62  N          0.5890    3.2000  -65.3890 N.3   202  HIS202     -0.1241
     63  CA         1.2200    2.4120  -64.3280 C.3   202  HIS202      0.1621
     64  C          0.3840    1.2120  -63.9310 C.2   202  HIS202      0.2264
     65  O         -0.8540    1.2100  -64.0640 O.2   202  HIS202     -0.2867
     66  CB         1.4860    3.2890  -63.0950 C.3   202  HIS202      0.0745
     67  CG         2.7410    4.0970  -63.2380 C.ar  202  HIS202      0.0817
     68  ND1        3.9930    3.5130  -63.0820 N.ar  202  HIS202     -0.2268
     69  CD2        2.9070    5.3970  -63.5730 C.ar  202  HIS202      0.1154
     70  CE1        4.8750    4.4790  -63.2940 C.ar  202  HIS202      0.1986
     71  NE2        4.2780    5.6120  -63.6530 N.ar  202  HIS202     -0.2212
     72  N          2.3890    1.0900  -75.3670 N.3   233  PRO233     -0.2116
     73  CA         3.4760    0.2270  -74.8860 C.3   233  PRO233      0.1372
     74  C          3.0900   -0.1670  -73.4530 C.2   233  PRO233      0.2244
     75  O          3.0530    0.6890  -72.5600 O.2   233  PRO233     -0.2868
     76  CB         4.7110    1.1390  -74.9280 C.3   233  PRO233      0.0268
     77  CG         4.3260    2.2760  -75.8360 C.3   233  PRO233      0.0207
     78  CD         2.8760    2.4780  -75.5760 C.3   233  PRO233      0.0892
     79  N          3.0650   -2.2350  -69.6820 N.3   235  HIS235     -0.1241
     80  CA         3.8970   -2.8710  -68.6610 C.3   235  HIS235      0.1621
     81  C          3.7200   -4.3850  -68.8080 C.2   235  HIS235      0.2264
     82  O          2.6620   -4.8300  -69.2410 O.2   235  HIS235     -0.2867
     83  CB         3.4840   -2.4570  -67.2280 C.3   235  HIS235      0.0745
     84  CG         4.1460   -1.1930  -66.7890 C.ar  235  HIS235      0.0817
     85  ND1        5.5180   -1.1290  -66.6000 N.ar  235  HIS235     -0.2268
     86  CD2        3.6210    0.0320  -66.5900 C.ar  235  HIS235      0.1154
     87  CE1        5.7770    0.1280  -66.2580 C.ar  235  HIS235      0.1986
     88  NE2        4.6630    0.8640  -66.2490 N.ar  235  HIS235     -0.2212
     89  N          7.0360   -2.5070  -73.8080 N.3   259  PRO259     -0.2102
     90  CA         7.6440   -1.2240  -73.4480 C.3   259  PRO259      0.1504
     91  C          8.6420   -0.7830  -74.5160 C.2   259  PRO259      0.2575
     92  O          9.3180   -1.6230  -75.1100 O.2   259  PRO259     -0.2718
     93  CB         8.3670   -1.5520  -72.1450 C.3   259  PRO259      0.0282
     94  CG         7.4710   -2.5640  -71.4860 C.3   259  PRO259      0.0208
     95  CD         7.0800   -3.4460  -72.6630 C.3   259  PRO259      0.0893
     96  N          8.7340    0.5170  -74.7820 N.am  260  LEU260     -0.1980
     97  CA         9.6560    1.0070  -75.8030 C.3   260  LEU260      0.1596
     98  C         10.9420    1.4170  -75.1490 C.2   260  LEU260      0.2287
     99  O         10.9380    1.9340  -74.0030 O.2   260  LEU260     -0.2864
    100  CB         9.0520    2.2200  -76.5430 C.3   260  LEU260      0.0297
    101  CG         7.8200    1.9410  -77.4150 C.3   260  LEU260      0.0022
    102  CD1        7.2910    3.1970  -78.0130 C.3   260  LEU260      0.0001
    103  CD2        8.1600    0.9280  -78.5610 C.3   260  LEU260      0.0001
    104  N         13.9310    4.1040  -74.5970 N.3   262  VAL262     -0.1245
    105  CA        13.7550    5.5580  -74.5100 C.3   262  VAL262      0.1561
    106  C         13.9490    6.2750  -75.8470 C.2   262  VAL262      0.2260
    107  O         13.2080    7.2030  -76.1280 O.2   262  VAL262     -0.2867
    108  CB        14.6080    6.1710  -73.3680 C.3   262  VAL262      0.0252
    109  CG1       16.1150    6.0910  -73.6510 C.3   262  VAL262      0.0019
    110  CG2       14.1640    7.6080  -73.0640 C.3   262  VAL262      0.0019
    111  N         10.6540    5.6370  -77.5610 N.3   265  PHE265     -0.1227
    112  CA         9.5170    6.3070  -76.8920 C.3   265  PHE265      0.1736
    113  C          9.5300    7.7950  -77.1800 C.2   265  PHE265      0.2595
    114  O          8.4920    8.3690  -77.4930 O.2   265  PHE265     -0.2718
    115  CB         9.5340    6.0700  -75.3630 C.3   265  PHE265      0.0547
    116  CG         8.2000    6.4510  -74.7800 C.ar  265  PHE265     -0.0202
    117  CD1        7.1110    5.5830  -74.8760 C.ar  265  PHE265     -0.0042
    118  CD2        7.9900    7.7310  -74.2600 C.ar  265  PHE265     -0.0042
    119  CE1        5.8470    5.9600  -74.4150 C.ar  265  PHE265     -0.0003
    120  CE2        6.7240    8.1090  -73.7950 C.ar  265  PHE265     -0.0003
    121  CZ         5.6510    7.2230  -73.9030 C.ar  265  PHE265     -0.0000
    122  N         10.6870    8.4350  -77.0390 N.am  266  HIS266     -0.1975
    123  CA        10.7870    9.8780  -77.3290 C.3   266  HIS266      0.1656
    124  C         10.4210   10.1790  -78.7760 C.2   266  HIS266      0.2291
    125  O          9.7390   11.1580  -79.0380 O.2   266  HIS266     -0.2864
    126  CB        12.1990   10.4190  -76.9950 C.3   266  HIS266      0.0771
    127  CG        12.4800   10.5290  -75.5240 C.ar  266  HIS266      0.0820
    128  ND1       13.7150   10.9860  -75.0440 N.ar  266  HIS266     -0.2267
    129  CD2       11.6790   10.2720  -74.4700 C.ar  266  HIS266      0.1154
    130  CE1       13.6220   10.9800  -73.7200 C.ar  266  HIS266      0.1986
    131  NE2       12.4180   10.5590  -73.3300 N.ar  266  HIS266     -0.2212
    132  N          2.0490    9.0590  -66.2870 N.3   279  SER279     -0.1202
    133  CA         3.4820    9.1740  -66.0770 C.3   279  SER279      0.2020
    134  C          3.8870   10.5210  -65.5250 C.2   279  SER279      0.2619
    135  O          3.3910   11.5320  -65.9950 O.2   279  SER279     -0.2717
    136  CB         4.2090    9.0050  -67.4150 C.3   279  SER279      0.2103
    137  OG         5.6020    9.2100  -67.2590 O.3   279  SER279     -0.2182
    138  N          4.8170   10.5490  -64.5660 N.am  280  GLY280     -0.1942
    139  CA         5.3290   11.8280  -64.0780 C.3   280  GLY280      0.2014
    140  C          6.3540   12.3620  -65.0960 C.2   280  GLY280      0.2639
    141  O          6.2890   13.5280  -65.4990 O.2   280  GLY280     -0.2714
    142  N          7.3190   11.5050  -65.5160 N.am  281  GLY281     -0.1939
    143  CA         8.3790   11.9150  -66.4520 C.3   281  GLY281      0.2014
    144  C          7.8850   12.4400  -67.7980 C.2   281  GLY281      0.2638
    145  O          8.4060   13.4510  -68.2880 O.2   281  GLY281     -0.2714
    146  N          6.8670   11.8070  -68.3670 N.am  282  ILE282     -0.1977
    147  CA         6.3450   12.2840  -69.6440 C.3   282  ILE282      0.1596
    148  C          5.7840   13.7350  -69.5510 C.2   282  ILE282      0.2287
    149  O          5.9030   14.5170  -70.5070 O.2   282  ILE282     -0.2864
    150  CB         5.3150   11.3180  -70.2520 C.3   282  ILE282      0.0276
    151  CG1        5.9870    9.9170  -70.5230 C.3   282  ILE282      0.0022
    152  CG2        4.7980   11.9480  -71.5610 C.3   282  ILE282      0.0022
    153  CD1        4.9590    8.8380  -70.9760 C.3   282  ILE282      0.0001
    154  N          8.7340   16.0160  -70.0690 N.3   285  GLU285     -0.1245
    155  CA         9.3370   15.9280  -71.4080 C.3   285  GLU285      0.1567
    156  C          8.4310   16.5260  -72.4700 C.2   285  GLU285      0.2260
    157  O          8.9240   17.1520  -73.3990 O.2   285  GLU285     -0.2867
    158  CB         9.5270   14.4410  -71.7970 C.3   285  GLU285      0.0388
    159  CG        10.4990   13.7030  -70.8810 C.3   285  GLU285      0.1160
    160  CD        10.4600   12.1920  -71.0560 C.2   285  GLU285      0.3649
    161  OE1        9.4400   11.6640  -71.5560 O.co2 285  GLU285     -0.2457
    162  OE2       11.4750   11.5330  -70.7420 O.co2 285  GLU285     -0.2457
    163  N         -4.3160   11.3330  -63.5120 N.3   297  ARG297     -0.1245
    164  CA        -4.1540   11.4250  -62.0560 C.3   297  ARG297      0.1563
    165  C         -5.2280   12.3880  -61.4950 C.2   297  ARG297      0.2260
    166  O         -5.6370   13.2990  -62.1860 O.2   297  ARG297     -0.2867
    167  CB        -2.7720   11.9350  -61.6750 C.3   297  ARG297      0.0307
    168  CG        -1.6260   10.9590  -61.9860 C.3   297  ARG297      0.0489
    169  CD        -0.3420   11.4140  -61.2920 C.3   297  ARG297      0.2205
    170  NE         0.8760   10.8180  -61.8690 N.pl3 297  ARG297     -0.0865
    171  CZ         2.0950   10.8710  -61.3250 C.cat 297  ARG297      0.5346
    172  NH1        2.2900   11.4960  -60.1650 N.pl3 297  ARG297      0.1354
    173  NH2        3.1260   10.2920  -61.9300 N.pl3 297  ARG297      0.1354
@<TRIPOS>BOND
     1   125   124    2
     2   124   123    1
     3   103   101    1
     4   102   101    1
     5   111   112    1
     6   114   113    2
     7   101   100    1
     8   123   122    1
     9   123   126    1
    10   113   122   am
    11   113   112    1
    12   126   127    1
    13   112   115    1
    14   100    97    1
    15   107   106    2
    16   106   105    1
    17    77    78    1
    18    77    76    1
    19    97    98    1
    20    97    96    1
    21    78    72    1
    22   127   128   ar
    23   127   129   ar
    24    72    73    1
    25   115   116    1
    26    98    99    2
    27    92    91    2
    28   128   130   ar
    29    76    73    1
    30    73    74    1
    31   117   116   ar
    32   117   119   ar
    33    96    91   am
    34   116   118   ar
    35   104   105    1
    36    91    90    1
    37   105   108    1
    38   129   131   ar
    39   119   121   ar
    40   118   120   ar
    41   121   120   ar
    42    89    90    1
    43    89    95    1
    44   130   131   ar
    45   109   108    1
    46    74    75    2
    47    90    93    1
    48   157   156    2
    49   108   110    1
    50    95    94    1
    51   156   155    1
    52    61    59    1
    53    93    94    1
    54    55    56    1
    55   158   155    1
    56   158   159    1
    57   152   150    1
    58   161   160   ar
    59   155   154    1
    60   160   159    1
    61   160   162   ar
    62    56    59    1
    63    56    57    1
    64   153   151    1
    65    59    60    1
    66   151   150    1
    67   149   148    2
    68   150   147    1
    69    57    58    2
    70    79    80    1
    71   147   148    1
    72   147   146    1
    73    26    24    1
    74    25    23    1
    75    24    23    1
    76    82    81    2
    77     7     8    1
    78     7     6    1
    79     8     9    2
    80    81    80    1
    81    80    83    1
    82    23    20    1
    83     9    11    1
    84     9    10    1
    85   146   144   am
    86   145   144    2
    87     6     5    1
    88    22    21    2
    89    20    21    1
    90    20    19    1
    91   144   143    1
    92   136   137    1
    93   136   133    1
    94    21    27   am
    95    83    84    1
    96    84    85   ar
    97    84    86   ar
    98     5     2    1
    99    85    87   ar
   100    86    88   ar
   101   143   142    1
   102     4     3    2
   103   132   133    1
   104    87    88   ar
   105    27    28    1
   106   133   134    1
   107   135   134    2
   108     3     2    1
   109     3    12   am
   110     2     1    1
   111    28    29    1
   112    28    31    1
   113   134   138   am
   114   142   140   am
   115   141   140    2
   116    62    63    1
   117    13    12    1
   118    13    16    1
   119    13    14    1
   120    12    18    1
   121    32    31    1
   122    32    33    1
   123   140   139    1
   124    15    14    2
   125    30    29    2
   126    17    18    1
   127    17    16    1
   128    34    33    1
   129    34    35    1
   130    42    44   ar
   131    42    41   ar
   132   138   139    1
   133    63    64    1
   134    63    66    1
   135    44    45   ar
   136    65    64    2
   137    40    41    1
   138    40    37    1
   139    71    69   ar
   140    71    70   ar
   141    41    43   ar
   142    69    67   ar
   143    38    39    2
   144    38    37    1
   145   163   164    1
   146    70    68   ar
   147    67    66    1
   148    67    68   ar
   149    37    36    1
   150    45    43   ar
   151   166   165    2
   152   164   167    1
   153   164   165    1
   154   168   167    1
   155   168   169    1
   156   173   171    1
   157   170   171    2
   158   170   169    1
   159   171   172    1
   160    54    52   ar
   161    52    51    1
   162    52    53   ar
   163    51    50    1
   164    50    47    1
   165    47    46    1
   166    47    48    1
   167    48    49    2
