@<TRIPOS>MOLECULE
tmp/5enzB02.pdb
 105 97 0 0 0
SMALL
GASTEIGER

@<TRIPOS>ATOM
      1  N         15.4510    2.1530  -61.0960 N.3    10  THR10      -0.1218
      2  CA        14.3610    1.8900  -62.0280 C.3    10  THR10       0.1862
      3  C         14.7120    2.5170  -63.3420 C.2    10  THR10       0.2287
      4  O         15.5390    3.4260  -63.3870 O.2    10  THR10      -0.2866
      5  CB        13.0340    2.4770  -61.4870 C.3    10  THR10       0.1770
      6  OG1       13.1080    3.8810  -61.6300 O.3    10  THR10      -0.2211
      7  CG2       12.7670    2.1500  -60.0250 C.3    10  THR10       0.0375
      8  N         12.7850    4.6420  -65.2450 N.3    12  PRO12      -0.2102
      9  CA        12.5230    6.0920  -65.2970 C.3    12  PRO12       0.1504
     10  C         13.6050    6.9190  -64.5770 C.2    12  PRO12       0.2575
     11  O         13.9950    8.0000  -65.0380 O.2    12  PRO12      -0.2718
     12  CB        11.1640    6.2340  -64.6030 C.3    12  PRO12       0.0282
     13  CG        10.5160    4.9000  -64.7370 C.3    12  PRO12       0.0208
     14  CD        11.6080    3.8960  -64.7350 C.3    12  PRO12       0.0893
     15  N         14.1000    6.3770  -63.4740 N.am   13  GLU13      -0.1980
     16  CA        15.1230    7.0230  -62.6500 C.3    13  GLU13       0.1602
     17  C         16.4630    7.0280  -63.4020 C.2    13  GLU13       0.2287
     18  O         17.1840    8.0050  -63.3350 O.2    13  GLU13      -0.2864
     19  CB        15.2220    6.2440  -61.3310 C.3    13  GLU13       0.0415
     20  CG        15.7620    6.9890  -60.1350 C.3    13  GLU13       0.1163
     21  CD        15.5580    6.2090  -58.8440 C.2    13  GLU13       0.3649
     22  OE1       15.8320    4.9920  -58.8280 O.co2  13  GLU13      -0.2457
     23  OE2       15.0000    6.7810  -57.8870 O.co2  13  GLU13      -0.2457
     24  N         16.5270    9.7480  -66.0930 N.3    16  LYS16      -0.1245
     25  CA        16.7810   11.0880  -65.5320 C.3    16  LYS16       0.1561
     26  C         18.1680   11.2450  -64.9490 C.2    16  LYS16       0.2260
     27  O         18.7100   12.3380  -64.9920 O.2    16  LYS16      -0.2867
     28  CB        15.7170   11.4390  -64.4770 C.3    16  LYS16       0.0271
     29  CG        14.3850   11.8020  -65.1330 C.3    16  LYS16       0.0035
     30  CD        13.2160   11.8810  -64.1180 C.3    16  LYS16       0.0206
     31  CE        12.0530   12.6490  -64.6770 C.3    16  LYS16       0.1093
     32  NZ        10.8960   12.6390  -63.7200 N.3    16  LYS16      -0.1314
     33  N         17.7070   10.2120  -56.4620 N.3    91  HIS91      -0.1241
     34  CA        16.7850   10.8760  -57.3520 C.3    91  HIS91       0.1621
     35  C         15.3420   10.7100  -56.9580 C.2    91  HIS91       0.2264
     36  O         14.8930    9.5980  -56.7680 O.2    91  HIS91      -0.2867
     37  CB        16.9400   10.2760  -58.7780 C.3    91  HIS91       0.0745
     38  CG        16.0680   10.9830  -59.7690 C.ar   91  HIS91       0.0817
     39  ND1       14.7140   10.7060  -59.8740 N.ar   91  HIS91      -0.2268
     40  CD2       16.3590   12.0200  -60.5800 C.ar   91  HIS91       0.1154
     41  CE1       14.2400   11.5550  -60.7590 C.ar   91  HIS91       0.1986
     42  NE2       15.1880   12.3860  -61.1880 N.ar   91  HIS91      -0.2212
     43  N         11.7630    9.9500  -55.9440 N.3    93  ASP93      -0.1225
     44  CA        10.9080    9.4530  -54.9010 C.3    93  ASP93       0.1805
     45  C         10.6330    7.9550  -54.8900 C.2    93  ASP93       0.2598
     46  O          9.5720    7.5560  -54.4370 O.2    93  ASP93      -0.2718
     47  CB         9.5820   10.2380  -55.0650 C.3    93  ASP93       0.1424
     48  CG         8.9660   10.1210  -56.4460 C.2    93  ASP93       0.3668
     49  OD1        9.2710    9.1230  -57.1550 O.co2  93  ASP93      -0.2456
     50  OD2        8.2100   11.0370  -56.8330 O.co2  93  ASP93      -0.2456
     51  N         11.5830    7.1190  -55.3300 N.am   94  THR94      -0.1953
     52  CA        11.3500    5.6730  -55.3210 C.3    94  THR94       0.1897
     53  C         11.8430    5.0590  -54.0010 C.2    94  THR94       0.2313
     54  O         12.4690    5.7130  -53.1660 O.2    94  THR94      -0.2863
     55  CB        12.0680    5.0200  -56.5140 C.3    94  THR94       0.1794
     56  OG1       13.4820    5.0710  -56.2800 O.3    94  THR94      -0.2208
     57  CG2       11.6740    5.6370  -57.8570 C.3    94  THR94       0.0378
     58  N         15.9400   16.3260  -58.3790 N.3   115  GLU115     -0.1245
     59  CA        14.4750   16.4280  -58.5410 C.3   115  GLU115      0.1567
     60  C         13.8290   16.5050  -57.1420 C.2   115  GLU115      0.2260
     61  O         13.0510   15.6400  -56.7250 O.2   115  GLU115     -0.2867
     62  CB        13.8780   15.2790  -59.3810 C.3   115  GLU115      0.0388
     63  CG        12.4660   15.5920  -59.8270 C.3   115  GLU115      0.1160
     64  CD        11.8230   14.4140  -60.5150 C.2   115  GLU115      0.3649
     65  OE1       12.1030   14.2020  -61.7160 O.co2 115  GLU115     -0.2457
     66  OE2       11.1360   13.6340  -59.8250 O.co2 115  GLU115     -0.2457
     67  N          5.2850    7.2880  -53.2300 N.3   129  GLU129     -0.1245
     68  CA         6.1540    8.3480  -53.7200 C.3   129  GLU129      0.1567
     69  C          6.0330    9.6700  -52.9710 C.2   129  GLU129      0.2260
     70  O          7.0600   10.2860  -52.7120 O.2   129  GLU129     -0.2867
     71  CB         5.9440    8.6130  -55.2340 C.3   129  GLU129      0.0388
     72  CG         6.5000    7.5310  -56.1510 C.3   129  GLU129      0.1160
     73  CD         5.5590    6.3910  -56.4760 C.2   129  GLU129      0.3649
     74  OE1        4.5460    6.2020  -55.7650 O.co2 129  GLU129     -0.2457
     75  OE2        5.8480    5.6650  -57.4510 O.co2 129  GLU129     -0.2457
     76  N          4.8170   10.5490  -64.5660 N.3   280  GLY280     -0.1210
     77  CA         5.3290   11.8280  -64.0780 C.3   280  GLY280      0.1956
     78  C          6.3540   12.3620  -65.0960 C.2   280  GLY280      0.2612
     79  O          6.2890   13.5280  -65.4990 O.2   280  GLY280     -0.2717
     80  N          7.3190   11.5050  -65.5160 N.am  281  GLY281     -0.1956
     81  CA         8.3790   11.9150  -66.4520 C.3   281  GLY281      0.1869
     82  C          7.8850   12.4400  -67.7980 C.2   281  GLY281      0.2309
     83  O          8.4060   13.4510  -68.2880 O.2   281  GLY281     -0.2863
     84  N         -4.3160   11.3330  -63.5120 N.3   297  ARG297     -0.1245
     85  CA        -4.1540   11.4250  -62.0560 C.3   297  ARG297      0.1563
     86  C         -5.2280   12.3880  -61.4950 C.2   297  ARG297      0.2260
     87  O         -5.6370   13.2990  -62.1860 O.2   297  ARG297     -0.2867
     88  CB        -2.7720   11.9350  -61.6750 C.3   297  ARG297      0.0307
     89  CG        -1.6260   10.9590  -61.9860 C.3   297  ARG297      0.0489
     90  CD        -0.3420   11.4140  -61.2920 C.3   297  ARG297      0.2205
     91  NE         0.8760   10.8180  -61.8690 N.pl3 297  ARG297     -0.0865
     92  CZ         2.0950   10.8710  -61.3250 C.cat 297  ARG297      0.5346
     93  NH1        2.2900   11.4960  -60.1650 N.pl3 297  ARG297      0.1354
     94  NH2        3.1260   10.2920  -61.9300 N.pl3 297  ARG297      0.1354
     95  N          2.7860   18.4700  -60.4100 N.3   302  ARG302     -0.1245
     96  CA         3.3830   19.1490  -61.5380 C.3   302  ARG302      0.1563
     97  C          2.4080   20.1990  -62.0260 C.2   302  ARG302      0.2260
     98  O          1.9680   20.1500  -63.1660 O.2   302  ARG302     -0.2867
     99  CB         3.7170   18.1120  -62.6270 C.3   302  ARG302      0.0307
    100  CG         4.9810   17.3680  -62.2950 C.3   302  ARG302      0.0489
    101  CD         5.1610   16.1100  -63.0900 C.3   302  ARG302      0.2205
    102  NE         6.4000   15.4370  -62.7060 N.pl3 302  ARG302     -0.0865
    103  CZ         6.5290   14.4020  -61.8790 C.cat 302  ARG302      0.5346
    104  NH1        5.4580   13.8560  -61.3010 N.pl3 302  ARG302      0.1354
    105  NH2        7.7300   13.8960  -61.6240 N.pl3 302  ARG302      0.1354
@<TRIPOS>BOND
     1    83    82    2
     2    82    81    1
     3    81    80    1
     4    24    25    1
     5    25    26    1
     6    25    28    1
     7    80    78   am
     8    79    78    2
     9     9     8    1
    10     9    12    1
    11     9    10    1
    12     8    14    1
    13    29    28    1
    14    29    30    1
    15    78    77    1
    16    11    10    2
    17    27    26    2
    18    13    14    1
    19    13    12    1
    20    31    30    1
    21    31    32    1
    22    10    15   am
    23    76    77    1
    24    84    85    1
    25    15    16    1
    26    17    18    2
    27    17    16    1
    28     4     3    2
    29     3     2    1
    30    98    97    2
    31   101   102    1
    32   101   100    1
    33   102   103    2
    34    16    19    1
    35    99   100    1
    36    99    96    1
    37    87    86    2
    38    85    88    1
    39    85    86    1
    40     2     5    1
    41     2     1    1
    42    97    96    1
    43    89    88    1
    44    89    90    1
    45    94    92    1
    46   103   105    1
    47   103   104    1
    48    91    92    2
    49    91    90    1
    50    65    64   ar
    51     6     5    1
    52    96    95    1
    53     5     7    1
    54    19    20    1
    55    92    93    1
    56    42    41   ar
    57    42    40   ar
    58    41    39   ar
    59    40    38   ar
    60    64    63    1
    61    64    66   ar
    62    20    21    1
    63    39    38   ar
    64    63    62    1
    65    38    37    1
    66    62    59    1
    67    21    22   ar
    68    21    23   ar
    69    37    34    1
    70    59    58    1
    71    59    60    1
    72    57    55    1
    73    75    73   ar
    74    34    35    1
    75    34    33    1
    76    49    48   ar
    77    60    61    2
    78    35    36    2
    79    50    48   ar
    80    55    56    1
    81    55    52    1
    82    73    72    1
    83    73    74   ar
    84    48    47    1
    85    72    71    1
    86    43    44    1
    87    51    52    1
    88    51    45   am
    89    52    53    1
    90    71    68    1
    91    47    44    1
    92    44    45    1
    93    45    46    2
    94    53    54    2
    95    68    67    1
    96    68    69    1
    97    69    70    2
