@<TRIPOS>MOLECULE
tmp/5eo1A00.pdb
 232 221 0 0 0
SMALL
GASTEIGER

@<TRIPOS>ATOM
      1  N         -4.8020   -9.7240   27.5510 N.3     9  TYR9       -0.1241
      2  CA        -3.8920   -8.6920   28.0370 C.3     9  TYR9        0.1605
      3  C         -3.1200   -8.0580   26.8860 C.2     9  TYR9        0.2264
      4  O         -2.6690   -8.7530   25.9760 O.2     9  TYR9       -0.2867
      5  CB        -2.8990   -9.2640   29.0540 C.3     9  TYR9        0.0534
      6  CG        -3.5050   -9.7950   30.3350 C.ar    9  TYR9       -0.0201
      7  CD1       -4.8290   -9.5430   30.6680 C.ar    9  TYR9       -0.0009
      8  CD2       -2.7400  -10.5460   31.2190 C.ar    9  TYR9       -0.0009
      9  CE1       -5.3740  -10.0300   31.8440 C.ar    9  TYR9        0.0417
     10  CE2       -3.2750  -11.0360   32.3930 C.ar    9  TYR9        0.0417
     11  CZ        -4.5910  -10.7750   32.7020 C.ar    9  TYR9        0.1957
     12  OH        -5.1210  -11.2650   33.8740 O.3     9  TYR9       -0.2866
     13  N        -10.4010   -6.4940   44.3870 N.3    62  ARG62      -0.1245
     14  CA        -9.4310   -7.5810   44.3150 C.3    62  ARG62       0.1563
     15  C         -8.8390   -7.7090   42.9140 C.2    62  ARG62       0.2260
     16  O         -7.6260   -7.8350   42.7550 O.2    62  ARG62      -0.2867
     17  CB       -10.0730   -8.9050   44.7320 C.3    62  ARG62       0.0307
     18  CG        -9.1120  -10.0820   44.7210 C.3    62  ARG62       0.0489
     19  CD        -9.8240  -11.3870   45.0320 C.3    62  ARG62       0.2205
     20  NE        -8.9110  -12.5260   44.9880 N.pl3  62  ARG62      -0.0865
     21  CZ        -8.5880  -13.1790   43.8760 C.cat  62  ARG62       0.5346
     22  NH1       -7.7490  -14.2040   43.9270 N.pl3  62  ARG62       0.1354
     23  NH2       -9.1020  -12.8050   42.7130 N.pl3  62  ARG62       0.1354
     24  N         -4.9800   -7.1150   41.0600 N.3    66  ILE66      -0.1245
     25  CA        -4.4060   -8.1480   40.2040 C.3    66  ILE66       0.1561
     26  C         -3.9300   -7.5470   38.8840 C.2    66  ILE66       0.2260
     27  O         -2.8260   -7.8370   38.4210 O.2    66  ILE66      -0.2867
     28  CB        -5.4180   -9.2770   39.9230 C.3    66  ILE66       0.0252
     29  CG1       -5.7310  -10.0410   41.2100 C.3    66  ILE66       0.0019
     30  CG2       -4.8850  -10.2300   38.8640 C.3    66  ILE66       0.0019
     31  CD1       -6.7030  -11.1850   41.0200 C.3    66  ILE66       0.0001
     32  N         -0.8870   -5.3620   39.4660 N.3    69  ALA69      -0.1231
     33  CA         0.2820   -6.2050   39.6850 C.3    69  ALA69       0.1694
     34  C          0.7560   -6.8190   38.3730 C.2    69  ALA69       0.2591
     35  O          1.9570   -6.9180   38.1210 O.2    69  ALA69      -0.2718
     36  CB        -0.0280   -7.2920   40.7020 C.3    69  ALA69       0.0304
     37  N         -0.1970   -7.2300   37.5410 N.am   70  GLN70      -0.1979
     38  CA         0.1180   -7.8080   36.2400 C.3    70  GLN70       0.1601
     39  C          0.7470   -6.7650   35.3220 C.2    70  GLN70       0.2287
     40  O          1.6620   -7.0700   34.5560 O.2    70  GLN70      -0.2864
     41  CB        -1.1380   -8.3910   35.5890 C.3    70  GLN70       0.0394
     42  CG        -0.8760   -9.0970   34.2690 C.3    70  GLN70       0.0908
     43  CD         0.0030  -10.3210   34.4310 C.2    70  GLN70       0.2608
     44  OE1       -0.3380  -11.2500   35.1640 O.2    70  GLN70      -0.2717
     45  NE2        1.1450  -10.3260   33.7530 N.am   70  GLN70      -0.0878
     46  N          4.2730   -6.4800   36.1970 N.3    73  THR73      -0.1203
     47  CA         4.9700   -7.6790   35.7490 C.3    73  THR73       0.1994
     48  C          5.2310   -7.6180   34.2460 C.2    73  THR73       0.2617
     49  O          6.3000   -8.0090   33.7750 O.2    73  THR73      -0.2717
     50  CB         4.1680   -8.9530   36.0880 C.3    73  THR73       0.1784
     51  OG1        4.0130   -9.0550   37.5090 O.3    73  THR73      -0.2211
     52  CG2        4.8810  -10.1930   35.5750 C.3    73  THR73       0.0376
     53  N          4.2530   -7.1120   33.5010 N.am   74  ASP74      -0.1973
     54  CA         4.3830   -6.9670   32.0540 C.3    74  ASP74       0.1709
     55  C          5.5140   -6.0150   31.6810 C.2    74  ASP74       0.2293
     56  O          6.2080   -6.2220   30.6870 O.2    74  ASP74      -0.2864
     57  CB         3.0690   -6.4780   31.4440 C.3    74  ASP74       0.1436
     58  CG         2.1340   -7.6150   31.0830 C.2    74  ASP74       0.3671
     59  OD1        2.2690   -8.7090   31.6700 O.co2  74  ASP74      -0.2456
     60  OD2        1.2640   -7.4140   30.2090 O.co2  74  ASP74      -0.2456
     61  N          8.1970   -5.5440   33.4480 N.3    76  GLU76      -0.1231
     62  CA         9.4050   -6.3210   33.6930 C.3    76  GLU76       0.1699
     63  C          9.6660   -7.2650   32.5240 C.2    76  GLU76       0.2592
     64  O         10.8080   -7.4450   32.0990 O.2    76  GLU76      -0.2718
     65  CB         9.2830   -7.1060   35.0000 C.3    76  GLU76       0.0402
     66  CG        10.4790   -7.9910   35.3140 C.3    76  GLU76       0.1161
     67  CD        10.2890   -8.7900   36.5900 C.2    76  GLU76       0.3649
     68  OE1        9.2790   -8.5650   37.2890 O.co2  76  GLU76      -0.2457
     69  OE2       11.1490   -9.6440   36.8930 O.co2  76  GLU76      -0.2457
     70  N          8.5960   -7.8600   32.0070 N.am   77  SER77      -0.1952
     71  CA         8.6950   -8.7660   30.8690 C.3    77  SER77       0.1924
     72  C          9.1570   -8.0300   29.6160 C.2    77  SER77       0.2314
     73  O         10.0190   -8.5190   28.8870 O.2    77  SER77      -0.2863
     74  CB         7.3510   -9.4510   30.6110 C.3    77  SER77       0.2116
     75  OG         6.9630  -10.2450   31.7190 O.3    77  SER77      -0.2180
     76  N         12.7790   -7.4330   29.7250 N.3    80  ASN80      -0.1225
     77  CA        13.4790   -8.6880   29.4840 C.3    80  ASN80       0.1785
     78  C         13.4590   -9.0710   28.0080 C.2    80  ASN80       0.2597
     79  O         14.4630   -9.5290   27.4630 O.2    80  ASN80      -0.2718
     80  CB        12.8670   -9.8140   30.3210 C.3    80  ASN80       0.1169
     81  CG        13.0160   -9.5790   31.8120 C.2    80  ASN80       0.2627
     82  OD1       13.8830   -8.8230   32.2490 O.2    80  ASN80      -0.2716
     83  ND2       12.1710  -10.2330   32.6010 N.am   80  ASN80      -0.0877
     84  N         12.3110   -8.8710   27.3690 N.am   81  LEU81      -0.1980
     85  CA        12.1290   -9.2320   25.9660 C.3    81  LEU81       0.1596
     86  C         13.0460   -8.4390   25.0350 C.2    81  LEU81       0.2287
     87  O         13.5470   -8.9790   24.0490 O.2    81  LEU81      -0.2864
     88  CB        10.6670   -9.0370   25.5580 C.3    81  LEU81       0.0297
     89  CG         9.7020  -10.0780   26.1310 C.3    81  LEU81       0.0022
     90  CD1        8.2550   -9.6270   25.9990 C.3    81  LEU81       0.0001
     91  CD2        9.9100  -11.4210   25.4530 C.3    81  LEU81       0.0001
     92  N         16.3010  -10.0640   25.2140 N.3    84  TYR84      -0.1241
     93  CA        16.2740  -11.3660   24.5550 C.3    84  TYR84       0.1605
     94  C         16.5050  -11.2350   23.0530 C.2    84  TYR84       0.2264
     95  O         17.1120  -12.1060   22.4310 O.2    84  TYR84      -0.2867
     96  CB        14.9410  -12.0770   24.8050 C.3    84  TYR84       0.0534
     97  CG        14.6790  -12.4630   26.2440 C.ar   84  TYR84      -0.0201
     98  CD1       15.7100  -12.5290   27.1730 C.ar   84  TYR84      -0.0009
     99  CD2       13.3930  -12.7690   26.6720 C.ar   84  TYR84      -0.0009
    100  CE1       15.4650  -12.8840   28.4890 C.ar   84  TYR84       0.0417
    101  CE2       13.1390  -13.1240   27.9810 C.ar   84  TYR84       0.0417
    102  CZ        14.1760  -13.1800   28.8850 C.ar   84  TYR84       0.1957
    103  OH        13.9190  -13.5350   30.1900 O.3    84  TYR84      -0.2866
    104  N          3.4030   -6.6240   23.9940 N.3    95  LEU95      -0.1245
    105  CA         3.2810   -7.9320   24.6260 C.3    95  LEU95       0.1561
    106  C          1.8120   -8.2910   24.8030 C.2    95  LEU95       0.2260
    107  O          1.0790   -7.6130   25.5240 O.2    95  LEU95      -0.2867
    108  CB         3.9970   -7.9570   25.9780 C.3    95  LEU95       0.0270
    109  CG         3.8440   -9.2410   26.7980 C.3    95  LEU95       0.0019
    110  CD1        4.4290  -10.4340   26.0560 C.3    95  LEU95       0.0001
    111  CD2        4.4870   -9.0910   28.1690 C.3    95  LEU95       0.0001
    112  N         -1.1960  -11.2630   25.7300 N.3    97  SER97      -0.1217
    113  CA        -1.4390  -12.4780   26.4920 C.3    97  SER97       0.1889
    114  C         -2.9180  -12.8390   26.4850 C.2    97  SER97       0.2288
    115  O         -3.7760  -11.9850   26.7000 O.2    97  SER97      -0.2866
    116  CB        -0.9450  -12.3160   27.9310 C.3    97  SER97       0.2089
    117  OG        -1.2420  -13.4660   28.7030 O.3    97  SER97      -0.2183
    118  N         -5.4860  -16.1130   27.9550 N.3    99  TYR99      -0.1241
    119  CA        -5.6210  -17.3660   28.6780 C.3    99  TYR99       0.1605
    120  C         -7.0740  -17.5870   29.0650 C.2    99  TYR99       0.2264
    121  O         -7.8880  -16.6650   29.0100 O.2    99  TYR99      -0.2867
    122  CB        -4.7280  -17.3750   29.9230 C.3    99  TYR99       0.0534
    123  CG        -5.1050  -16.3510   30.9720 C.ar   99  TYR99      -0.0201
    124  CD1       -4.5990  -15.0580   30.9230 C.ar   99  TYR99      -0.0009
    125  CD2       -5.9580  -16.6810   32.0180 C.ar   99  TYR99      -0.0009
    126  CE1       -4.9380  -14.1210   31.8820 C.ar   99  TYR99       0.0417
    127  CE2       -6.3040  -15.7520   32.9800 C.ar   99  TYR99       0.0417
    128  CZ        -5.7910  -14.4740   32.9080 C.ar   99  TYR99       0.1957
    129  OH        -6.1320  -13.5470   33.8650 O.3    99  TYR99      -0.2866
    130  N         -3.1300  -20.7590   27.7140 N.3   114  ASP114     -0.1239
    131  CA        -2.2580  -19.7760   28.3520 C.3   114  ASP114      0.1674
    132  C         -1.0610  -19.5080   27.4470 C.2   114  ASP114      0.2266
    133  O         -0.0520  -20.2100   27.5170 O.2   114  ASP114     -0.2867
    134  CB        -1.7920  -20.2640   29.7270 C.3   114  ASP114      0.1410
    135  CG        -1.3210  -19.1300   30.6220 C.2   114  ASP114      0.3668
    136  OD1       -1.0220  -18.0350   30.1010 O.co2 114  ASP114     -0.2456
    137  OD2       -1.2480  -19.3350   31.8520 O.co2 114  ASP114     -0.2456
    138  N          1.3610  -16.4800   24.8680 N.3   116  TYR116     -0.1241
    139  CA         1.8870  -15.1260   24.7620 C.3   116  TYR116      0.1605
    140  C          2.3540  -14.8090   23.3480 C.2   116  TYR116      0.2264
    141  O          2.6820  -15.7090   22.5730 O.2   116  TYR116     -0.2867
    142  CB         3.0480  -14.9270   25.7390 C.3   116  TYR116      0.0534
    143  CG         2.6690  -15.0780   27.1940 C.ar  116  TYR116     -0.0201
    144  CD1        2.3770  -13.9660   27.9720 C.ar  116  TYR116     -0.0009
    145  CD2        2.6050  -16.3300   27.7900 C.ar  116  TYR116     -0.0009
    146  CE1        2.0300  -14.0970   29.3020 C.ar  116  TYR116      0.0417
    147  CE2        2.2580  -16.4710   29.1190 C.ar  116  TYR116      0.0417
    148  CZ         1.9720  -15.3510   29.8710 C.ar  116  TYR116      0.1957
    149  OH         1.6280  -15.4860   31.1950 O.3   116  TYR116     -0.2866
    150  N          5.0370  -16.3420   20.9080 N.3   123  TYR123     -0.1241
    151  CA         6.2580  -16.3750   21.7020 C.3   123  TYR123      0.1605
    152  C          6.3580  -17.6720   22.4940 C.2   123  TYR123      0.2264
    153  O          7.2350  -18.4970   22.2430 O.2   123  TYR123     -0.2867
    154  CB         6.3110  -15.1660   22.6400 C.3   123  TYR123      0.0534
    155  CG         7.5700  -15.0740   23.4710 C.ar  123  TYR123     -0.0201
    156  CD1        8.7580  -14.6120   22.9190 C.ar  123  TYR123     -0.0009
    157  CD2        7.5670  -15.4370   24.8110 C.ar  123  TYR123     -0.0009
    158  CE1        9.9100  -14.5240   23.6780 C.ar  123  TYR123      0.0417
    159  CE2        8.7130  -15.3510   25.5770 C.ar  123  TYR123      0.0417
    160  CZ         9.8800  -14.8930   25.0070 C.ar  123  TYR123      0.1957
    161  OH        11.0220  -14.8080   25.7710 O.3   123  TYR123     -0.2866
    162  N         12.6650  -17.9510   28.5870 N.3   143  THR143     -0.1218
    163  CA        11.4650  -17.8760   29.4090 C.3   143  THR143      0.1862
    164  C         11.0330  -19.2700   29.8530 C.2   143  THR143      0.2287
    165  O         10.6630  -19.4760   31.0090 O.2   143  THR143     -0.2866
    166  CB        10.3060  -17.1960   28.6540 C.3   143  THR143      0.1770
    167  OG1       10.6780  -15.8540   28.3150 O.3   143  THR143     -0.2211
    168  CG2        9.0490  -17.1660   29.5100 C.3   143  THR143      0.0375
    169  N         13.2240  -20.5480   32.6730 N.3   146  LYS146     -0.1231
    170  CA        12.9280  -19.8520   33.9190 C.3   146  LYS146      0.1693
    171  C         11.6310  -20.3590   34.5450 C.2   146  LYS146      0.2592
    172  O         11.5460  -20.5300   35.7610 O.2   146  LYS146     -0.2718
    173  CB        12.8480  -18.3430   33.6830 C.3   146  LYS146      0.0285
    174  CG        12.5390  -17.5350   34.9320 C.3   146  LYS146      0.0035
    175  CD        12.8080  -16.0560   34.7170 C.3   146  LYS146      0.0206
    176  CE        11.9610  -15.4910   33.5900 C.3   146  LYS146      0.1093
    177  NZ        12.2520  -14.0480   33.3610 N.3   146  LYS146     -0.1314
    178  N         10.6270  -20.6030   33.7090 N.am  147  TRP147     -0.1976
    179  CA         9.3310  -21.0660   34.1920 C.3   147  TRP147      0.1640
    180  C          9.3620  -22.5410   34.5820 C.2   147  TRP147      0.2290
    181  O          8.6380  -22.9660   35.4830 O.2   147  TRP147     -0.2864
    182  CB         8.2530  -20.8120   33.1370 C.3   147  TRP147      0.0576
    183  CG         7.8470  -19.3700   33.0540 C.ar  147  TRP147      0.0006
    184  CD1        8.2850  -18.3510   33.8510 C.ar  147  TRP147      0.0946
    185  CD2        6.9240  -18.7850   32.1280 C.ar  147  TRP147      0.0152
    186  NE1        7.6930  -17.1700   33.4790 N.ar  147  TRP147     -0.2442
    187  CE2        6.8530  -17.4080   32.4230 C.ar  147  TRP147      0.0810
    188  CE3        6.1520  -19.2900   31.0780 C.ar  147  TRP147      0.0012
    189  CZ2        6.0400  -16.5320   31.7070 C.ar  147  TRP147      0.0191
    190  CZ3        5.3450  -18.4180   30.3680 C.ar  147  TRP147      0.0001
    191  CH2        5.2960  -17.0550   30.6860 C.ar  147  TRP147      0.0015
    192  N          6.2700  -22.8790   37.0750 N.3   152  GLU152     -0.1245
    193  CA         5.2240  -21.9030   36.7930 C.3   152  GLU152      0.1567
    194  C          3.9470  -22.5590   36.2740 C.2   152  GLU152      0.2260
    195  O          2.8410  -22.1170   36.5860 O.2   152  GLU152     -0.2867
    196  CB         5.7330  -20.8750   35.7780 C.3   152  GLU152      0.0388
    197  CG         4.7340  -19.7900   35.4130 C.3   152  GLU152      0.1160
    198  CD         4.6250  -18.7130   36.4730 C.2   152  GLU152      0.3649
    199  OE1        3.7070  -17.8730   36.3720 O.co2 152  GLU152     -0.2457
    200  OE2        5.4590  -18.7010   37.4030 O.co2 152  GLU152     -0.2457
    201  N          1.0480  -23.6400   38.6630 N.3   155  GLN155     -0.1231
    202  CA         0.1630  -22.5830   39.1330 C.3   155  GLN155      0.1698
    203  C         -0.8630  -22.2290   38.0630 C.2   155  GLN155      0.2592
    204  O         -2.0210  -21.9420   38.3710 O.2   155  GLN155     -0.2718
    205  CB         0.9680  -21.3430   39.5310 C.3   155  GLN155      0.0381
    206  CG         2.0550  -21.6180   40.5590 C.3   155  GLN155      0.0905
    207  CD         1.5070  -22.1810   41.8570 C.2   155  GLN155      0.2608
    208  OE1        0.4070  -21.8300   42.2850 O.2   155  GLN155     -0.2717
    209  NE2        2.2720  -23.0640   42.4880 N.am  155  GLN155     -0.0878
    210  N         -0.4320  -22.2520   36.8050 N.am  156  ARG156     -0.1980
    211  CA        -1.3250  -21.9880   35.6840 C.3   156  ARG156      0.1597
    212  C         -2.4100  -23.0560   35.6110 C.2   156  ARG156      0.2287
    213  O         -3.5920  -22.7470   35.4620 O.2   156  ARG156     -0.2864
    214  CB        -0.5470  -21.9420   34.3660 C.3   156  ARG156      0.0334
    215  CG         0.6910  -21.0550   34.3850 C.3   156  ARG156      0.0492
    216  CD         0.3430  -19.6010   34.6570 C.3   156  ARG156      0.2205
    217  NE         1.5210  -18.7400   34.5960 N.pl3 156  ARG156     -0.0865
    218  CZ         1.9190  -18.0910   33.5060 C.cat 156  ARG156      0.5346
    219  NH1        1.2290  -18.1980   32.3780 N.pl3 156  ARG156      0.1354
    220  NH2        3.0050  -17.3310   33.5430 N.pl3 156  ARG156      0.1354
    221  N         -5.1970  -22.8740   38.3280 N.3   159  TYR159     -0.1241
    222  CA        -6.1970  -21.8580   38.0250 C.3   159  TYR159      0.1605
    223  C         -7.1410  -22.3230   36.9210 C.2   159  TYR159      0.2264
    224  O         -8.3600  -22.2090   37.0460 O.2   159  TYR159     -0.2867
    225  CB        -5.5210  -20.5460   37.6200 C.3   159  TYR159      0.0534
    226  CG        -6.4610  -19.5270   37.0100 C.ar  159  TYR159     -0.0201
    227  CD1       -7.2520  -18.7140   37.8120 C.ar  159  TYR159     -0.0009
    228  CD2       -6.5520  -19.3730   35.6310 C.ar  159  TYR159     -0.0009
    229  CE1       -8.1100  -17.7810   37.2580 C.ar  159  TYR159      0.0417
    230  CE2       -7.4080  -18.4450   35.0690 C.ar  159  TYR159      0.0417
    231  CZ        -8.1840  -17.6510   35.8870 C.ar  159  TYR159      0.1957
    232  OH        -9.0360  -16.7250   35.3300 O.3   159  TYR159     -0.2866
@<TRIPOS>BOND
     1   150   151    1
     2   151   152    1
     3   151   154    1
     4   153   152    2
     5    95    94    2
     6   141   140    2
     7   154   155    1
     8   156   155   ar
     9   156   158   ar
    10    94    93    1
    11   140   139    1
    12   155   157   ar
    13   158   160   ar
    14   104   105    1
    15    87    86    2
    16    93    96    1
    17    93    92    1
    18   105   106    1
    19   105   108    1
    20   139   138    1
    21   139   142    1
    22   106   107    2
    23    96    97    1
    24   157   159   ar
    25   160   159   ar
    26   160   161    1
    27    86    85    1
    28    91    89    1
    29    88    85    1
    30    88    89    1
    31   112   113    1
    32   142   143    1
    33    85    84    1
    34     4     3    2
    35   108   109    1
    36    90    89    1
    37   110   109    1
    38    97    99   ar
    39    97    98   ar
    40   114   113    1
    41   114   115    2
    42   113   116    1
    43    99   101   ar
    44   109   111    1
    45     3     2    1
    46    98   100   ar
    47   143   145   ar
    48   143   144   ar
    49    84    78   am
    50   132   133    2
    51   132   131    1
    52    79    78    2
    53     1     2    1
    54   130   131    1
    55   145   147   ar
    56   116   117    1
    57   118   119    1
    58   144   146   ar
    59   101   102   ar
    60    78    77    1
    61     2     5    1
    62   167   166    1
    63   131   134    1
    64   100   102   ar
    65   162   163    1
    66   166   163    1
    67   166   168    1
    68   119   120    1
    69   119   122    1
    70   102   103    1
    71    73    72    2
    72   121   120    2
    73     5     6    1
    74   147   148   ar
    75   146   148   ar
    76   163   164    1
    77    77    76    1
    78    77    80    1
    79    72    71    1
    80   134   135    1
    81   164   165    2
    82   148   149    1
    83   122   123    1
    84   136   135   ar
    85    60    58   ar
    86    80    81    1
    87     6     7   ar
    88     6     8   ar
    89   190   191   ar
    90   190   188   ar
    91    74    71    1
    92    74    75    1
    93   135   137   ar
    94     7     9   ar
    95   191   189   ar
    96    56    55    2
    97    71    70    1
    98   124   123   ar
    99   124   126   ar
   100   123   125   ar
   101   188   185   ar
   102    58    57    1
   103    58    59   ar
   104     8    10   ar
   105    57    54    1
   106    55    54    1
   107   189   187   ar
   108    81    82    2
   109    81    83   am
   110     9    11   ar
   111   126   128   ar
   112    70    63   am
   113   125   127   ar
   114    54    53    1
   115    64    63    2
   116   185   187   ar
   117   185   183   ar
   118   219   218    1
   119    10    11   ar
   120   187   186   ar
   121    63    62    1
   122   169   170    1
   123    11    12    1
   124   128   127   ar
   125   128   129    1
   126   183   182    1
   127   183   184   ar
   128   182   179    1
   129   177   176    1
   130    61    62    1
   131   186   184   ar
   132    53    48   am
   133   218   220    1
   134   218   217    2
   135   176   175    1
   136   173   170    1
   137   173   174    1
   138    62    65    1
   139   178   179    1
   140   178   171   am
   141    45    43   am
   142    49    48    2
   143   170   171    1
   144   179   180    1
   145    48    47    1
   146    42    43    1
   147    42    41    1
   148   214   215    1
   149   214   211    1
   150   215   216    1
   151    43    44    2
   152   171   172    2
   153    40    39    2
   154   180   181    2
   155   217   216    1
   156   175   174    1
   157    65    66    1
   158   230   228   ar
   159   230   231   ar
   160    66    67    1
   161    39    38    1
   162   232   231    1
   163   197   196    1
   164   197   198    1
   165   213   212    2
   166    52    50    1
   167    41    38    1
   168   212   211    1
   169   228   226   ar
   170   211   210    1
   171    47    50    1
   172    47    46    1
   173   196   193    1
   174   231   229   ar
   175    50    51    1
   176    38    37    1
   177   194   195    2
   178   194   193    1
   179   199   198   ar
   180   198   200   ar
   181    67    69   ar
   182    67    68   ar
   183   193   192    1
   184   210   203   am
   185   223   224    2
   186   223   222    1
   187   226   225    1
   188   226   227   ar
   189   229   227   ar
   190    37    34   am
   191   225   222    1
   192   222   221    1
   193   203   204    2
   194   203   202    1
   195    35    34    2
   196    34    33    1
   197    27    26    2
   198   201   202    1
   199    30    28    1
   200    26    25    1
   201   202   205    1
   202    32    33    1
   203   205   206    1
   204    33    36    1
   205    28    25    1
   206    28    29    1
   207    25    24    1
   208   206   207    1
   209    31    29    1
   210   207   208    2
   211   207   209   am
   212    23    21    1
   213    16    15    2
   214    15    14    1
   215    21    22    1
   216    21    20    2
   217    14    13    1
   218    14    17    1
   219    18    17    1
   220    18    19    1
   221    20    19    1
