@<TRIPOS>MOLECULE
tmp/5eo2F00.pdb
 127 123 0 0 0
SMALL
GASTEIGER

@<TRIPOS>ATOM
      1  N         49.0400   75.9840   46.5430 N.3    60  LEU60      -0.1231
      2  CA        49.6410   75.6890   45.2590 C.3    60  LEU60       0.1693
      3  C         48.8000   76.2520   44.1430 C.2    60  LEU60       0.2592
      4  O         47.6240   76.0780   44.1750 O.2    60  LEU60      -0.2718
      5  CB        49.7660   74.1940   45.0240 C.3    60  LEU60       0.0284
      6  CG        50.6160   73.3940   45.9830 C.3    60  LEU60       0.0019
      7  CD1       50.6320   71.9360   45.5930 C.3    60  LEU60       0.0001
      8  CD2       52.0300   73.9130   46.0160 C.3    60  LEU60       0.0001
      9  N         49.3960   76.8960   43.1480 N.am   61  PHE61      -0.1962
     10  CA        48.6970   77.3570   41.9820 C.3    61  PHE61       0.1771
     11  C         49.1320   76.5420   40.7560 C.2    61  PHE61       0.2620
     12  O         50.3080   76.1970   40.5960 O.2    61  PHE61      -0.2715
     13  CB        49.0640   78.8040   41.7120 C.3    61  PHE61       0.0574
     14  CG        48.4600   79.8420   42.6540 C.ar   61  PHE61      -0.0200
     15  CD1       47.7360   79.5070   43.7870 C.ar   61  PHE61      -0.0042
     16  CD2       48.6140   81.1860   42.3460 C.ar   61  PHE61      -0.0042
     17  CE1       47.1930   80.4970   44.6240 C.ar   61  PHE61      -0.0003
     18  CE2       48.1160   82.1740   43.1910 C.ar   61  PHE61      -0.0003
     19  CZ        47.3940   81.8320   44.3440 C.ar   61  PHE61      -0.0000
     20  N         48.1970   76.2880   39.8450 N.am   62  THR62      -0.1937
     21  CA        48.4970   75.7530   38.5340 C.3    62  THR62       0.2028
     22  C         48.9540   76.8800   37.6350 C.2    62  THR62       0.2642
     23  O         48.2840   77.8980   37.4790 O.2    62  THR62      -0.2714
     24  CB        47.2670   75.0960   37.8760 C.3    62  THR62       0.1808
     25  OG1       46.7400   74.0870   38.7180 O.3    62  THR62      -0.2208
     26  CG2       47.6340   74.4500   36.5600 C.3    62  THR62       0.0379
     27  N         50.1350   76.7050   37.0410 N.am   63  LEU63      -0.1963
     28  CA        50.6770   77.6890   36.1150 C.3    63  LEU63       0.1728
     29  C         50.3710   77.3420   34.6870 C.2    63  LEU63       0.2616
     30  O         50.1590   78.2030   33.8570 O.2    63  LEU63      -0.2715
     31  CB        52.1690   77.7510   36.2960 C.3    63  LEU63       0.0311
     32  CG        52.6900   78.0460   37.6770 C.3    63  LEU63       0.0022
     33  CD1       54.2000   78.2930   37.5970 C.3    63  LEU63       0.0001
     34  CD2       52.0280   79.2790   38.2400 C.3    63  LEU63       0.0001
     35  N         50.3910   76.0580   34.3690 N.am   64  GLU64      -0.1977
     36  CA        50.3710   75.6420   32.9690 C.3    64  GLU64       0.1602
     37  C         49.9790   74.1990   32.8770 C.2    64  GLU64       0.2287
     38  O         50.3170   73.4010   33.7370 O.2    64  GLU64      -0.2864
     39  CB        51.7490   75.8820   32.3590 C.3    64  GLU64       0.0415
     40  CG        51.7910   75.9240   30.8420 C.3    64  GLU64       0.1163
     41  CD        53.1850   76.2870   30.2980 C.2    64  GLU64       0.3649
     42  OE1       54.1410   76.5200   31.1010 O.co2  64  GLU64      -0.2457
     43  OE2       53.3200   76.3190   29.0440 O.co2  64  GLU64      -0.2457
     44  N         62.4310   73.2440   44.5630 N.3    90  TYR90      -0.1227
     45  CA        62.1210   73.6870   45.9350 C.3    90  TYR90       0.1736
     46  C         60.7230   74.3320   46.0720 C.2    90  TYR90       0.2595
     47  O         60.2120   74.4420   47.1810 O.2    90  TYR90      -0.2718
     48  CB        63.2190   74.6020   46.5080 C.3    90  TYR90       0.0548
     49  CG        63.2300   76.0090   45.9820 C.ar   90  TYR90      -0.0200
     50  CD1       62.8930   77.1060   46.7890 C.ar   90  TYR90      -0.0009
     51  CD2       63.5370   76.2710   44.6500 C.ar   90  TYR90      -0.0009
     52  CE1       62.9090   78.4100   46.2780 C.ar   90  TYR90       0.0417
     53  CE2       63.5420   77.5550   44.1420 C.ar   90  TYR90       0.0417
     54  CZ        63.2250   78.6140   44.9610 C.ar   90  TYR90       0.1957
     55  OH        63.2420   79.8350   44.3390 O.3    90  TYR90      -0.2866
     56  N         60.1250   74.7450   44.9710 N.am   91  LYS91      -0.1966
     57  CA        58.7840   75.3000   44.9950 C.3    91  LYS91       0.1728
     58  C         57.8960   74.9590   43.7830 C.2    91  LYS91       0.2616
     59  O         56.8140   75.5400   43.6490 O.2    91  LYS91      -0.2715
     60  CB        58.8640   76.8310   45.1040 C.3    91  LYS91       0.0311
     61  CG        59.5450   77.5200   43.9690 C.3    91  LYS91       0.0038
     62  CD        59.7030   78.9940   44.2310 C.3    91  LYS91       0.0206
     63  CE        60.3580   79.6900   43.0310 C.3    91  LYS91       0.1093
     64  NZ        60.4220   81.1660   43.2140 N.3    91  LYS91      -0.1314
     65  N         58.3430   74.0360   42.9170 N.am   92  ARG92      -0.1977
     66  CA        57.5530   73.6350   41.7750 C.3    92  ARG92       0.1597
     67  C         57.3850   72.1600   41.6620 C.2    92  ARG92       0.2287
     68  O         58.2150   71.4200   42.0610 O.2    92  ARG92      -0.2864
     69  CB        58.1090   74.1400   40.4550 C.3    92  ARG92       0.0334
     70  CG        57.7650   75.5960   40.1790 C.3    92  ARG92       0.0492
     71  CD        58.7840   76.2290   39.2490 C.3    92  ARG92       0.2205
     72  NE        60.0780   76.3630   39.9400 N.pl3  92  ARG92      -0.0865
     73  CZ        60.9060   77.3970   39.8250 C.cat  92  ARG92       0.5346
     74  NH1       60.5740   78.4710   39.1120 N.pl3  92  ARG92       0.1354
     75  NH2       62.0650   77.3660   40.4690 N.pl3  92  ARG92       0.1354
     76  N         52.0960   71.9240   35.5570 N.3   113  MET113     -0.1245
     77  CA        53.0540   72.6430   36.3670 C.3   113  MET113      0.1570
     78  C         52.3350   73.3490   37.4800 C.2   113  MET113      0.2261
     79  O         51.4220   74.1270   37.2550 O.2   113  MET113     -0.2867
     80  CB        53.7340   73.6950   35.5000 C.3   113  MET113      0.0387
     81  CG        54.7900   74.5330   36.1880 C.3   113  MET113      0.0595
     82  SD        56.2100   73.6130   36.7590 S.3   113  MET113     -0.1393
     83  CE        56.7410   72.9130   35.2030 C.3   113  MET113      0.0692
     84  N         53.0270   75.5230   41.3870 N.3   115  MET115     -0.1245
     85  CA        53.9960   76.2210   42.1960 C.3   115  MET115      0.1570
     86  C         53.4190   76.6460   43.5160 C.2   115  MET115      0.2261
     87  O         52.2740   77.0710   43.5930 O.2   115  MET115     -0.2867
     88  CB        54.5070   77.4380   41.3860 C.3   115  MET115      0.0387
     89  CG        55.5560   78.2560   42.0830 C.3   115  MET115      0.0595
     90  SD        56.0940   79.5700   40.9990 S.3   115  MET115     -0.1393
     91  CE        57.7410   79.1040   40.8930 C.3   115  MET115      0.0692
     92  N         52.8340   78.9320   46.8710 N.3   117  ILE117     -0.1245
     93  CA        52.5220   80.3390   46.9960 C.3   117  ILE117      0.1561
     94  C         52.3800   80.7210   48.4790 C.2   117  ILE117      0.2260
     95  O         51.6110   80.1180   49.2010 O.2   117  ILE117     -0.2867
     96  CB        51.1850   80.6870   46.3180 C.3   117  ILE117      0.0252
     97  CG1       51.1730   80.3010   44.8240 C.3   117  ILE117      0.0019
     98  CG2       50.8840   82.1960   46.4850 C.3   117  ILE117      0.0019
     99  CD1       52.0500   81.1840   43.9660 C.3   117  ILE117      0.0001
    100  N         51.7870   86.8340   48.7560 N.3   122  ARG122     -0.1231
    101  CA        51.0880   86.5990   47.4800 C.3   122  ARG122      0.1694
    102  C         52.0600   86.2890   46.3570 C.2   122  ARG122      0.2592
    103  O         51.7240   86.4120   45.1990 O.2   122  ARG122     -0.2718
    104  CB        50.1560   87.7640   47.1090 C.3   122  ARG122      0.0321
    105  CG        49.0530   88.0310   48.1330 C.3   122  ARG122      0.0489
    106  CD        48.1400   89.1640   47.6910 C.3   122  ARG122      0.2205
    107  NE        48.7070   90.4650   48.0430 N.pl3 122  ARG122     -0.0865
    108  CZ        48.6860   91.0130   49.2690 C.cat 122  ARG122      0.5346
    109  NH1       48.1270   90.3840   50.3180 N.pl3 122  ARG122      0.1354
    110  NH2       49.2270   92.2160   49.4570 N.pl3 122  ARG122      0.1354
    111  N         53.2600   85.8600   46.7170 N.am  123  ARG123     -0.1966
    112  CA        54.3030   85.5510   45.7840 C.3   123  ARG123      0.1729
    113  C         54.6620   84.0580   45.9920 C.2   123  ARG123      0.2616
    114  O         54.3160   83.4380   47.0130 O.2   123  ARG123     -0.2715
    115  CB        55.5350   86.4390   46.0740 C.3   123  ARG123      0.0348
    116  CG        55.5070   87.8750   45.5320 C.3   123  ARG123      0.0492
    117  CD        55.8040   87.8990   44.0430 C.3   123  ARG123      0.2205
    118  NE        56.7100   88.9710   43.6190 N.pl3 123  ARG123     -0.0865
    119  CZ        56.3410   90.1270   43.0530 C.cat 123  ARG123      0.5346
    120  NH1       55.0590   90.4170   42.8000 N.pl3 123  ARG123      0.1354
    121  NH2       57.2710   91.0190   42.7260 N.pl3 123  ARG123      0.1354
    122  N         55.4190   83.5170   45.0460 N.am  124  SER124     -0.1950
    123  CA        55.9500   82.1820   45.1560 C.3   124  SER124      0.1924
    124  C         56.9160   82.0470   46.3330 C.2   124  SER124      0.2314
    125  O         57.4870   83.0040   46.7430 O.2   124  SER124     -0.2863
    126  CB        56.6110   81.7410   43.8420 C.3   124  SER124      0.2116
    127  OG        57.8860   82.3080   43.7500 O.3   124  SER124     -0.2180
@<TRIPOS>BOND
     1    43    41   ar
     2    41    40    1
     3    41    42   ar
     4    40    39    1
     5    39    36    1
     6    37    36    1
     7    37    38    2
     8    36    35    1
     9    30    29    2
    10    35    29   am
    11    29    28    1
    12    83    82    1
    13    80    81    1
    14    80    77    1
    15    76    77    1
    16    28    31    1
    17    28    27    1
    18    81    82    1
    19    31    32    1
    20    77    78    1
    21    26    24    1
    22    27    22   am
    23    79    78    2
    24    23    22    2
    25    33    32    1
    26    22    21    1
    27    32    34    1
    28    24    21    1
    29    24    25    1
    30    21    20    1
    31    74    73    1
    32    71    72    1
    33    71    70    1
    34    73    72    2
    35    73    75    1
    36    20    11   am
    37    70    69    1
    38    69    66    1
    39    12    11    2
    40    11    10    1
    41    91    90    1
    42    90    89    1
    43    88    89    1
    44    88    85    1
    45    84    85    1
    46    67    66    1
    47    67    68    2
    48    13    10    1
    49    13    14    1
    50    66    65    1
    51    10     9    1
    52    85    86    1
    53    16    14   ar
    54    16    18   ar
    55    14    15   ar
    56   121   119    1
    57   120   119    1
    58    65    58   am
    59    63    64    1
    60    63    62    1
    61   119   118    2
    62     9     3   am
    63    18    19   ar
    64    86    87    2
    65   118   117    1
    66    59    58    2
    67   127   126    1
    68    58    57    1
    69    15    17   ar
    70   126   123    1
    71    99    97    1
    72    61    62    1
    73    61    60    1
    74   117   116    1
    75    53    51   ar
    76    53    54   ar
    77     3     4    2
    78     3     2    1
    79    55    54    1
    80    19    17   ar
    81    44    45    1
    82    51    49   ar
    83    97    96    1
    84    54    52   ar
    85    56    57    1
    86    56    46   am
    87    57    60    1
    88     5     2    1
    89     5     6    1
    90   122   123    1
    91   122   113   am
    92   123   124    1
    93   103   102    2
    94     2     1    1
    95   116   115    1
    96     7     6    1
    97   112   113    1
    98   112   115    1
    99   112   111    1
   100    45    46    1
   101    45    48    1
   102    49    48    1
   103    49    50   ar
   104     6     8    1
   105   113   114    2
   106    46    47    2
   107    52    50   ar
   108    96    98    1
   109    96    93    1
   110   124   125    2
   111   102   111   am
   112   102   101    1
   113    92    93    1
   114    93    94    1
   115   104   101    1
   116   104   105    1
   117   101   100    1
   118   106   107    1
   119   106   105    1
   120   107   108    2
   121    94    95    2
   122   108   110    1
   123   108   109    1
