@<TRIPOS>MOLECULE
tmp/5eo2F01.pdb
 128 129 0 0 0
SMALL
GASTEIGER

@<TRIPOS>ATOM
      1  N         29.5910   60.7750   25.1350 N.3    25  HIS25      -0.1226
      2  CA        31.0220   60.7730   25.4060 C.3    25  HIS25       0.1752
      3  C         31.3160   61.8460   26.4170 C.2    25  HIS25       0.2596
      4  O         30.5500   62.7690   26.5860 O.2    25  HIS25      -0.2718
      5  CB        31.8880   60.8760   24.1320 C.3    25  HIS25       0.0759
      6  CG        31.7390   62.1570   23.3810 C.ar   25  HIS25       0.0818
      7  ND1       32.5530   63.2480   23.5850 N.ar   25  HIS25      -0.2268
      8  CD2       30.8650   62.5180   22.4130 C.ar   25  HIS25       0.1154
      9  CE1       32.1850   64.2320   22.7840 C.ar   25  HIS25       0.1986
     10  NE2       31.1640   63.8120   22.0580 N.ar   25  HIS25      -0.2212
     11  N         32.4130   61.6970   27.1340 N.am   26  MET26      -0.1965
     12  CA        32.7650   62.6750   28.1570 C.3    26  MET26       0.1736
     13  C         33.1690   63.9890   27.4980 C.2    26  MET26       0.2616
     14  O         33.9340   64.0100   26.5480 O.2    26  MET26      -0.2715
     15  CB        33.8750   62.1630   29.0530 C.3    26  MET26       0.0427
     16  CG        34.1840   63.0820   30.2200 C.3    26  MET26       0.0599
     17  SD        35.2100   62.3330   31.4980 S.3    26  MET26      -0.1393
     18  CE        34.0080   61.3490   32.3420 C.3    26  MET26       0.0692
     19  N         32.5810   65.0800   27.9730 N.am   27  HIS27      -0.1959
     20  CA        32.9510   66.4140   27.5010 C.3    27  HIS27       0.1787
     21  C         34.4480   66.6620   27.8000 C.2    27  HIS27       0.2620
     22  O         34.9540   66.1840   28.8030 O.2    27  HIS27      -0.2715
     23  CB        32.0780   67.4450   28.2430 C.3    27  HIS27       0.0785
     24  CG        32.3370   68.8610   27.8400 C.ar   27  HIS27       0.0821
     25  ND1       32.6490   69.8540   28.7520 N.ar   27  HIS27      -0.2267
     26  CD2       32.3450   69.4450   26.6310 C.ar   27  HIS27       0.1154
     27  CE1       32.8020   70.9990   28.1150 C.ar   27  HIS27       0.1986
     28  NE2       32.6590   70.7720   26.8230 N.ar   27  HIS27      -0.2212
     29  N         35.1290   67.3970   26.9490 N.am   28  ASP28      -0.1971
     30  CA        36.5560   67.5670   27.0940 C.3    28  ASP28       0.1709
     31  C         37.0270   68.2270   28.4170 C.2    28  ASP28       0.2293
     32  O         38.0050   67.7500   29.0440 O.2    28  ASP28      -0.2864
     33  CB        37.1080   68.3290   25.9140 C.3    28  ASP28       0.1436
     34  CG        36.4310   69.7000   25.6910 C.2    28  ASP28       0.3671
     35  OD1       35.4590   70.0290   26.4250 O.co2  28  ASP28      -0.2456
     36  OD2       36.8690   70.4190   24.7250 O.co2  28  ASP28      -0.2456
     37  N         37.4570   66.1090   31.6500 N.3    31  TYR31      -0.1241
     38  CA        38.7440   65.4360   31.8360 C.3    31  TYR31       0.1605
     39  C         39.6240   66.3110   32.7360 C.2    31  TYR31       0.2264
     40  O         40.2680   65.8090   33.6360 O.2    31  TYR31      -0.2867
     41  CB        39.4770   65.2140   30.5130 C.3    31  TYR31       0.0534
     42  CG        38.8960   64.1330   29.6390 C.ar   31  TYR31      -0.0201
     43  CD1       37.7420   64.3620   28.8570 C.ar   31  TYR31      -0.0009
     44  CD2       39.4850   62.8700   29.5770 C.ar   31  TYR31      -0.0009
     45  CE1       37.2070   63.3570   28.0640 C.ar   31  TYR31       0.0417
     46  CE2       38.9560   61.8690   28.7770 C.ar   31  TYR31       0.0417
     47  CZ        37.8110   62.1120   28.0330 C.ar   31  TYR31       0.1957
     48  OH        37.2810   61.1410   27.2250 O.3    31  TYR31      -0.2866
     49  N         45.7080   65.8420   26.4210 N.3    68  THR68      -0.1203
     50  CA        45.4610   65.1600   25.1470 C.3    68  THR68       0.1994
     51  C         44.3620   64.1810   25.3750 C.2    68  THR68       0.2618
     52  O         44.2820   63.5250   26.4410 O.2    68  THR68      -0.2717
     53  CB        46.6810   64.4120   24.5670 C.3    68  THR68       0.1784
     54  OG1       46.8310   63.1740   25.2330 O.3    68  THR68      -0.2211
     55  CG2       47.9750   65.1990   24.7670 C.3    68  THR68       0.0376
     56  N         43.5240   64.0690   24.3560 N.am   69  TYR69      -0.1961
     57  CA        42.3700   63.1610   24.3610 C.3    69  TYR69       0.1771
     58  C         42.5800   62.1030   23.2840 C.2    69  TYR69       0.2619
     59  O         42.6240   62.4170   22.1020 O.2    69  TYR69      -0.2715
     60  CB        41.0640   63.9430   24.1030 C.3    69  TYR69       0.0574
     61  CG        40.9050   65.1350   25.0060 C.ar   69  TYR69      -0.0198
     62  CD1       40.2360   65.0350   26.2360 C.ar   69  TYR69      -0.0009
     63  CD2       41.4660   66.3370   24.6680 C.ar   69  TYR69      -0.0009
     64  CE1       40.1070   66.1400   27.0630 C.ar   69  TYR69       0.0417
     65  CE2       41.3380   67.4390   25.4760 C.ar   69  TYR69       0.0417
     66  CZ        40.6600   67.3380   26.6710 C.ar   69  TYR69       0.1957
     67  OH        40.5270   68.4430   27.4590 O.3    69  TYR69      -0.2866
     68  N         42.7370   60.8630   23.7170 N.am   70  LEU70      -0.1963
     69  CA        43.1420   59.7730   22.8210 C.3    70  LEU70       0.1728
     70  C         42.0310   58.7650   22.5010 C.2    70  LEU70       0.2617
     71  O         42.0780   58.0970   21.5000 O.2    70  LEU70      -0.2715
     72  CB        44.3550   59.0520   23.4380 C.3    70  LEU70       0.0311
     73  CG        45.5390   60.0050   23.7270 C.3    70  LEU70       0.0022
     74  CD1       46.6230   59.2980   24.5270 C.3    70  LEU70       0.0001
     75  CD2       46.0990   60.6060   22.4590 C.3    70  LEU70       0.0001
     76  N         41.0410   58.6400   23.3560 N.am   71  SER71      -0.1936
     77  CA        39.9440   57.7080   23.1160 C.3    71  SER71       0.2055
     78  C         38.7320   58.1070   23.9700 C.2    71  SER71       0.2642
     79  O         38.8810   58.4010   25.1570 O.2    71  SER71      -0.2714
     80  CB        40.3880   56.2530   23.4000 C.3    71  SER71       0.2130
     81  OG        39.2840   55.4090   23.6970 O.3    71  SER71      -0.2179
     82  N         37.5510   58.1290   23.3610 N.am   72  GLU72      -0.1976
     83  CA        36.3760   58.7210   24.0150 C.3    72  GLU72       0.1602
     84  C         35.8550   57.8330   25.1230 C.2    72  GLU72       0.2287
     85  O         35.9460   56.6240   25.0210 O.2    72  GLU72      -0.2864
     86  CB        35.2660   59.0040   22.9860 C.3    72  GLU72       0.0415
     87  CG        34.6690   57.7770   22.2970 C.3    72  GLU72       0.1163
     88  CD        33.7320   58.1420   21.1640 C.2    72  GLU72       0.3649
     89  OE1       34.0960   57.8480   19.9980 O.co2  72  GLU72      -0.2457
     90  OE2       32.6430   58.7150   21.4370 O.co2  72  GLU72      -0.2457
     91  N         54.8740   67.5780   24.0090 N.3   153  HIS153     -0.1241
     92  CA        54.4370   67.7130   22.6390 C.3   153  HIS153      0.1621
     93  C         53.8740   69.0940   22.2990 C.2   153  HIS153      0.2264
     94  O         52.9220   69.5640   22.9180 O.2   153  HIS153     -0.2867
     95  CB        53.3730   66.6500   22.3460 C.3   153  HIS153      0.0745
     96  CG        53.0140   66.5560   20.8970 C.ar  153  HIS153      0.0817
     97  ND1       51.7840   66.9530   20.4090 N.ar  153  HIS153     -0.2268
     98  CD2       53.7250   66.1230   19.8260 C.ar  153  HIS153      0.1154
     99  CE1       51.7480   66.7570   19.1040 C.ar  153  HIS153      0.1986
    100  NE2       52.9170   66.2670   18.7240 N.ar  153  HIS153     -0.2212
    101  N         51.6050   71.3450   19.9890 N.3   155  ILE155     -0.1231
    102  CA        50.4380   71.2680   19.1370 C.3   155  ILE155      0.1692
    103  C         50.7530   71.8090   17.7280 C.2   155  ILE155      0.2592
    104  O         51.2300   72.9290   17.5730 O.2   155  ILE155     -0.2718
    105  CB        49.2420   72.0550   19.7290 C.3   155  ILE155      0.0266
    106  CG1       48.8310   71.4750   21.0770 C.3   155  ILE155      0.0019
    107  CG2       48.0380   72.0050   18.8130 C.3   155  ILE155      0.0020
    108  CD1       47.9390   72.3800   21.9280 C.3   155  ILE155      0.0001
    109  N         50.4540   70.9910   16.7180 N.am  156  ALA156     -0.1966
    110  CA        50.6300   71.3850   15.3120 C.3   156  ALA156      0.1728
    111  C         49.8180   70.4910   14.3890 C.2   156  ALA156      0.2616
    112  O         49.6270   69.3080   14.6770 O.2   156  ALA156     -0.2715
    113  CB        52.1040   71.3610   14.9070 C.3   156  ALA156      0.0334
    114  N         49.3410   71.0640   13.2830 N.am  157  ILE157     -0.1964
    115  CA        48.8260   70.2650   12.1790 C.3   157  ILE157      0.1712
    116  C         50.0330   69.6680   11.4230 C.2   157  ILE157      0.2458
    117  O         50.9070   70.4100   10.9890 O.2   157  ILE157     -0.2730
    118  CB        47.9310   71.0540   11.2120 C.3   157  ILE157      0.0289
    119  CG1       46.7170   71.6390   11.9520 C.3   157  ILE157      0.0022
    120  CG2       47.4410   70.1150   10.1080 C.3   157  ILE157      0.0023
    121  CD1       45.8840   72.6350   11.1400 C.3   157  ILE157      0.0001
    122  N         50.0930   68.3290   11.2880 N.am  158  PRO158     -0.2727
    123  CA        51.1860   67.7230   10.5060 C.3   158  PRO158      0.1402
    124  C         51.0800   68.0780    9.0080 C.2   158  PRO158      0.2269
    125  O         51.8370   68.9170    8.5190 O.2   158  PRO158     -0.2865
    126  CB        51.0020   66.2090   10.7460 C.3   158  PRO158      0.0296
    127  CG        50.0660   66.0780   11.9320 C.3   158  PRO158      0.0237
    128  CD        49.2030   67.3120   11.8930 C.3   158  PRO158      0.0939
@<TRIPOS>BOND
     1   125   124    2
     2   124   123    1
     3   120   118    1
     4   123   126    1
     5   123   122    1
     6   126   127    1
     7   117   116    2
     8   121   119    1
     9   118   119    1
    10   118   115    1
    11   122   116   am
    12   122   128    1
    13   116   115    1
    14   128   127    1
    15   115   114    1
    16   114   111   am
    17   111   112    2
    18   111   110    1
    19   113   110    1
    20   110   109    1
    21   109   103   am
    22   104   103    2
    23   103   102    1
    24   100    99   ar
    25   100    98   ar
    26   107   105    1
    27    99    97   ar
    28   102   105    1
    29   102   101    1
    30   105   106    1
    31    98    96   ar
    32    89    88   ar
    33    97    96   ar
    34    96    95    1
    35   106   108    1
    36    88    90   ar
    37    88    87    1
    38    71    70    2
    39    10     8   ar
    40    10     9   ar
    41    59    58    2
    42    87    86    1
    43    93    92    1
    44    93    94    2
    45    95    92    1
    46     8     6   ar
    47    75    73    1
    48    70    69    1
    49    70    76   am
    50    92    91    1
    51     9     7   ar
    52    69    72    1
    53    69    68    1
    54    86    83    1
    55    77    76    1
    56    77    80    1
    57    77    78    1
    58    58    68   am
    59    58    57    1
    60    82    78   am
    61    82    83    1
    62     6     7   ar
    63     6     5    1
    64    80    81    1
    65    72    73    1
    66    73    74    1
    67    78    79    2
    68    83    84    1
    69    60    57    1
    70    60    61    1
    71     5     2    1
    72    56    57    1
    73    56    51   am
    74    53    55    1
    75    53    50    1
    76    53    54    1
    77    63    61   ar
    78    63    65   ar
    79    36    34   ar
    80    61    62   ar
    81    85    84    2
    82     1     2    1
    83    50    51    1
    84    50    49    1
    85    51    52    2
    86     2     3    1
    87    65    66   ar
    88    34    33    1
    89    34    35   ar
    90    33    30    1
    91    62    64   ar
    92     3     4    2
    93     3    11   am
    94    14    13    2
    95    26    28   ar
    96    26    24   ar
    97    66    64   ar
    98    66    67    1
    99    28    27   ar
   100    29    30    1
   101    29    21   am
   102    30    31    1
   103    11    12    1
   104    48    47    1
   105    13    19   am
   106    13    12    1
   107    20    21    1
   108    20    19    1
   109    20    23    1
   110    21    22    2
   111    24    23    1
   112    24    25   ar
   113    47    45   ar
   114    47    46   ar
   115    45    43   ar
   116    27    25   ar
   117    12    15    1
   118    31    32    2
   119    46    44   ar
   120    43    42   ar
   121    15    16    1
   122    44    42   ar
   123    42    41    1
   124    16    17    1
   125    41    38    1
   126    17    18    1
   127    37    38    1
   128    38    39    1
   129    39    40    2
