@<TRIPOS>MOLECULE
tmp/5eo2A00.pdb
 119 118 0 0 0
SMALL
GASTEIGER

@<TRIPOS>ATOM
      1  N         42.9580   61.0000   93.7000 N.3    21  HIS21      -0.1226
      2  CA        41.9410   61.0120   92.6520 C.3    21  HIS21       0.1752
      3  C         40.8290   60.0410   93.0490 C.2    21  HIS21       0.2595
      4  O         41.0950   59.0380   93.7130 O.2    21  HIS21      -0.2718
      5  CB        42.5490   60.6720   91.2780 C.3    21  HIS21       0.0759
      6  CG        43.1300   59.2960   91.1870 C.ar   21  HIS21       0.0818
      7  ND1       42.3640   58.1790   90.9160 N.ar   21  HIS21      -0.2268
      8  CD2       44.4040   58.8540   91.3150 C.ar   21  HIS21       0.1154
      9  CE1       43.1390   57.1070   90.8980 C.ar   21  HIS21       0.1986
     10  NE2       44.3820   57.4890   91.1330 N.ar   21  HIS21      -0.2212
     11  N         39.5960   60.3400   92.6400 N.am   22  MET22      -0.1979
     12  CA        38.4520   59.4900   92.9650 C.3    22  MET22       0.1605
     13  C         38.6230   58.1210   92.3090 C.2    22  MET22       0.2287
     14  O         38.8280   58.0490   91.1030 O.2    22  MET22      -0.2864
     15  CB        37.1400   60.1280   92.5280 C.3    22  MET22       0.0413
     16  CG        35.9570   59.6380   93.3380 C.3    22  MET22       0.0598
     17  SD        34.3340   59.9760   92.6270 S.3    22  MET22      -0.1393
     18  CE        33.5700   60.8960   93.9540 C.3    22  MET22       0.0692
     19  N         38.1600   54.5990   90.5280 N.3    24  ASP24      -0.1239
     20  CA        37.3450   54.3830   89.3010 C.3    24  ASP24       0.1674
     21  C         35.9530   53.7640   89.5430 C.2    24  ASP24       0.2266
     22  O         34.9620   54.2230   88.9920 O.2    24  ASP24      -0.2867
     23  CB        38.1150   53.5460   88.2640 C.3    24  ASP24       0.1410
     24  CG        38.5550   52.1750   88.7970 C.2    24  ASP24       0.3668
     25  OD1       38.2600   51.8510   89.9830 O.co2  24  ASP24      -0.2456
     26  OD2       39.2080   51.4320   88.0230 O.co2  24  ASP24      -0.2456
     27  N         32.9170   55.9680   91.0180 N.3    27  TYR27      -0.1241
     28  CA        32.0690   56.5990   90.0010 C.3    27  TYR27       0.1605
     29  C         30.8410   55.7310   89.7410 C.2    27  TYR27       0.2264
     30  O         29.7130   56.2340   89.7570 O.2    27  TYR27      -0.2867
     31  CB        32.8240   56.8170   88.6790 C.3    27  TYR27       0.0534
     32  CG        33.8680   57.9260   88.7080 C.ar   27  TYR27      -0.0201
     33  CD1       35.1230   57.7270   89.3170 C.ar   27  TYR27      -0.0009
     34  CD2       33.6020   59.1680   88.1380 C.ar   27  TYR27      -0.0009
     35  CE1       36.0620   58.7290   89.3610 C.ar   27  TYR27       0.0417
     36  CE2       34.5480   60.1820   88.1680 C.ar   27  TYR27       0.0417
     37  CZ        35.7760   59.9610   88.7730 C.ar   27  TYR27       0.1957
     38  OH        36.7150   60.9670   88.7930 O.3    27  TYR27      -0.2866
     39  N         35.9110   57.9570   81.8660 N.3    59  TYR59      -0.1227
     40  CA        36.5060   58.8630   82.8530 C.3    59  TYR59       0.1736
     41  C         37.3610   59.8860   82.1240 C.2    59  TYR59       0.2595
     42  O         38.4010   59.5480   81.5810 O.2    59  TYR59      -0.2718
     43  CB        37.3540   58.0760   83.8450 C.3    59  TYR59       0.0548
     44  CG        36.6540   56.8730   84.4400 C.ar   59  TYR59      -0.0200
     45  CD1       35.9620   56.9600   85.6610 C.ar   59  TYR59      -0.0009
     46  CD2       36.6940   55.6280   83.7790 C.ar   59  TYR59      -0.0009
     47  CE1       35.3300   55.8440   86.2010 C.ar   59  TYR59       0.0417
     48  CE2       36.0620   54.5050   84.3040 C.ar   59  TYR59       0.0417
     49  CZ        35.3920   54.6030   85.5180 C.ar   59  TYR59       0.1957
     50  OH        34.7930   53.4620   86.0070 O.3    59  TYR59      -0.2866
     51  N         36.9120   61.1320   82.1100 N.am   60  LEU60      -0.1966
     52  CA        37.5330   62.1780   81.2810 C.3    60  LEU60       0.1728
     53  C         38.3160   63.2280   82.0570 C.2    60  LEU60       0.2617
     54  O         39.2910   63.7740   81.5460 O.2    60  LEU60      -0.2715
     55  CB        36.4600   62.8310   80.4070 C.3    60  LEU60       0.0311
     56  CG        35.6960   61.8220   79.5300 C.3    60  LEU60       0.0022
     57  CD1       34.5700   62.5080   78.7780 C.3    60  LEU60       0.0001
     58  CD2       36.6250   61.0690   78.5650 C.3    60  LEU60       0.0001
     59  N         37.9080   63.5070   83.2860 N.am   61  SER61      -0.1936
     60  CA        38.5910   64.5050   84.1120 C.3    61  SER61       0.2055
     61  C         38.7400   64.0140   85.5600 C.2    61  SER61       0.2643
     62  O         37.7690   63.5500   86.1740 O.2    61  SER61      -0.2714
     63  CB        37.8230   65.8240   84.0630 C.3    61  SER61       0.2130
     64  OG        38.7010   66.8960   84.3310 O.3    61  SER61      -0.2179
     65  N         39.9560   64.1250   86.0930 N.am   62  GLU62      -0.1963
     66  CA        40.2810   63.6620   87.4460 C.3    62  GLU62       0.1733
     67  C         39.4460   64.3930   88.5070 C.2    62  GLU62       0.2616
     68  O         39.1280   65.5770   88.3480 O.2    62  GLU62      -0.2715
     69  CB        41.7790   63.8810   87.7070 C.3    62  GLU62       0.0429
     70  CG        42.3150   63.2890   89.0010 C.3    62  GLU62       0.1163
     71  CD        43.8410   63.2960   89.0810 C.2    62  GLU62       0.3649
     72  OE1       44.5090   63.5680   88.0610 O.co2  62  GLU62      -0.2457
     73  OE2       44.3940   63.0370   90.1670 O.co2  62  GLU62      -0.2457
     74  N         39.0890   63.6800   89.5750 N.am   63  LEU63      -0.1977
     75  CA        38.2810   64.2500   90.6810 C.3    63  LEU63       0.1596
     76  C         39.0530   64.1980   92.0080 C.2    63  LEU63       0.2287
     77  O         39.3220   63.1170   92.5340 O.2    63  LEU63      -0.2864
     78  CB        36.9310   63.5210   90.8150 C.3    63  LEU63       0.0297
     79  CG        35.6740   64.2980   90.4300 C.3    63  LEU63       0.0022
     80  CD1       35.7290   64.7890   88.9960 C.3    63  LEU63       0.0001
     81  CD2       34.4340   63.4410   90.6700 C.3    63  LEU63       0.0001
     82  N         30.3950   54.6170   72.3010 N.3   128  HIS128     -0.1241
     83  CA        31.7220   54.6770   71.7450 C.3   128  HIS128      0.1621
     84  C         32.3300   53.3020   71.9590 C.2   128  HIS128      0.2264
     85  O         32.4230   52.8590   73.0860 O.2   128  HIS128     -0.2867
     86  CB        32.5320   55.7410   72.4670 C.3   128  HIS128      0.0745
     87  CG        33.9930   55.7090   72.1500 C.ar  128  HIS128      0.0817
     88  ND1       34.9460   55.4080   73.0980 N.ar  128  HIS128     -0.2268
     89  CD2       34.6660   55.9330   70.9950 C.ar  128  HIS128      0.1154
     90  CE1       36.1460   55.4550   72.5460 C.ar  128  HIS128      0.1986
     91  NE2       36.0040   55.7690   71.2700 N.ar  128  HIS128     -0.2212
     92  N         35.0640   50.6700   72.5800 N.3   130  ILE130     -0.1231
     93  CA        36.3790   50.7610   73.1950 C.3   130  ILE130      0.1692
     94  C         37.4380   50.2120   72.2360 C.2   130  ILE130      0.2592
     95  O         37.2770   49.1200   71.6890 O.2   130  ILE130     -0.2718
     96  CB        36.4480   49.9820   74.5360 C.3   130  ILE130      0.0266
     97  CG1       35.4200   50.5310   75.5280 C.3   130  ILE130      0.0019
     98  CG2       37.8480   50.0730   75.1430 C.3   130  ILE130      0.0020
     99  CD1       35.1310   49.6180   76.7050 C.3   130  ILE130      0.0001
    100  N         38.5220   50.9650   72.0570 N.am  131  ALA131     -0.1966
    101  CA        39.6380   50.5430   71.1980 C.3   131  ALA131      0.1728
    102  C         40.8840   51.4190   71.4040 C.2   131  ALA131      0.2616
    103  O         40.7850   52.5720   71.8140 O.2   131  ALA131     -0.2715
    104  CB        39.2160   50.5710   69.7270 C.3   131  ALA131      0.0334
    105  N         42.0540   50.8610   71.1150 N.am  132  ILE132     -0.1964
    106  CA        43.2750   51.6560   70.9860 C.3   132  ILE132      0.1712
    107  C         43.3440   52.2270   69.5540 C.2   132  ILE132      0.2458
    108  O         43.2220   51.4760   68.5850 O.2   132  ILE132     -0.2730
    109  CB        44.5340   50.8120   71.2850 C.3   132  ILE132      0.0289
    110  CG1       44.5290   50.3930   72.7600 C.3   132  ILE132      0.0022
    111  CG2       45.8130   51.5700   70.9080 C.3   132  ILE132      0.0023
    112  CD1       45.7550   49.6210   73.2310 C.3   132  ILE132      0.0001
    113  N         43.5520   53.5530   69.4150 N.am  133  PRO133     -0.2727
    114  CA        43.6660   54.1450   68.0680 C.3   133  PRO133      0.1402
    115  C         44.9750   53.7490   67.3850 C.2   133  PRO133      0.2269
    116  O         44.9460   53.1870   66.2970 O.2   133  PRO133     -0.2865
    117  CB        43.6070   55.6520   68.3310 C.3   133  PRO133      0.0296
    118  CG        44.0810   55.8150   69.7370 C.3   133  PRO133      0.0237
    119  CD        43.7550   54.5480   70.4870 C.3   133  PRO133      0.0939
@<TRIPOS>BOND
     1   116   115    2
     2   115   114    1
     3   114   117    1
     4   114   113    1
     5   117   118    1
     6   108   107    2
     7   113   107   am
     8   113   119    1
     9   107   106    1
    10   104   101    1
    11   118   119    1
    12   111   109    1
    13   106   105    1
    14   106   109    1
    15    89    91   ar
    16    89    87   ar
    17   105   102   am
    18   101   102    1
    19   101   100    1
    20    91    90   ar
    21   109   110    1
    22   102   103    2
    23    95    94    2
    24    83    84    1
    25    83    82    1
    26    83    86    1
    27    84    85    2
    28   100    94   am
    29    87    86    1
    30    87    88   ar
    31    94    93    1
    32    90    88   ar
    33    92    93    1
    34   110   112    1
    35    93    96    1
    36    96    98    1
    37    96    97    1
    38    97    99    1
    39    58    56    1
    40    57    56    1
    41    56    55    1
    42    55    52    1
    43    52    53    1
    44    52    51    1
    45    54    53    2
    46    42    41    2
    47    39    40    1
    48    53    59   am
    49    51    41   am
    50    41    40    1
    51    40    43    1
    52    59    60    1
    53    46    48   ar
    54    46    44   ar
    55    43    44    1
    56    63    60    1
    57    63    64    1
    58    60    61    1
    59    48    49   ar
    60    44    45   ar
    61    49    50    1
    62    49    47   ar
    63    61    65   am
    64    61    62    2
    65    45    47   ar
    66    65    66    1
    67    66    69    1
    68    66    67    1
    69    69    70    1
    70    26    24   ar
    71    72    71   ar
    72    34    36   ar
    73    34    32   ar
    74    36    37   ar
    75    23    24    1
    76    23    20    1
    77    68    67    2
    78    67    74   am
    79    31    32    1
    80    31    28    1
    81    32    33   ar
    82    37    38    1
    83    37    35   ar
    84    24    25   ar
    85    22    21    2
    86    80    79    1
    87    70    71    1
    88    71    73   ar
    89    20    21    1
    90    20    19    1
    91    33    35   ar
    92    74    75    1
    93    29    30    2
    94    29    28    1
    95    28    27    1
    96    79    81    1
    97    79    78    1
    98    75    78    1
    99    75    76    1
   100     9     7   ar
   101     9    10   ar
   102     7     6   ar
   103    14    13    2
   104    10     8   ar
   105     6     5    1
   106     6     8   ar
   107     5     2    1
   108    76    77    2
   109    13    12    1
   110    15    12    1
   111    15    16    1
   112    17    16    1
   113    17    18    1
   114    11    12    1
   115    11     3   am
   116     2     3    1
   117     2     1    1
   118     3     4    2
