@<TRIPOS>MOLECULE
tmp/5eo7A04.pdb
 98 94 0 0 0
SMALL
GASTEIGER

@<TRIPOS>ATOM
      1  N         95.7410   82.2050   73.0720 N.3    21  ASN21      -0.1240
      2  CA        96.8790   82.0540   72.1670 C.3    21  ASN21       0.1653
      3  C         97.3420   83.3620   71.5100 C.2    21  ASN21       0.2266
      4  O         98.0220   83.3350   70.4870 O.2    21  ASN21      -0.2867
      5  CB        96.5520   81.0190   71.0830 C.3    21  ASN21       0.1155
      6  CG        95.4660   81.4780   70.1340 C.2    21  ASN21       0.2627
      7  OD1       94.7490   82.4400   70.4050 O.2    21  ASN21      -0.2716
      8  ND2       95.3330   80.7800   69.0130 N.am   21  ASN21      -0.0877
      9  N         99.9110   86.1030   72.2740 N.3    23  LEU23      -0.1245
     10  CA       101.0640   86.0640   73.1690 C.3    23  LEU23       0.1561
     11  C        101.9700   87.2860   73.0580 C.2    23  LEU23       0.2260
     12  O        102.1290   87.8640   71.9810 O.2    23  LEU23      -0.2867
     13  CB       101.8930   84.8080   72.8900 C.3    23  LEU23       0.0270
     14  CG       101.1230   83.5550   72.4580 C.3    23  LEU23       0.0019
     15  CD1      102.0920   82.4810   72.0170 C.3    23  LEU23       0.0001
     16  CD2      100.2370   83.0390   73.5820 C.3    23  LEU23       0.0001
     17  N        102.8760   87.2570   69.3450 N.3    39  TYR39      -0.1241
     18  CA       102.2670   86.2450   68.5020 C.3    39  TYR39       0.1605
     19  C        100.7980   86.5810   68.2980 C.2    39  TYR39       0.2264
     20  O        100.0110   86.5780   69.2430 O.2    39  TYR39      -0.2867
     21  CB       102.4110   84.8480   69.1110 C.3    39  TYR39       0.0534
     22  CG       101.8090   83.7580   68.2500 C.ar   39  TYR39      -0.0201
     23  CD1      102.5800   83.0850   67.3100 C.ar   39  TYR39      -0.0009
     24  CD2      100.4700   83.4090   68.3690 C.ar   39  TYR39      -0.0009
     25  CE1      102.0340   82.0910   66.5180 C.ar   39  TYR39       0.0417
     26  CE2       99.9160   82.4170   67.5790 C.ar   39  TYR39       0.0417
     27  CZ       100.7020   81.7630   66.6570 C.ar   39  TYR39       0.1957
     28  OH       100.1550   80.7730   65.8690 O.3    39  TYR39      -0.2866
     29  N        104.4490   85.0150   64.5710 N.3    43  TRP43      -0.1241
     30  CA       105.4210   85.7520   65.3680 C.3    43  TRP43       0.1605
     31  C        105.9150   86.9970   64.6380 C.2    43  TRP43       0.2264
     32  O        105.9940   87.0130   63.4060 O.2    43  TRP43      -0.2867
     33  CB       106.6030   84.8510   65.7290 C.3    43  TRP43       0.0550
     34  CG       106.2850   83.8210   66.7810 C.ar   43  TRP43       0.0003
     35  CD1      106.0170   82.4980   66.5810 C.ar   43  TRP43       0.0946
     36  CD2      106.2070   84.0360   68.1980 C.ar   43  TRP43       0.0152
     37  NE1      105.7780   81.8740   67.7870 N.ar   43  TRP43      -0.2442
     38  CE2      105.8880   82.7970   68.7930 C.ar   43  TRP43       0.0810
     39  CE3      106.3750   85.1540   69.0200 C.ar   43  TRP43       0.0012
     40  CZ2      105.7330   82.6470   70.1710 C.ar   43  TRP43       0.0191
     41  CZ3      106.2210   85.0020   70.3900 C.ar   43  TRP43       0.0001
     42  CH2      105.9030   83.7590   70.9510 C.ar   43  TRP43       0.0015
     43  N         96.9260   78.6220   79.0500 N.3   270  TRP270     -0.1241
     44  CA        95.5100   78.9440   78.9880 C.3   270  TRP270      0.1605
     45  C         94.6920   77.6590   79.0050 C.2   270  TRP270      0.2264
     46  O         95.2470   76.5620   78.9250 O.2   270  TRP270     -0.2867
     47  CB        95.1930   79.8160   77.7620 C.3   270  TRP270      0.0550
     48  CG        95.5680   79.2850   76.4000 C.ar  270  TRP270      0.0003
     49  CD1       94.7340   78.6760   75.5060 C.ar  270  TRP270      0.0946
     50  CD2       96.8490   79.3730   75.7560 C.ar  270  TRP270      0.0152
     51  NE1       95.4170   78.3650   74.3550 N.ar  270  TRP270     -0.2442
     52  CE2       96.7160   78.7790   74.4810 C.ar  270  TRP270      0.0810
     53  CE3       98.0950   79.8830   76.1340 C.ar  270  TRP270      0.0012
     54  CZ2       97.7830   78.6770   73.5880 C.ar  270  TRP270      0.0191
     55  CZ3       99.1530   79.7800   75.2440 C.ar  270  TRP270      0.0001
     56  CH2       98.9890   79.1820   73.9860 C.ar  270  TRP270      0.0015
     57  N        103.0170   77.1340   77.2430 N.3   276  ARG276     -0.1245
     58  CA       104.1550   77.6110   76.4650 C.3   276  ARG276      0.1563
     59  C        105.3100   78.0080   77.3750 C.2   276  ARG276      0.2260
     60  O        105.1500   78.8330   78.2740 O.2   276  ARG276     -0.2867
     61  CB       103.7640   78.8020   75.5890 C.3   276  ARG276      0.0307
     62  CG       102.6730   78.5150   74.5810 C.3   276  ARG276      0.0489
     63  CD       103.1230   77.5060   73.5360 C.3   276  ARG276      0.2205
     64  NE       102.1020   77.3080   72.5140 N.pl3 276  ARG276     -0.0865
     65  CZ       101.1110   76.4240   72.5890 C.cat 276  ARG276      0.5346
     66  NH1      100.9930   75.6220   73.6380 N.pl3 276  ARG276      0.1354
     67  NH2      100.2370   76.3340   71.5950 N.pl3 276  ARG276      0.1354
     68  N        110.9110   78.1550   71.9460 N.3   290  GLU290     -0.1245
     69  CA       109.6110   77.8610   72.5450 C.3   290  GLU290      0.1567
     70  C        109.3930   76.3570   72.7070 C.2   290  GLU290      0.2260
     71  O        109.7290   75.5730   71.8190 O.2   290  GLU290     -0.2867
     72  CB       108.4830   78.4560   71.6930 C.3   290  GLU290      0.0388
     73  CG       107.0760   78.2070   72.2350 C.3   290  GLU290      0.1160
     74  CD       105.9870   78.6170   71.2580 C.2   290  GLU290      0.3649
     75  OE1      105.1860   79.5150   71.5880 O.co2 290  GLU290     -0.2457
     76  OE2      105.9250   78.0320   70.1560 O.co2 290  GLU290     -0.2457
     77  N        106.1500   73.6690   73.7850 N.3   292  THR292     -0.1218
     78  CA       104.6890   73.6590   73.8480 C.3   292  THR292      0.1862
     79  C        104.1430   72.3880   74.4840 C.2   292  THR292      0.2287
     80  O        104.7870   71.3380   74.4640 O.2   292  THR292     -0.2866
     81  CB       104.0540   73.7820   72.4440 C.3   292  THR292      0.1770
     82  OG1      104.0060   72.4900   71.8220 O.3   292  THR292     -0.2211
     83  CG2      104.8420   74.7400   71.5690 C.3   292  THR292      0.0375
     84  N        108.2830   74.1570   70.0500 N.3   302  GLY302     -0.1210
     85  CA       107.5540   75.1200   69.2440 C.3   302  GLY302      0.1956
     86  C        108.4790   75.9400   68.3690 C.2   302  GLY302      0.2611
     87  O        109.4230   75.4090   67.7800 O.2   302  GLY302     -0.2717
     88  N        108.1940   77.2370   68.2790 N.am  303  ARG303     -0.1979
     89  CA       109.0460   78.1820   67.5620 C.3   303  ARG303      0.1597
     90  C        110.5000   78.0400   68.0010 C.2   303  ARG303      0.2287
     91  O        110.8170   78.1970   69.1810 O.2   303  ARG303     -0.2864
     92  CB       108.5580   79.6130   67.8020 C.3   303  ARG303      0.0334
     93  CG       109.4020   80.6940   67.1460 C.3   303  ARG303      0.0492
     94  CD       109.2300   80.7010   65.6300 C.3   303  ARG303      0.2205
     95  NE       109.9450   81.8250   65.0230 N.pl3 303  ARG303     -0.0865
     96  CZ       109.4510   82.6380   64.0920 C.cat 303  ARG303      0.5346
     97  NH1      108.2210   82.4750   63.6150 N.pl3 303  ARG303      0.1354
     98  NH2      110.2020   83.6260   63.6280 N.pl3 303  ARG303      0.1354
@<TRIPOS>BOND
     1    32    31    2
     2    97    96    1
     3    98    96    1
     4    96    95    2
     5    29    30    1
     6    31    30    1
     7    95    94    1
     8    30    33    1
     9    94    93    1
    10    33    34    1
    11    28    27    1
    12    25    27   ar
    13    25    23   ar
    14    35    34   ar
    15    35    37   ar
    16    27    26   ar
    17    34    36   ar
    18    93    92    1
    19    23    22   ar
    20    89    92    1
    21    89    90    1
    22    89    88    1
    23    26    24   ar
    24    87    86    2
    25    37    38   ar
    26    90    91    2
    27    36    38   ar
    28    36    39   ar
    29    22    24   ar
    30    22    21    1
    31    88    86   am
    32    19    18    1
    33    19    20    2
    34    86    85    1
    35    18    21    1
    36    18    17    1
    37    38    40   ar
    38     8     6   am
    39    39    41   ar
    40    85    84    1
    41     6     7    2
    42     6     5    1
    43    76    74   ar
    44    40    42   ar
    45    41    42   ar
    46     4     3    2
    47     5     2    1
    48    74    75   ar
    49    74    73    1
    50     3     2    1
    51    83    81    1
    52    67    65    1
    53    72    73    1
    54    72    69    1
    55    71    70    2
    56    82    81    1
    57    68    69    1
    58    12    11    2
    59    15    14    1
    60     2     1    1
    61     9    10    1
    62    81    78    1
    63    14    13    1
    64    14    16    1
    65    64    65    2
    66    64    63    1
    67    69    70    1
    68    65    66    1
    69    13    10    1
    70    11    10    1
    71    63    62    1
    72    54    56   ar
    73    54    52   ar
    74    77    78    1
    75    78    79    1
    76    56    55   ar
    77    51    52   ar
    78    51    49   ar
    79    80    79    2
    80    52    50   ar
    81    62    61    1
    82    55    53   ar
    83    49    48   ar
    84    61    58    1
    85    50    53   ar
    86    50    48   ar
    87    48    47    1
    88    58    57    1
    89    58    59    1
    90    59    60    2
    91    47    44    1
    92    46    45    2
    93    44    45    1
    94    44    43    1
