@<TRIPOS>MOLECULE
tmp/5eo7A03.pdb
 115 109 0 0 0
SMALL
GASTEIGER

@<TRIPOS>ATOM
      1  N         96.3620   76.3850   85.9780 N.3   219  PHE219     -0.1241
      2  CA        95.2440   76.2880   85.0470 C.3   219  PHE219      0.1605
      3  C         94.0780   75.5150   85.6500 C.2   219  PHE219      0.2264
      4  O         94.2270   74.8220   86.6580 O.2   219  PHE219     -0.2867
      5  CB        95.6840   75.6370   83.7260 C.3   219  PHE219      0.0534
      6  CG        96.1710   74.2170   83.8660 C.ar  219  PHE219     -0.0203
      7  CD1       95.2760   73.1570   83.8770 C.ar  219  PHE219     -0.0042
      8  CD2       97.5260   73.9410   83.9640 C.ar  219  PHE219     -0.0042
      9  CE1       95.7250   71.8490   83.9990 C.ar  219  PHE219     -0.0003
     10  CE2       97.9790   72.6360   84.0880 C.ar  219  PHE219     -0.0003
     11  CZ        97.0780   71.5900   84.1030 C.ar  219  PHE219     -0.0000
     12  N        101.8910   74.1610   87.8110 N.3   229  ARG229     -0.1245
     13  CA       103.1200   73.6950   87.1910 C.3   229  ARG229      0.1563
     14  C        104.2420   74.6540   87.5580 C.2   229  ARG229      0.2260
     15  O        104.0850   75.8690   87.4330 O.2   229  ARG229     -0.2867
     16  CB       102.9700   73.6090   85.6700 C.3   229  ARG229      0.0307
     17  CG       101.8170   72.7430   85.1980 C.3   229  ARG229      0.0489
     18  CD       102.1220   71.2700   85.4030 C.3   229  ARG229      0.2205
     19  NE       101.0420   70.4000   84.9400 N.pl3 229  ARG229     -0.0865
     20  CZ       100.1070   69.8600   85.7200 C.cat 229  ARG229      0.5346
     21  NH1      100.0960   70.0880   87.0300 N.pl3 229  ARG229      0.1354
     22  NH2       99.1760   69.0820   85.1830 N.pl3 229  ARG229      0.1354
     23  N        110.0250   70.0460   85.4870 N.3   241  GLN241     -0.1245
     24  CA       108.6580   70.4120   85.8300 C.3   241  GLN241      0.1566
     25  C        108.2420   69.7450   87.1360 C.2   241  GLN241      0.2260
     26  O        108.5530   68.5780   87.3670 O.2   241  GLN241     -0.2867
     27  CB       107.7050   70.0070   84.7020 C.3   241  GLN241      0.0367
     28  CG       106.2260   70.2210   85.0030 C.3   241  GLN241      0.0905
     29  CD       105.3270   69.6200   83.9420 C.2   241  GLN241      0.2608
     30  OE1      104.6410   70.3370   83.2140 O.2   241  GLN241     -0.2717
     31  NE2      105.3240   68.2960   83.8500 N.am  241  GLN241     -0.0878
     32  N        104.6650   69.0530   89.2300 N.3   243  CYS243     -0.1235
     33  CA       103.2200   69.0710   89.0400 C.3   243  CYS243      0.1677
     34  C        102.4540   69.0270   90.3510 C.2   243  CYS243      0.2270
     35  O        102.6860   68.1580   91.1900 O.2   243  CYS243     -0.2867
     36  CB       102.7770   67.8890   88.1770 C.3   243  CYS243      0.0956
     37  SG       103.4270   67.8950   86.4950 S.3   243  CYS243     -0.0801
     38  N         98.5000   68.4970   91.0230 N.3   245  ASP245     -0.1239
     39  CA        97.2270   68.1700   90.3970 C.3   245  ASP245      0.1674
     40  C         96.2160   67.8310   91.4810 C.2   245  ASP245      0.2266
     41  O         96.5270   67.1030   92.4240 O.2   245  ASP245     -0.2867
     42  CB        97.3890   67.0110   89.4090 C.3   245  ASP245      0.1410
     43  CG        98.3010   67.3630   88.2480 C.2   245  ASP245      0.3668
     44  OD1       97.8860   68.1720   87.3930 O.co2 245  ASP245     -0.2456
     45  OD2       99.4300   66.8370   88.1880 O.co2 245  ASP245     -0.2456
     46  N        104.6730   64.5950   90.9740 N.3   252  ASP252     -0.1239
     47  CA       105.4820   64.3230   89.7880 C.3   252  ASP252      0.1674
     48  C        106.6240   65.3180   89.5860 C.2   252  ASP252      0.2266
     49  O        106.4610   66.5250   89.7740 O.2   252  ASP252     -0.2867
     50  CB       104.5870   64.3120   88.5430 C.3   252  ASP252      0.1410
     51  CG       105.2970   63.7790   87.3110 C.2   252  ASP252      0.3668
     52  OD1      105.9500   62.7170   87.4010 O.co2 252  ASP252     -0.2456
     53  OD2      105.1970   64.4230   86.2470 O.co2 252  ASP252     -0.2456
     54  N        109.7680   65.7340   86.5460 N.3   254  ARG254     -0.1245
     55  CA       110.3890   65.2080   85.3290 C.3   254  ARG254      0.1563
     56  C        111.0290   66.2950   84.4670 C.2   254  ARG254      0.2260
     57  O        110.6210   67.4580   84.5020 O.2   254  ARG254     -0.2867
     58  CB       109.3570   64.4410   84.4930 C.3   254  ARG254      0.0307
     59  CG       108.2360   65.3000   83.9250 C.3   254  ARG254      0.0489
     60  CD       107.3970   64.5230   82.9290 C.3   254  ARG254      0.2205
     61  NE       106.5900   63.4870   83.5690 N.pl3 254  ARG254     -0.0865
     62  CZ       106.0410   62.4590   82.9270 C.cat 254  ARG254      0.5346
     63  NH1      106.2180   62.3110   81.6200 N.pl3 254  ARG254      0.1354
     64  NH2      105.3210   61.5690   83.5950 N.pl3 254  ARG254      0.1354
     65  N        111.9710   68.3190   80.9960 N.3   256  ILE256     -0.1245
     66  CA       111.1120   68.8090   79.9230 C.3   256  ILE256      0.1561
     67  C        111.8960   69.0080   78.6330 C.2   256  ILE256      0.2260
     68  O        111.5680   68.4140   77.6080 O.2   256  ILE256     -0.2867
     69  CB       110.4260   70.1390   80.3090 C.3   256  ILE256      0.0252
     70  CG1      109.4900   69.9270   81.5030 C.3   256  ILE256      0.0019
     71  CG2      109.6530   70.7250   79.1240 C.3   256  ILE256      0.0019
     72  CD1      108.3280   68.9680   81.2370 C.3   256  ILE256      0.0001
     73  N         94.4060   72.0010   78.9080 N.3   273  PRO273     -0.2116
     74  CA        95.3580   73.1100   79.0350 C.3   273  PRO273      0.1372
     75  C         96.3470   73.2330   77.8760 C.2   273  PRO273      0.2244
     76  O         96.7590   72.2280   77.2930 O.2   273  PRO273     -0.2868
     77  CB        96.1000   72.7660   80.3220 C.3   273  PRO273      0.0268
     78  CG        96.1310   71.2740   80.3280 C.3   273  PRO273      0.0207
     79  CD        94.8490   70.8180   79.6680 C.3   273  PRO273      0.0892
     80  N        100.1830   74.9650   77.2430 N.3   275  LEU275     -0.1245
     81  CA       101.3470   75.5130   77.9390 C.3   275  LEU275      0.1561
     82  C        102.3920   75.9980   76.9440 C.2   275  LEU275      0.2260
     83  O        102.6330   75.3440   75.9310 O.2   275  LEU275     -0.2867
     84  CB       101.9860   74.4650   78.8580 C.3   275  LEU275      0.0270
     85  CG       101.0930   73.6350   79.7810 C.3   275  LEU275      0.0019
     86  CD1      101.9470   72.6310   80.5400 C.3   275  LEU275      0.0001
     87  CD2      100.3210   74.5040   80.7500 C.3   275  LEU275      0.0001
     88  N        108.8350   75.9720   73.8530 N.3   291  TRP291     -0.1241
     89  CA       108.3760   74.6080   74.0930 C.3   291  TRP291      0.1605
     90  C        106.8700   74.6470   74.3300 C.2   291  TRP291      0.2264
     91  O        106.3720   75.5580   74.9890 O.2   291  TRP291     -0.2867
     92  CB       109.1060   73.9880   75.2890 C.3   291  TRP291      0.0550
     93  CG       108.5850   72.6420   75.7050 C.ar  291  TRP291      0.0003
     94  CD1      109.0020   71.4250   75.2480 C.ar  291  TRP291      0.0946
     95  CD2      107.5580   72.3770   76.6700 C.ar  291  TRP291      0.0152
     96  NE1      108.2960   70.4200   75.8650 N.ar  291  TRP291     -0.2442
     97  CE2      107.4040   70.9780   76.7410 C.ar  291  TRP291      0.0810
     98  CE3      106.7540   73.1850   77.4780 C.ar  291  TRP291      0.0012
     99  CZ2      106.4790   70.3710   77.5890 C.ar  291  TRP291      0.0191
    100  CZ3      105.8370   72.5820   78.3170 C.ar  291  TRP291      0.0001
    101  CH2      105.7080   71.1880   78.3690 C.ar  291  TRP291      0.0015
    102  N        102.9460   72.4980   75.0470 N.3   293  TRP293     -0.1241
    103  CA       102.1780   71.3310   75.4450 C.3   293  TRP293      0.1605
    104  C        100.7160   71.5890   75.1340 C.2   293  TRP293      0.2264
    105  O        100.1870   72.6570   75.4440 O.2   293  TRP293     -0.2867
    106  CB       102.3550   71.0040   76.9320 C.3   293  TRP293      0.0550
    107  CG       101.8850   69.6170   77.2710 C.ar  293  TRP293      0.0003
    108  CD1      102.6620   68.5050   77.4360 C.ar  293  TRP293      0.0946
    109  CD2      100.5300   69.1880   77.4620 C.ar  293  TRP293      0.0152
    110  NE1      101.8770   67.4170   77.7260 N.ar  293  TRP293     -0.2442
    111  CE2      100.5640   67.8090   77.7450 C.ar  293  TRP293      0.0810
    112  CE3       99.2920   69.8390   77.4250 C.ar  293  TRP293      0.0012
    113  CZ2       99.4100   67.0680   77.9900 C.ar  293  TRP293      0.0191
    114  CZ3       98.1470   69.1020   77.6700 C.ar  293  TRP293      0.0001
    115  CH2       98.2140   67.7310   77.9480 C.ar  293  TRP293      0.0015
@<TRIPOS>BOND
     1    88    89    1
     2    89    90    1
     3    89    92    1
     4    90    91    2
     5   102   103    1
     6   104   105    2
     7   104   103    1
     8    94    93   ar
     9    94    96   ar
    10    92    93    1
    11   103   106    1
    12    93    95   ar
    13    96    97   ar
    14    83    82    2
    15    95    97   ar
    16    95    98   ar
    17    97    99   ar
    18   106   107    1
    19    82    81    1
    20    80    81    1
    21   107   108   ar
    22   107   109   ar
    23    76    75    2
    24   112   109   ar
    25   112   114   ar
    26   108   110   ar
    27   109   111   ar
    28    98   100   ar
    29    99   101   ar
    30    68    67    2
    31   114   115   ar
    32   110   111   ar
    33   111   113   ar
    34    75    74    1
    35    81    84    1
    36   115   113   ar
    37   100   101   ar
    38    67    66    1
    39    84    85    1
    40    73    74    1
    41    73    79    1
    42    74    77    1
    43    71    69    1
    44    79    78    1
    45    85    86    1
    46    85    87    1
    47    66    69    1
    48    66    65    1
    49    69    70    1
    50    77    78    1
    51    72    70    1
    52    63    62    1
    53    62    61    2
    54    62    64    1
    55    60    61    1
    56    60    59    1
    57    30    29    2
    58     5     6    1
    59     5     2    1
    60    31    29   am
    61     6     7   ar
    62     6     8   ar
    63     7     9   ar
    64    59    58    1
    65    29    28    1
    66     8    10   ar
    67     9    11   ar
    68    10    11   ar
    69    56    57    2
    70    56    55    1
    71    58    55    1
    72    27    28    1
    73    27    24    1
    74    19    18    1
    75    19    20    2
    76     2     3    1
    77     2     1    1
    78    22    20    1
    79    17    18    1
    80    17    16    1
    81    55    54    1
    82    23    24    1
    83     3     4    2
    84    16    13    1
    85    20    21    1
    86    24    25    1
    87    53    51   ar
    88    37    36    1
    89    25    26    2
    90    13    14    1
    91    13    12    1
    92    51    52   ar
    93    51    50    1
    94    44    43   ar
    95    15    14    2
    96    36    33    1
    97    45    43   ar
    98    43    42    1
    99    50    47    1
   100    33    32    1
   101    33    34    1
   102    42    39    1
   103    48    49    2
   104    48    47    1
   105    47    46    1
   106    34    35    2
   107    39    38    1
   108    39    40    1
   109    40    41    2
