@<TRIPOS>MOLECULE
tmp/5eo7A01.pdb
 112 109 0 0 0
SMALL
GASTEIGER

@<TRIPOS>ATOM
      1  N        101.8450   94.7570   82.5990 N.3    72  ARG72      -0.1245
      2  CA       102.8870   95.3600   83.4110 C.3    72  ARG72       0.1563
      3  C        104.1500   94.5140   83.3080 C.2    72  ARG72       0.2260
      4  O        104.0970   93.2950   83.4490 O.2    72  ARG72      -0.2867
      5  CB       102.4300   95.4890   84.8660 C.3    72  ARG72       0.0307
      6  CG       101.1410   96.2890   85.0470 C.3    72  ARG72       0.0489
      7  CD       101.3320   97.7630   84.7200 C.3    72  ARG72       0.2205
      8  NE       100.1250   98.5390   84.9940 N.pl3  72  ARG72      -0.0865
      9  CZ        99.1180   98.7000   84.1390 C.cat  72  ARG72       0.5346
     10  NH1       99.1560   98.1450   82.9330 N.pl3  72  ARG72       0.1354
     11  NH2       98.0660   99.4250   84.4920 N.pl3  72  ARG72       0.1354
     12  N        108.6990   99.8310   86.4340 N.3    84  GLU84      -0.1245
     13  CA       107.5400   99.2120   85.8120 C.3    84  GLU84       0.1567
     14  C        107.2060   99.8690   84.4760 C.2    84  GLU84       0.2260
     15  O        106.9810  101.0800   84.4080 O.2    84  GLU84      -0.2867
     16  CB       106.3430   99.3010   86.7620 C.3    84  GLU84       0.0388
     17  CG       104.9860   98.9910   86.1530 C.3    84  GLU84       0.1160
     18  CD       103.8500   99.2690   87.1220 C.2    84  GLU84       0.3649
     19  OE1      103.1730   98.3110   87.5530 O.co2  84  GLU84      -0.2457
     20  OE2      103.6340  100.4520   87.4570 O.co2  84  GLU84      -0.2457
     21  N         98.2970  100.0620   78.8650 N.3    88  ASP88      -0.1239
     22  CA        96.8460  100.0430   78.9910 C.3    88  ASP88       0.1674
     23  C         96.2110  100.2320   77.6220 C.2    88  ASP88       0.2266
     24  O         96.5860  101.1340   76.8720 O.2    88  ASP88      -0.2867
     25  CB        96.3590  101.1320   79.9440 C.3    88  ASP88       0.1410
     26  CG        96.7350  100.8640   81.3830 C.2    88  ASP88       0.3668
     27  OD1       96.7710   99.6800   81.7860 O.co2  88  ASP88      -0.2456
     28  OD2       96.9890  101.8440   82.1130 O.co2  88  ASP88      -0.2456
     29  N        103.6590  103.2740   78.7860 N.3    94  TYR94      -0.1227
     30  CA       104.1450  104.3940   79.5820 C.3    94  TYR94       0.1736
     31  C        104.8870  103.9110   80.8220 C.2    94  TYR94       0.2595
     32  O        104.7870  102.7460   81.1970 O.2    94  TYR94      -0.2718
     33  CB       102.9850  105.3000   79.9950 C.3    94  TYR94       0.0548
     34  CG       101.9380  104.5980   80.8300 C.ar   94  TYR94      -0.0200
     35  CD1      100.8800  103.9280   80.2320 C.ar   94  TYR94      -0.0009
     36  CD2      102.0100  104.6020   82.2170 C.ar   94  TYR94      -0.0009
     37  CE1       99.9230  103.2830   80.9910 C.ar   94  TYR94       0.0417
     38  CE2      101.0570  103.9600   82.9830 C.ar   94  TYR94       0.0417
     39  CZ       100.0170  103.3030   82.3630 C.ar   94  TYR94       0.1957
     40  OH        99.0650  102.6590   83.1160 O.3    94  TYR94      -0.2866
     41  N        105.6370  104.8130   81.4490 N.am   95  ASN95      -0.1960
     42  CA       106.3170  104.5050   82.6990 C.3    95  ASN95       0.1819
     43  C        105.3120  104.3980   83.8340 C.2    95  ASN95       0.2622
     44  O        104.5290  105.3180   84.0650 O.2    95  ASN95      -0.2715
     45  CB       107.3640  105.5690   83.0330 C.3    95  ASN95       0.1195
     46  CG       108.4870  105.6200   82.0190 C.2    95  ASN95       0.2630
     47  OD1      108.8800  104.5950   81.4620 O.2    95  ASN95      -0.2716
     48  ND2      109.0120  106.8150   81.7750 N.am   95  ASN95      -0.0877
     49  N        105.3300  103.2670   84.5300 N.am   96  GLY96      -0.1940
     50  CA       104.4500  103.0590   85.6630 C.3    96  GLY96       0.2014
     51  C        104.9540  103.7980   86.8840 C.2    96  GLY96       0.2638
     52  O        106.0880  104.2720   86.9070 O.2    96  GLY96      -0.2714
     53  N        104.1120  103.8820   87.9070 N.am   97  ALA97      -0.1977
     54  CA       104.4190  104.6660   89.0970 C.3    97  ALA97       0.1597
     55  C        105.3690  103.9660   90.0710 C.2    97  ALA97       0.2287
     56  O        105.7920  104.5720   91.0550 O.2    97  ALA97      -0.2864
     57  CB       103.1280  105.0230   89.8140 C.3    97  ALA97       0.0319
     58  N         98.8220   90.0640   88.7590 N.3   115  PHE115     -0.1241
     59  CA        97.5570   90.7340   88.9960 C.3   115  PHE115      0.1605
     60  C         96.7370   89.8110   89.8800 C.2   115  PHE115      0.2264
     61  O         96.7730   88.5940   89.7050 O.2   115  PHE115     -0.2867
     62  CB        96.8160   91.0300   87.6920 C.3   115  PHE115      0.0534
     63  CG        97.1890   92.3410   87.0610 C.ar  115  PHE115     -0.0203
     64  CD1       96.7320   93.5360   87.5930 C.ar  115  PHE115     -0.0042
     65  CD2       97.9800   92.3790   85.9230 C.ar  115  PHE115     -0.0042
     66  CE1       97.0680   94.7450   87.0070 C.ar  115  PHE115     -0.0003
     67  CE2       98.3180   93.5810   85.3370 C.ar  115  PHE115     -0.0003
     68  CZ        97.8610   94.7660   85.8800 C.ar  115  PHE115     -0.0000
     69  N         92.1190   96.6950   89.3210 N.3   122  LEU122     -0.1245
     70  CA        93.5230   96.4540   89.0110 C.3   122  LEU122      0.1561
     71  C         94.3780   96.4160   90.2740 C.2   122  LEU122      0.2260
     72  O         94.8640   97.4480   90.7360 O.2   122  LEU122     -0.2867
     73  CB        94.0500   97.5280   88.0560 C.3   122  LEU122      0.0270
     74  CG        93.7310   97.3360   86.5700 C.3   122  LEU122      0.0019
     75  CD1       92.2300   97.3550   86.3100 C.3   122  LEU122      0.0001
     76  CD2       94.4300   98.4040   85.7410 C.3   122  LEU122      0.0001
     77  N         97.7850   94.6560   92.1050 N.3   124  LEU124     -0.1245
     78  CA        99.0610   94.0150   91.8040 C.3   124  LEU124      0.1561
     79  C         99.8130   93.6110   93.0630 C.2   124  LEU124      0.2260
     80  O         99.7940   94.3210   94.0690 O.2   124  LEU124     -0.2867
     81  CB        99.9470   94.9470   90.9760 C.3   124  LEU124      0.0270
     82  CG        99.5350   95.1820   89.5260 C.3   124  LEU124      0.0019
     83  CD1      100.0510   96.5290   89.0470 C.3   124  LEU124      0.0001
     84  CD2      100.0600   94.0620   88.6420 C.3   124  LEU124      0.0001
     85  N         99.9820   97.1540   94.9220 N.3   140  TRP140     -0.1241
     86  CA        99.1790   98.2390   94.3930 C.3   140  TRP140      0.1605
     87  C         97.7100   97.8660   94.5430 C.2   140  TRP140      0.2264
     88  O         97.2940   96.7910   94.1080 O.2   140  TRP140     -0.2867
     89  CB        99.5130   98.5060   92.9250 C.3   140  TRP140      0.0550
     90  CG        98.6160   99.5210   92.3110 C.ar  140  TRP140      0.0003
     91  CD1       97.3680   99.3120   91.8040 C.ar  140  TRP140      0.0946
     92  CD2       98.8890  100.9150   92.1460 C.ar  140  TRP140      0.0152
     93  NE1       96.8470  100.4890   91.3320 N.ar  140  TRP140     -0.2442
     94  CE2       97.7610  101.4880   91.5310 C.ar  140  TRP140      0.0810
     95  CE3       99.9770  101.7320   92.4610 C.ar  140  TRP140      0.0012
     96  CZ2       97.6910  102.8420   91.2200 C.ar  140  TRP140      0.0191
     97  CZ3       99.9060  103.0760   92.1520 C.ar  140  TRP140      0.0001
     98  CH2       98.7710  103.6180   91.5390 C.ar  140  TRP140      0.0015
     99  N        101.9550  102.6460   95.7960 N.3   145  TRP145     -0.1241
    100  CA       102.6750  101.4140   96.0820 C.3   145  TRP145      0.1605
    101  C        103.0830  101.3410   97.5500 C.2   145  TRP145      0.2264
    102  O        103.6130  102.3050   98.0980 O.2   145  TRP145     -0.2867
    103  CB       103.9130  101.3010   95.1920 C.3   145  TRP145      0.0550
    104  CG       103.5950  100.9360   93.7830 C.ar  145  TRP145      0.0003
    105  CD1      103.4220  101.7880   92.7340 C.ar  145  TRP145      0.0946
    106  CD2      103.4070   99.6140   93.2640 C.ar  145  TRP145      0.0152
    107  NE1      103.1390  101.0800   91.5920 N.ar  145  TRP145     -0.2442
    108  CE2      103.1240   99.7420   91.8910 C.ar  145  TRP145      0.0810
    109  CE3      103.4510   98.3350   93.8270 C.ar  145  TRP145      0.0012
    110  CZ2      102.8870   98.6410   91.0700 C.ar  145  TRP145      0.0191
    111  CZ3      103.2150   97.2440   93.0140 C.ar  145  TRP145      0.0001
    112  CH2      102.9370   97.4030   91.6490 C.ar  145  TRP145      0.0015
@<TRIPOS>BOND
     1    24    23    2
     2    23    22    1
     3    29    30    1
     4    21    22    1
     5    22    25    1
     6    30    33    1
     7    30    31    1
     8    25    26    1
     9    33    34    1
    10    35    34   ar
    11    35    37   ar
    12    31    32    2
    13    31    41   am
    14    34    36   ar
    15    37    39   ar
    16    26    27   ar
    17    26    28   ar
    18    41    42    1
    19    47    46    2
    20    48    46   am
    21    46    45    1
    22    36    38   ar
    23    39    38   ar
    24    39    40    1
    25     1     2    1
    26    42    45    1
    27    42    43    1
    28    10     9    1
    29     3     2    1
    30     3     4    2
    31     2     5    1
    32    43    44    2
    33    43    49   am
    34     9    11    1
    35     9     8    2
    36    15    14    2
    37    14    13    1
    38    49    50    1
    39     7     8    1
    40     7     6    1
    41     5     6    1
    42    67    68   ar
    43    67    65   ar
    44    50    51    1
    45    76    74    1
    46    13    12    1
    47    13    16    1
    48    68    66   ar
    49    65    63   ar
    50    17    16    1
    51    17    18    1
    52    75    74    1
    53    74    73    1
    54    51    52    2
    55    51    53   am
    56    66    64   ar
    57    63    64   ar
    58    63    62    1
    59    18    20   ar
    60    18    19   ar
    61    62    59    1
    62    53    54    1
    63    73    70    1
    64    84    82    1
    65    58    59    1
    66    59    60    1
    67    70    69    1
    68    70    71    1
    69    83    82    1
    70    54    57    1
    71    54    55    1
    72    82    81    1
    73    61    60    2
    74    55    56    2
    75    71    72    2
    76    81    78    1
    77   110   112   ar
    78   110   108   ar
    79    96    94   ar
    80    96    98   ar
    81    93    94   ar
    82    93    91   ar
    83    94    92   ar
    84    98    97   ar
    85   107   108   ar
    86   107   105   ar
    87   112   111   ar
    88    91    90   ar
    89    78    77    1
    90    78    79    1
    91   108   106   ar
    92    92    90   ar
    93    92    95   ar
    94    97    95   ar
    95    90    89    1
    96   105   104   ar
    97    89    86    1
    98   111   109   ar
    99    79    80    2
   100   106   104   ar
   101   106   109   ar
   102   104   103    1
   103    88    87    2
   104    86    87    1
   105    86    85    1
   106   103   100    1
   107    99   100    1
   108   100   101    1
   109   101   102    2
