@<TRIPOS>MOLECULE
tmp/5eo7A02.pdb
 96 90 0 0 0
SMALL
GASTEIGER

@<TRIPOS>ATOM
      1  N         96.0110   90.3710   90.8370 N.3   116  LEU116     -0.1245
      2  CA        95.1500   89.5490   91.6730 C.3   116  LEU116      0.1561
      3  C         93.9210   89.1350   90.8780 C.2   116  LEU116      0.2260
      4  O         93.2190   89.9710   90.3120 O.2   116  LEU116     -0.2867
      5  CB        94.7470   90.2890   92.9470 C.3   116  LEU116      0.0270
      6  CG        95.8840   90.5930   93.9270 C.3   116  LEU116      0.0019
      7  CD1       95.3250   91.2310   95.1860 C.3   116  LEU116      0.0001
      8  CD2       96.6880   89.3450   94.2790 C.3   116  LEU116      0.0001
      9  N        100.4690   92.4590   92.9890 N.3   125  ARG125     -0.1245
     10  CA       101.4400   92.0460   93.9880 C.3   125  ARG125      0.1563
     11  C        102.7220   91.6740   93.2620 C.2   125  ARG125      0.2260
     12  O        102.6910   90.8850   92.3160 O.2   125  ARG125     -0.2867
     13  CB       100.9290   90.8620   94.8130 C.3   125  ARG125      0.0307
     14  CG        99.6250   91.1170   95.5470 C.3   125  ARG125      0.0489
     15  CD        99.7960   92.1280   96.6750 C.3   125  ARG125      0.2205
     16  NE        98.5720   92.2730   97.4650 N.pl3 125  ARG125     -0.0865
     17  CZ        97.5880   93.1230   97.1880 C.cat 125  ARG125      0.5346
     18  NH1       97.6650   93.9260   96.1320 N.pl3 125  ARG125      0.1354
     19  NH2       96.5170   93.1700   97.9680 N.pl3 125  ARG125      0.1354
     20  N        107.0960   91.5220   99.6110 N.3   137  GLU137     -0.1245
     21  CA       105.9320   91.7860   98.7780 C.3   137  GLU137      0.1567
     22  C        105.7040   93.2930   98.6860 C.2   137  GLU137      0.2260
     23  O        105.8030   94.0060   99.6860 O.2   137  GLU137     -0.2867
     24  CB       104.6900   91.0930   99.3470 C.3   137  GLU137      0.0388
     25  CG       103.4270   91.2950   98.5290 C.3   137  GLU137      0.1160
     26  CD       102.1920   90.7370   99.2100 C.2   137  GLU137      0.3649
     27  OE1      101.7750   91.3020  100.2450 O.co2 137  GLU137     -0.2457
     28  OE2      101.6360   89.7340   98.7140 O.co2 137  GLU137     -0.2457
     29  N        102.8040   96.0740   96.9140 N.3   139  MET139     -0.1245
     30  CA       101.4240   96.0160   96.4410 C.3   139  MET139      0.1570
     31  C        100.8930   97.3160   95.8730 C.2   139  MET139      0.2261
     32  O        101.2850   98.4080   96.2820 O.2   139  MET139     -0.2867
     33  CB       100.4950   95.5750   97.5750 C.3   139  MET139      0.0387
     34  CG       100.5880   96.4190   98.8290 C.3   139  MET139      0.0595
     35  SD        99.5290   95.7890  100.1540 S.3   139  MET139     -0.1393
     36  CE       100.2870   94.1920  100.3710 C.3   139  MET139      0.0692
     37  N         96.9290   98.7500   95.1570 N.3   141  ASN141     -0.1240
     38  CA        95.5060   98.5010   95.3690 C.3   141  ASN141      0.1653
     39  C         94.6290   99.6900   94.9750 C.2   141  ASN141      0.2266
     40  O         93.4390   99.7180   95.2910 O.2   141  ASN141     -0.2867
     41  CB        95.2570   98.1270   96.8330 C.3   141  ASN141      0.1155
     42  CG        95.7900   96.7480   97.1820 C.2   141  ASN141      0.2627
     43  OD1       95.7090   95.8150   96.3800 O.2   141  ASN141     -0.2716
     44  ND2       96.3410   96.6130   98.3810 N.am  141  ASN141     -0.0877
     45  N        104.2740   95.1840  101.4770 N.3   148  GLY148     -0.1210
     46  CA       103.3080   94.2550  102.0260 C.3   148  GLY148      0.1956
     47  C        103.9370   93.3130  103.0220 C.2   148  GLY148      0.2612
     48  O        104.7250   93.7130  103.8740 O.2   148  GLY148     -0.2717
     49  N        103.5810   92.0420  102.8920 N.am  149  THR149     -0.1952
     50  CA       104.0960   91.0060  103.7640 C.3   149  THR149      0.1897
     51  C        105.5020   90.6170  103.3320 C.2   149  THR149      0.2313
     52  O        105.8050   90.5750  102.1400 O.2   149  THR149     -0.2863
     53  CB       103.1900   89.7610  103.7520 C.3   149  THR149      0.1794
     54  OG1      101.8350   90.1530  104.0020 O.3   149  THR149     -0.2208
     55  CG2      103.6340   88.7640  104.8100 C.3   149  THR149      0.0378
     56  N         91.6270   86.1950   96.2250 N.3   173  PRO173     -0.2116
     57  CA        92.6730   85.5230   95.4580 C.3   173  PRO173      0.1372
     58  C         93.5010   84.5600   96.2960 C.2   173  PRO173      0.2244
     59  O         93.7140   84.7970   97.4880 O.2   173  PRO173     -0.2868
     60  CB        93.5350   86.6860   94.9660 C.3   173  PRO173      0.0268
     61  CG        93.4030   87.7090   96.0350 C.3   173  PRO173      0.0207
     62  CD        91.9970   87.5780   96.5680 C.3   173  PRO173      0.0892
     63  N         97.3520   82.8940   96.3060 N.3   175  ILE175     -0.1245
     64  CA        98.6730   83.1980   95.7750 C.3   175  ILE175      0.1561
     65  C         99.6630   82.1350   96.2250 C.2   175  ILE175      0.2260
     66  O         99.6270   81.6820   97.3710 O.2   175  ILE175     -0.2867
     67  CB        99.1820   84.5810   96.2420 C.3   175  ILE175      0.0252
     68  CG1       98.1390   85.6710   95.9820 C.3   175  ILE175      0.0019
     69  CG2      100.4890   84.9330   95.5390 C.3   175  ILE175      0.0019
     70  CD1       98.4000   86.9480   96.7560 C.3   175  ILE175      0.0001
     71  N         99.3720   81.8680  100.1450 N.3   191  TYR191     -0.1241
     72  CA        98.3190   82.7460  100.6440 C.3   191  TYR191      0.1605
     73  C         96.9630   82.2910  100.1280 C.2   191  TYR191      0.2264
     74  O         96.7860   82.1010   98.9260 O.2   191  TYR191     -0.2867
     75  CB        98.5620   84.1960  100.2160 C.3   191  TYR191      0.0534
     76  CG        97.4300   85.1380  100.5690 C.ar  191  TYR191     -0.0201
     77  CD1       96.3180   85.2560   99.7450 C.ar  191  TYR191     -0.0009
     78  CD2       97.4730   85.9120  101.7210 C.ar  191  TYR191     -0.0009
     79  CE1       95.2830   86.1070  100.0590 C.ar  191  TYR191      0.0417
     80  CE2       96.4390   86.7720  102.0410 C.ar  191  TYR191      0.0417
     81  CZ        95.3450   86.8610  101.2040 C.ar  191  TYR191      0.1957
     82  OH        94.3050   87.7110  101.5010 O.3   191  TYR191     -0.2866
     83  N         98.3520   84.4690  104.7900 N.3   197  TRP197     -0.1241
     84  CA        99.5750   83.7320  104.4950 C.3   197  TRP197      0.1605
     85  C         99.7800   82.6030  105.4980 C.2   197  TRP197      0.2264
     86  O         99.8360   82.8400  106.7020 O.2   197  TRP197     -0.2867
     87  CB       100.7940   84.6570  104.5100 C.3   197  TRP197      0.0550
     88  CG       100.8770   85.5690  103.3250 C.ar  197  TRP197      0.0003
     89  CD1      100.4620   86.8660  103.2610 C.ar  197  TRP197      0.0946
     90  CD2      101.4120   85.2550  102.0360 C.ar  197  TRP197      0.0152
     91  NE1      100.7020   87.3790  102.0130 N.ar  197  TRP197     -0.2442
     92  CE2      101.2830   86.4090  101.2390 C.ar  197  TRP197      0.0810
     93  CE3      101.9800   84.1080  101.4750 C.ar  197  TRP197      0.0012
     94  CZ2      101.7040   86.4510   99.9100 C.ar  197  TRP197      0.0191
     95  CZ3      102.3980   84.1510  100.1530 C.ar  197  TRP197      0.0001
     96  CH2      102.2580   85.3150   99.3880 C.ar  197  TRP197      0.0015
@<TRIPOS>BOND
     1     4     3    2
     2     1     2    1
     3     3     2    1
     4     2     5    1
     5    12    11    2
     6     5     6    1
     7     9    10    1
     8    11    10    1
     9     6     8    1
    10     6     7    1
    11    10    13    1
    12    13    14    1
    13    60    57    1
    14    60    61    1
    15    39    40    2
    16    39    38    1
    17    37    38    1
    18    38    41    1
    19    57    56    1
    20    57    58    1
    21    69    67    1
    22    14    15    1
    23    64    65    1
    24    64    67    1
    25    64    63    1
    26    31    32    2
    27    31    30    1
    28    68    67    1
    29    68    70    1
    30    61    62    1
    31    18    17    1
    32    65    66    2
    33    56    62    1
    34    58    59    2
    35    43    42    2
    36    30    29    1
    37    30    33    1
    38    15    16    1
    39    41    42    1
    40    42    44   am
    41    17    16    2
    42    17    19    1
    43    33    34    1
    44    25    26    1
    45    25    24    1
    46    22    21    1
    47    22    23    2
    48    28    26   ar
    49    21    24    1
    50    21    20    1
    51    34    35    1
    52    74    73    2
    53    26    27   ar
    54    96    94   ar
    55    96    95   ar
    56    77    79   ar
    57    77    76   ar
    58    94    92   ar
    59    79    81   ar
    60    73    72    1
    61    71    72    1
    62    95    93   ar
    63    35    36    1
    64    75    76    1
    65    75    72    1
    66    76    78   ar
    67    81    82    1
    68    81    80   ar
    69    92    91   ar
    70    92    90   ar
    71    93    90   ar
    72    45    46    1
    73    78    80   ar
    74    91    89   ar
    75    46    47    1
    76    90    88   ar
    77    52    51    2
    78    49    47   am
    79    49    50    1
    80    47    48    2
    81    89    88   ar
    82    88    87    1
    83    51    50    1
    84    53    50    1
    85    53    54    1
    86    53    55    1
    87    84    87    1
    88    84    83    1
    89    84    85    1
    90    85    86    2
