@<TRIPOS>MOLECULE
tmp/5eobA00.pdb
 172 162 0 0 0
SMALL
GASTEIGER

@<TRIPOS>ATOM
      1  N         -4.9170   10.8290   37.3000 N.3    30  ILE30      -0.1231
      2  CA        -5.5050   11.0180   35.9780 C.3    30  ILE30       0.1692
      3  C         -4.8020   10.2110   34.8890 C.2    30  ILE30       0.2593
      4  O         -5.2260   10.2070   33.7340 O.2    30  ILE30      -0.2718
      5  CB        -5.5560   12.5140   35.5440 C.3    30  ILE30       0.0266
      6  CG1       -4.1430   13.0840   35.3660 C.3    30  ILE30       0.0019
      7  CG2       -6.3770   13.3330   36.5370 C.3    30  ILE30       0.0020
      8  CD1       -4.1300   14.4700   34.6910 C.3    30  ILE30       0.0001
      9  N         -3.7230    9.5360   35.2580 N.am   31  GLY31      -0.1942
     10  CA        -3.0230    8.6610   34.3390 C.3    31  GLY31       0.2014
     11  C         -2.0070    7.8590   35.1220 C.2    31  GLY31       0.2638
     12  O         -1.5720    8.2730   36.1920 O.2    31  GLY31      -0.2714
     13  N         -1.6320    6.7020   34.5990 N.am   32  ARG32      -0.1977
     14  CA        -0.7300    5.8130   35.3040 C.3    32  ARG32       0.1597
     15  C          0.2850    5.2860   34.3230 C.2    32  ARG32       0.2287
     16  O         -0.0730    4.7540   33.2710 O.2    32  ARG32      -0.2864
     17  CB        -1.4900    4.6170   35.8780 C.3    32  ARG32       0.0334
     18  CG        -2.5300    4.9830   36.9080 C.3    32  ARG32       0.0492
     19  CD        -3.5030    3.8420   37.1400 C.3    32  ARG32       0.2205
     20  NE        -4.6700    4.2920   37.8970 N.pl3  32  ARG32      -0.0865
     21  CZ        -4.8350    4.1010   39.2010 C.cat  32  ARG32       0.5346
     22  NH1       -3.9160    3.4510   39.9000 N.pl3  32  ARG32       0.1354
     23  NH2       -5.9290    4.5510   39.8030 N.pl3  32  ARG32       0.1354
     24  N          0.1060   10.2540   37.4220 N.3    38  VAL38      -0.1245
     25  CA        -0.0610   11.6040   36.9020 C.3    38  VAL38       0.1561
     26  C         -1.2820   12.2290   37.5590 C.2    38  VAL38       0.2260
     27  O         -2.2940   11.5490   37.7780 O.2    38  VAL38      -0.2867
     28  CB        -0.2180   11.5850   35.3630 C.3    38  VAL38       0.0252
     29  CG1       -0.2330   13.0080   34.7930 C.3    38  VAL38       0.0019
     30  CG2        0.9140   10.7600   34.7330 C.3    38  VAL38       0.0019
     31  N         -0.5920   18.4350   33.5270 N.3    54  ALA54      -0.1245
     32  CA        -0.4920   17.0590   33.9790 C.3    54  ALA54       0.1562
     33  C          0.8250   16.9760   34.7380 C.2    54  ALA54       0.2260
     34  O          1.8770   17.2660   34.1760 O.2    54  ALA54      -0.2867
     35  CB        -0.4630   16.1270   32.7880 C.3    54  ALA54       0.0290
     36  N          3.4750   14.6810   36.7530 N.3    56  LYS56      -0.1245
     37  CA         3.8600   13.3010   36.9700 C.3    56  LYS56       0.1561
     38  C          4.9130   13.1670   38.0560 C.2    56  LYS56       0.2260
     39  O          5.9430   13.8510   38.0440 O.2    56  LYS56      -0.2867
     40  CB         4.3760   12.6750   35.6790 C.3    56  LYS56       0.0271
     41  CG         4.6090   11.1790   35.8130 C.3    56  LYS56       0.0035
     42  CD         4.8930   10.5480   34.4720 C.3    56  LYS56       0.0206
     43  CE         5.1830    9.0670   34.6390 C.3    56  LYS56       0.1093
     44  NZ         5.5960    8.4530   33.3600 N.3    56  LYS56      -0.1314
     45  N          4.9090   17.0270   22.4680 N.3    86  LEU86      -0.1245
     46  CA         4.5750   17.3950   23.8500 C.3    86  LEU86       0.1561
     47  C          5.7050   18.2200   24.4850 C.2    86  LEU86       0.2260
     48  O          6.8620   17.8060   24.4800 O.2    86  LEU86      -0.2867
     49  CB         4.3110   16.1460   24.6890 C.3    86  LEU86       0.0270
     50  CG         3.6830   16.3640   26.0710 C.3    86  LEU86       0.0019
     51  CD1        2.3140   16.9960   25.9410 C.3    86  LEU86       0.0001
     52  CD2        3.5800   15.0370   26.8190 C.3    86  LEU86       0.0001
     53  N          3.8000   18.8580   32.7320 N.3   103  LEU103     -0.1231
     54  CA         3.5210   18.7860   31.3030 C.3   103  LEU103      0.1678
     55  C          2.1700   19.4390   31.0460 C.2   103  LEU103      0.2434
     56  O          1.3680   19.5680   31.9690 O.2   103  LEU103     -0.2733
     57  CB         3.4610   17.3190   30.8790 C.3   103  LEU103      0.0284
     58  CG         4.7220   16.5370   31.2250 C.3   103  LEU103      0.0019
     59  CD1        4.4160   15.0540   31.3380 C.3   103  LEU103      0.0001
     60  CD2        5.7820   16.7920   30.1700 C.3   103  LEU103      0.0001
     61  N          1.9060   19.8400   29.7910 N.am  104  PRO104     -0.2718
     62  CA         0.5950   20.3980   29.4570 C.3   104  PRO104      0.1535
     63  C         -0.4770   19.3400   29.5880 C.2   104  PRO104      0.2599
     64  O         -0.2560   18.1880   29.2110 O.2   104  PRO104     -0.2715
     65  CB         0.7380   20.7860   27.9780 C.3   104  PRO104      0.0310
     66  CG         2.2030   20.7840   27.7050 C.3   104  PRO104      0.0237
     67  CD         2.7850   19.7610   28.6140 C.3   104  PRO104      0.0939
     68  N         -1.6320   19.7310   30.1160 N.am  105  TYR105     -0.1960
     69  CA        -2.7540   18.8180   30.2580 C.3   105  TYR105      0.1771
     70  C         -3.3510   18.5210   28.8950 C.2   105  TYR105      0.2619
     71  O         -3.6120   19.4330   28.1170 O.2   105  TYR105     -0.2715
     72  CB        -3.8130   19.4570   31.1510 C.3   105  TYR105      0.0574
     73  CG        -5.0410   18.6120   31.3590 C.ar  105  TYR105     -0.0198
     74  CD1       -5.0320   17.5390   32.2390 C.ar  105  TYR105     -0.0009
     75  CD2       -6.2220   18.9080   30.6920 C.ar  105  TYR105     -0.0009
     76  CE1       -6.1700   16.7720   32.4320 C.ar  105  TYR105      0.0417
     77  CE2       -7.3500   18.1640   30.8880 C.ar  105  TYR105      0.0417
     78  CZ        -7.3220   17.0950   31.7520 C.ar  105  TYR105      0.1957
     79  OH        -8.4650   16.3480   31.9280 O.3   105  TYR105     -0.2866
     80  N         -3.5590   17.2400   28.6070 N.am  106  MET106     -0.1977
     81  CA        -4.0910   16.8230   27.3150 C.3   106  MET106      0.1605
     82  C         -5.5300   16.3830   27.4800 C.2   106  MET106      0.2287
     83  O         -5.8030   15.2490   27.8700 O.2   106  MET106     -0.2864
     84  CB        -3.2560   15.6870   26.7410 C.3   106  MET106      0.0413
     85  CG        -1.8150   16.1040   26.4770 C.3   106  MET106      0.0598
     86  SD        -1.6970   17.1240   24.9920 S.3   106  MET106     -0.1393
     87  CE        -1.0110   18.6390   25.6270 C.3   106  MET106      0.0692
     88  N         -6.7060   13.0350   26.1540 N.3   109  GLY109     -0.1210
     89  CA        -5.9770   11.8350   26.5270 C.3   109  GLY109      0.1956
     90  C         -5.1280   11.2920   25.3920 C.2   109  GLY109      0.2611
     91  O         -4.6950   12.0500   24.5250 O.2   109  GLY109     -0.2717
     92  N         -4.8850    9.9820   25.3950 N.am  110  ASP110     -0.1973
     93  CA        -4.0360    9.3820   24.3720 C.3   110  ASP110      0.1709
     94  C         -4.8170    9.1200   23.0950 C.2   110  ASP110      0.2293
     95  O         -6.0250    8.8510   23.1180 O.2   110  ASP110     -0.2864
     96  CB        -3.3740    8.0920   24.8690 C.3   110  ASP110      0.1436
     97  CG        -4.3570    6.9640   25.0610 C.2   110  ASP110      0.3671
     98  OD1       -5.0830    6.9730   26.0750 O.co2 110  ASP110     -0.2456
     99  OD2       -4.3820    6.0460   24.2140 O.co2 110  ASP110     -0.2456
    100  N         -6.8720    5.6010   22.7540 N.3   113  ASN113     -0.1240
    101  CA        -8.1660    5.5800   23.4330 C.3   113  ASN113      0.1653
    102  C         -9.1550    6.5370   22.8000 C.2   113  ASN113      0.2266
    103  O        -10.3500    6.2610   22.7630 O.2   113  ASN113     -0.2867
    104  CB        -8.0180    5.8620   24.9220 C.3   113  ASN113      0.1155
    105  CG        -7.5250    4.6480   25.6830 C.2   113  ASN113      0.2627
    106  OD1       -8.0900    3.5570   25.5630 O.2   113  ASN113     -0.2716
    107  ND2       -6.4590    4.8210   26.4450 N.am  113  ASN113     -0.0877
    108  N         -0.8160    4.8450   21.2210 N.3   154  ARG154     -0.1231
    109  CA        -0.9470    4.9810   22.6780 C.3   154  ARG154      0.1694
    110  C         -0.0210    6.0560   23.2400 C.2   154  ARG154      0.2592
    111  O         -0.2460    6.5690   24.3370 O.2   154  ARG154     -0.2718
    112  CB        -0.6580    3.6460   23.3830 C.3   154  ARG154      0.0321
    113  CG         0.7930    3.1780   23.2350 C.3   154  ARG154      0.0489
    114  CD         1.1200    1.8980   24.0220 C.3   154  ARG154      0.2205
    115  NE         2.4580    1.4550   23.6250 N.pl3 154  ARG154     -0.0865
    116  CZ         2.7090    0.7080   22.5510 C.cat 154  ARG154      0.5346
    117  NH1        1.7160    0.2530   21.8120 N.pl3 154  ARG154      0.1354
    118  NH2        3.9610    0.3860   22.2260 N.pl3 154  ARG154      0.1354
    119  N          1.0180    6.3970   22.4870 N.am  155  ASN155     -0.1974
    120  CA         2.0610    7.2940   22.9870 C.3   155  ASN155      0.1688
    121  C          2.0030    8.6700   22.3430 C.2   155  ASN155      0.2292
    122  O          2.9730    9.4330   22.3950 O.2   155  ASN155     -0.2864
    123  CB         3.4380    6.6790   22.7640 C.3   155  ASN155      0.1181
    124  CG         3.6860    5.4950   23.6730 C.2   155  ASN155      0.2629
    125  OD1        3.1710    5.4440   24.7910 O.2   155  ASN155     -0.2716
    126  ND2        4.4490    4.5220   23.1910 N.am  155  ASN155     -0.0877
    127  N         -0.6760   12.1400   22.2700 N.3   157  MET157     -0.1245
    128  CA        -1.8010   12.6980   23.0190 C.3   157  MET157      0.1570
    129  C         -2.5730   13.7330   22.1930 C.2   157  MET157      0.2261
    130  O         -2.0830   14.2180   21.1730 O.2   157  MET157     -0.2867
    131  CB        -1.3190   13.3470   24.3220 C.3   157  MET157      0.0387
    132  CG        -0.3790   12.5150   25.2000 C.3   157  MET157      0.0595
    133  SD        -1.1120   11.1130   26.0400 S.3   157  MET157     -0.1393
    134  CE        -2.1710   11.8690   27.2950 C.3   157  MET157      0.0692
    135  N          4.2480   12.1130   22.1890 N.3   167  ALA167     -0.1231
    136  CA         4.5390   12.1910   23.6160 C.3   167  ALA167      0.1694
    137  C          5.4530   11.0410   24.0230 C.2   167  ALA167      0.2592
    138  O          6.1930   10.5070   23.1830 O.2   167  ALA167     -0.2718
    139  CB         3.2320   12.1820   24.4220 C.3   167  ALA167      0.0304
    140  N          5.4340   10.6780   25.3040 N.am  168  ASP168     -0.1974
    141  CA         6.1870    9.5180   25.7760 C.3   168  ASP168      0.1709
    142  C          7.6700    9.6010   25.3950 C.2   168  ASP168      0.2293
    143  O          8.2440    8.6530   24.8610 O.2   168  ASP168     -0.2864
    144  CB         5.5590    8.2370   25.2070 C.3   168  ASP168      0.1436
    145  CG         6.2730    6.9860   25.6540 C.2   168  ASP168      0.3671
    146  OD1        6.6220    6.9100   26.8450 O.co2 168  ASP168     -0.2456
    147  OD2        6.5210    6.0990   24.7970 O.co2 168  ASP168     -0.2456
    148  N          8.8670   12.2580   30.1210 N.3   172  ALA172     -0.1245
    149  CA         7.5360   11.6480   30.0470 C.3   172  ALA172      0.1562
    150  C          7.5940   10.1910   29.5870 C.2   172  ALA172      0.2260
    151  O          6.5630    9.5450   29.4130 O.2   172  ALA172     -0.2867
    152  CB         6.6340   12.4560   29.1300 C.3   172  ALA172      0.0290
    153  N          2.9540    2.9400   29.2610 N.3   176  TYR176     -0.1227
    154  CA         1.6040    3.3590   29.6260 C.3   176  TYR176      0.1736
    155  C          0.5620    2.2810   29.3500 C.2   176  TYR176      0.2595
    156  O         -0.5920    2.4130   29.7450 O.2   176  TYR176     -0.2718
    157  CB         1.2360    4.6740   28.9270 C.3   176  TYR176      0.0548
    158  CG         2.0530    5.8590   29.4220 C.ar  176  TYR176     -0.0200
    159  CD1        1.7830    6.4500   30.6510 C.ar  176  TYR176     -0.0009
    160  CD2        3.0830    6.3820   28.6610 C.ar  176  TYR176     -0.0009
    161  CE1        2.5230    7.5300   31.1150 C.ar  176  TYR176      0.0417
    162  CE2        3.8380    7.4660   29.1160 C.ar  176  TYR176      0.0417
    163  CZ         3.5490    8.0400   30.3370 C.ar  176  TYR176      0.1957
    164  OH         4.3020    9.1090   30.7870 O.3   176  TYR176     -0.2866
    165  N          0.9790    1.2220   28.6660 N.am  177  ASP177     -0.1974
    166  CA         0.1510    0.0380   28.4840 C.3   177  ASP177      0.1709
    167  C          1.0800   -1.1700   28.3920 C.2   177  ASP177      0.2293
    168  O          1.5890   -1.5140   27.3200 O.2   177  ASP177     -0.2864
    169  CB        -0.7400    0.1660   27.2470 C.3   177  ASP177      0.1436
    170  CG        -1.8160   -0.9050   27.1910 C.2   177  ASP177      0.3671
    171  OD1       -1.7120   -1.8880   27.9560 O.co2 177  ASP177     -0.2456
    172  OD2       -2.7510   -0.7730   26.3710 O.co2 177  ASP177     -0.2456
@<TRIPOS>BOND
     1   130   129    2
     2   108   109    1
     3   117   116    1
     4   135   136    1
     5   129   128    1
     6   118   116    1
     7   127   128    1
     8   121   122    2
     9   121   120    1
    10    45    46    1
    11   119   120    1
    12   119   110   am
    13   116   115    2
    14   109   110    1
    15   109   112    1
    16   100   101    1
    17   103   102    2
    18   123   120    1
    19   123   124    1
    20   102   101    1
    21   128   131    1
    22    94    95    2
    23    94    93    1
    24   138   137    2
    25   126   124   am
    26   113   112    1
    27   113   114    1
    28   110   111    2
    29   101   104    1
    30   136   137    1
    31   136   139    1
    32   115   114    1
    33   124   125    2
    34    46    47    1
    35    46    49    1
    36   137   140   am
    37    99    97   ar
    38   131   132    1
    39    93    96    1
    40    93    92    1
    41    48    47    2
    42    91    90    2
    43    49    50    1
    44   147   145   ar
    45   143   142    2
    46    96    97    1
    47   104   105    1
    48    86    87    1
    49    86    85    1
    50    97    98   ar
    51   132   133    1
    52   144   145    1
    53   144   141    1
    54   140   141    1
    55    90    92   am
    56    90    89    1
    57   142   141    1
    58   106   105    2
    59   145   146   ar
    60   105   107   am
    61    51    50    1
    62   133   134    1
    63    50    52    1
    64    88    89    1
    65   172   170   ar
    66    85    84    1
    67    84    81    1
    68   170   169    1
    69   170   171   ar
    70   169   166    1
    71    81    82    1
    72    81    80    1
    73   168   167    2
    74    82    83    2
    75    66    65    1
    76    66    67    1
    77    65    62    1
    78    71    70    2
    79   167   166    1
    80   166   165    1
    81    80    70   am
    82    67    61    1
    83   160   162   ar
    84   160   158   ar
    85   165   155   am
    86    70    69    1
    87   157   158    1
    88   157   154    1
    89   162   163   ar
    90   152   149    1
    91    64    63    2
    92   153   154    1
    93   155   154    1
    94   155   156    2
    95   151   150    2
    96   158   159   ar
    97    62    63    1
    98    62    61    1
    99   150   149    1
   100    63    68   am
   101    61    55   am
   102   149   148    1
   103    68    69    1
   104    60    58    1
   105    69    72    1
   106   163   164    1
   107   163   161   ar
   108   159   161   ar
   109    75    77   ar
   110    75    73   ar
   111    57    58    1
   112    57    54    1
   113    77    78   ar
   114    55    54    1
   115    55    56    2
   116    72    73    1
   117    58    59    1
   118    54    53    1
   119    73    74   ar
   120    78    79    1
   121    78    76   ar
   122    74    76   ar
   123    35    32    1
   124    16    15    2
   125    44    43    1
   126    31    32    1
   127     4     3    2
   128    32    33    1
   129    34    33    2
   130    15    14    1
   131    10    11    1
   132    10     9    1
   133    42    43    1
   134    42    41    1
   135    13    11   am
   136    13    14    1
   137     8     6    1
   138    30    28    1
   139    29    28    1
   140     3     9   am
   141     3     2    1
   142    11    12    2
   143    14    17    1
   144    28    25    1
   145     6     5    1
   146     5     2    1
   147     5     7    1
   148    40    41    1
   149    40    37    1
   150    17    18    1
   151     2     1    1
   152    36    37    1
   153    25    24    1
   154    25    26    1
   155    18    19    1
   156    37    38    1
   157    19    20    1
   158    26    27    2
   159    20    21    2
   160    39    38    2
   161    21    23    1
   162    21    22    1
