@<TRIPOS>MOLECULE
tmp/5eodA00.pdb
 142 133 0 0 0
SMALL
GASTEIGER

@<TRIPOS>ATOM
      1  N        -16.1510   33.6030  -10.1760 N.3   100  ASP100     -0.1239
      2  CA       -16.0950   33.1830   -8.7610 C.3   100  ASP100      0.1674
      3  C        -17.4940   33.0740   -8.1680 C.2   100  ASP100      0.2266
      4  O        -18.2270   34.0750   -8.0370 O.2   100  ASP100     -0.2867
      5  CB       -15.2280   34.1240   -7.9020 C.3   100  ASP100      0.1410
      6  CG       -15.1330   33.6870   -6.4160 C.2   100  ASP100      0.3668
      7  OD1      -15.5060   32.5470   -6.0730 O.co2 100  ASP100     -0.2456
      8  OD2      -14.6580   34.4760   -5.5690 O.co2 100  ASP100     -0.2456
      9  N        -19.8380   32.3060   -4.9770 N.3   102  LYS102     -0.1231
     10  CA       -19.6800   32.4870   -3.5220 C.3   102  LYS102      0.1693
     11  C        -20.5770   31.6370   -2.6270 C.2   102  LYS102      0.2593
     12  O        -21.7560   31.4350   -2.9220 O.2   102  LYS102     -0.2718
     13  CB       -19.8400   33.9550   -3.1290 C.3   102  LYS102      0.0285
     14  CG       -19.0400   34.9320   -3.9690 C.3   102  LYS102      0.0035
     15  CD       -17.5400   34.8830   -3.7170 C.3   102  LYS102      0.0206
     16  CE       -16.8800   36.0900   -4.3610 C.3   102  LYS102      0.1093
     17  NZ       -15.5510   36.3830   -3.7650 N.3   102  LYS102     -0.1314
     18  N        -19.9840   31.1610   -1.5290 N.am  103  GLY103     -0.1942
     19  CA       -20.6810   30.4430   -0.4480 C.3   103  GLY103      0.2014
     20  C        -19.7620   30.1390    0.7260 C.2   103  GLY103      0.2639
     21  O        -18.6220   30.5830    0.7400 O.2   103  GLY103     -0.2714
     22  N        -20.2470   29.3700    1.6950 N.am  104  ILE104     -0.1963
     23  CA       -19.4840   29.0040    2.9050 C.3   104  ILE104      0.1727
     24  C        -18.2120   28.2130    2.5280 C.2   104  ILE104      0.2616
     25  O        -18.2920   27.0740    2.0590 O.2   104  ILE104     -0.2715
     26  CB       -20.4030   28.2250    3.9230 C.3   104  ILE104      0.0290
     27  CG1      -21.6610   29.0340    4.3330 C.3   104  ILE104      0.0022
     28  CG2      -19.6460   27.6830    5.1420 C.3   104  ILE104      0.0023
     29  CD1      -21.4490   30.4940    4.7270 C.3   104  ILE104      0.0001
     30  N        -17.0420   28.8190    2.6930 N.am  105  ASN105     -0.1958
     31  CA       -15.8100   28.1520    2.2520 C.3   105  ASN105      0.1819
     32  C        -15.2880   27.2390    3.3550 C.2   105  ASN105      0.2621
     33  O        -15.0040   27.7110    4.4500 O.2   105  ASN105     -0.2715
     34  CB       -14.7460   29.1610    1.8170 C.3   105  ASN105      0.1195
     35  CG       -15.3070   30.2780    0.9450 C.2   105  ASN105      0.2630
     36  OD1      -15.6440   30.0730   -0.2230 O.2   105  ASN105     -0.2716
     37  ND2      -15.4020   31.4750    1.5160 N.am  105  ASN105     -0.0877
     38  N        -15.1590   25.9400    3.0810 N.am  106  TYR106     -0.1960
     39  CA       -14.9450   24.9880    4.1730 C.3   106  TYR106      0.1771
     40  C        -13.7310   24.0250    4.0980 C.2   106  TYR106      0.2620
     41  O        -13.2770   23.5810    5.1440 O.2   106  TYR106     -0.2715
     42  CB       -16.2630   24.2600    4.5290 C.3   106  TYR106      0.0574
     43  CG       -16.6120   23.1930    3.5530 C.ar  106  TYR106     -0.0198
     44  CD1      -16.1240   21.8990    3.7120 C.ar  106  TYR106     -0.0009
     45  CD2      -17.3890   23.4840    2.4270 C.ar  106  TYR106     -0.0009
     46  CE1      -16.4090   20.9150    2.7850 C.ar  106  TYR106      0.0417
     47  CE2      -17.6920   22.5040    1.4940 C.ar  106  TYR106      0.0417
     48  CZ       -17.1900   21.2270    1.6800 C.ar  106  TYR106      0.1957
     49  OH       -17.4640   20.2520    0.7600 O.3   106  TYR106     -0.2866
     50  N        -13.2320   23.6570    2.9150 N.am  107  ASN107     -0.1958
     51  CA       -11.8860   23.0310    2.8190 C.3   107  ASN107      0.1819
     52  C        -11.1520   24.0010    1.9380 C.2   107  ASN107      0.2622
     53  O        -11.7670   24.6360    1.0840 O.2   107  ASN107     -0.2715
     54  CB       -11.8940   21.6080    2.1860 C.3   107  ASN107      0.1195
     55  CG       -10.8960   20.6100    2.8390 C.2   107  ASN107      0.2630
     56  OD1      -10.6850   20.6310    4.0570 O.2   107  ASN107     -0.2716
     57  ND2      -10.2990   19.6990    2.0010 N.am  107  ASN107     -0.0877
     58  N         -9.8570   24.1590    2.1630 N.am  108  SER108     -0.1950
     59  CA        -9.0480   24.9900    1.2890 C.3   108  SER108      0.1924
     60  C         -7.7010   24.3340    0.9890 C.2   108  SER108      0.2314
     61  O         -6.6310   24.8900    1.2550 O.2   108  SER108     -0.2863
     62  CB        -8.8980   26.3910    1.8530 C.3   108  SER108      0.2116
     63  OG        -8.1640   27.1750    0.9420 O.3   108  SER108     -0.2180
     64  N        -14.4490   26.7830   -6.3610 N.3   131  THR131     -0.1218
     65  CA       -13.5660   27.6860   -7.1310 C.3   131  THR131      0.1862
     66  C        -12.1040   27.2060   -7.0330 C.2   131  THR131      0.2287
     67  O        -11.6550   26.7270   -5.9790 O.2   131  THR131     -0.2866
     68  CB       -13.6930   29.1620   -6.7190 C.3   131  THR131      0.1770
     69  OG1      -15.0330   29.4260   -6.3270 O.3   131  THR131     -0.2211
     70  CG2      -13.4030   30.0270   -7.8790 C.3   131  THR131      0.0375
     71  N         -8.1040   28.3540   -8.2490 N.3   133  ALA133     -0.1245
     72  CA        -7.1620   29.3600   -8.7390 C.3   133  ALA133      0.1562
     73  C         -6.0920   28.6960   -9.5950 C.2   133  ALA133      0.2260
     74  O         -5.3080   27.8520   -9.1460 O.2   133  ALA133     -0.2867
     75  CB        -6.5580   30.1730   -7.6000 C.3   133  ALA133      0.0290
     76  N         -2.8770   32.6440  -11.6270 N.3   137  PHE137     -0.1241
     77  CA        -3.4580   33.5720  -10.6360 C.3   137  PHE137      0.1605
     78  C         -2.3430   34.3810   -9.9230 C.2   137  PHE137      0.2264
     79  O         -1.3650   33.7670   -9.4330 O.2   137  PHE137     -0.2867
     80  CB        -4.3710   32.8040   -9.6280 C.3   137  PHE137      0.0534
     81  CG        -5.1790   33.6950   -8.6870 C.ar  137  PHE137     -0.0203
     82  CD1       -6.3060   34.3970   -9.1420 C.ar  137  PHE137     -0.0042
     83  CD2       -4.8380   33.8000   -7.3260 C.ar  137  PHE137     -0.0042
     84  CE1       -7.0490   35.1990   -8.2790 C.ar  137  PHE137     -0.0003
     85  CE2       -5.5760   34.6140   -6.4660 C.ar  137  PHE137     -0.0003
     86  CZ        -6.6870   35.3080   -6.9420 C.ar  137  PHE137     -0.0000
     87  N         -1.7140   36.3510   -6.7180 N.3   139  SER139     -0.1217
     88  CA        -1.1940   35.9450   -5.4000 C.3   139  SER139      0.1889
     89  C         -0.5890   34.5640   -5.4810 C.2   139  SER139      0.2288
     90  O         -1.2740   33.5910   -5.7780 O.2   139  SER139     -0.2866
     91  CB        -2.2740   35.9550   -4.3240 C.3   139  SER139      0.2089
     92  OG        -3.0170   37.1520   -4.3970 O.3   139  SER139     -0.2183
     93  N         -2.0660   31.9630   -3.3150 N.3   142  HIS142     -0.1241
     94  CA        -3.4280   31.4960   -3.6820 C.3   142  HIS142      0.1621
     95  C         -3.5760   30.6190   -4.9430 C.2   142  HIS142      0.2264
     96  O         -4.3690   29.6540   -4.9700 O.2   142  HIS142     -0.2867
     97  CB        -4.3650   32.6960   -3.7910 C.3   142  HIS142      0.0745
     98  CG        -4.5980   33.3950   -2.4940 C.ar  142  HIS142      0.0817
     99  ND1       -4.6740   32.7260   -1.2910 N.ar  142  HIS142     -0.2268
    100  CD2       -4.7970   34.7030   -2.2130 C.ar  142  HIS142      0.1154
    101  CE1       -4.8940   33.5960   -0.3210 C.ar  142  HIS142      0.1986
    102  NE2       -4.9810   34.8010   -0.8560 N.ar  142  HIS142     -0.2212
    103  N         -4.8480   26.8260   -5.2500 N.3   145  ILE145     -0.1245
    104  CA        -5.7350   26.4340   -4.1550 C.3   145  ILE145      0.1561
    105  C         -7.1340   26.1420   -4.6950 C.2   145  ILE145      0.2260
    106  O         -7.6390   26.8820   -5.5370 O.2   145  ILE145     -0.2867
    107  CB        -5.6830   27.4000   -2.9370 C.3   145  ILE145      0.0252
    108  CG1       -4.4950   26.9920   -2.0420 C.3   145  ILE145      0.0019
    109  CG2       -6.9980   27.3870   -2.1430 C.3   145  ILE145      0.0019
    110  CD1       -4.2590   27.8050   -0.7750 C.3   145  ILE145      0.0001
    111  N        -10.7390   25.6270   -3.2210 N.3   147  LEU147     -0.1245
    112  CA       -11.6050   25.7810   -2.0720 C.3   147  LEU147      0.1561
    113  C        -13.0530   25.4540   -2.3970 C.2   147  LEU147      0.2260
    114  O        -13.6340   25.9720   -3.3630 O.2   147  LEU147     -0.2867
    115  CB       -11.4130   27.1360   -1.3600 C.3   147  LEU147      0.0270
    116  CG       -12.2880   28.3740   -1.5220 C.3   147  LEU147      0.0019
    117  CD1      -11.8910   29.4310   -0.5140 C.3   147  LEU147      0.0001
    118  CD2      -12.1730   28.9230   -2.9210 C.3   147  LEU147      0.0001
    119  N        -17.1680   24.8050   -1.3620 N.3   149  LYS149     -0.1245
    120  CA       -18.2010   25.6620   -0.8300 C.3   149  LYS149      0.1561
    121  C        -19.5700   24.9590   -0.7690 C.2   149  LYS149      0.2260
    122  O        -19.8350   23.9970   -1.5080 O.2   149  LYS149     -0.2867
    123  CB       -18.2970   26.9000   -1.6960 C.3   149  LYS149      0.0271
    124  CG       -16.9750   27.3710   -2.2690 C.3   149  LYS149      0.0035
    125  CD       -17.1450   28.7570   -2.8450 C.3   149  LYS149      0.0206
    126  CE       -15.8500   29.2740   -3.4250 C.3   149  LYS149      0.1093
    127  NZ       -15.9470   30.7450   -3.6170 N.3   149  LYS149     -0.1314
    128  N        -13.8250   37.3070  -11.7400 N.3   162  LEU162     -0.1245
    129  CA       -12.4650   37.3610  -11.1850 C.3   162  LEU162      0.1561
    130  C        -11.4870   36.5740  -12.0660 C.2   162  LEU162      0.2260
    131  O        -11.5180   35.3380  -12.1040 O.2   162  LEU162     -0.2867
    132  CB       -12.4110   36.8900   -9.7190 C.3   162  LEU162      0.0270
    133  CG       -11.0160   36.7130   -9.0600 C.3   162  LEU162      0.0019
    134  CD1      -10.4450   38.0060   -8.4730 C.3   162  LEU162      0.0001
    135  CD2      -11.0060   35.6210   -7.9910 C.3   162  LEU162      0.0001
    136  N         -9.5110   32.5540  -12.5530 N.3   165  VAL165     -0.1245
    137  CA       -10.1800   31.6120  -11.6520 C.3   165  VAL165      0.1561
    138  C        -11.2530   30.7960  -12.3990 C.2   165  VAL165      0.2260
    139  O        -11.8370   31.2750  -13.3770 O.2   165  VAL165     -0.2867
    140  CB       -10.6760   32.3430  -10.3820 C.3   165  VAL165      0.0252
    141  CG1      -12.1720   32.6190  -10.4040 C.3   165  VAL165      0.0019
    142  CG2      -10.2620   31.5670   -9.1570 C.3   165  VAL165      0.0019
@<TRIPOS>BOND
     1   139   138    2
     2   136   137    1
     3   138   137    1
     4   131   130    2
     5   130   129    1
     6   128   129    1
     7   137   140    1
     8    76    77    1
     9   129   132    1
    10    77    78    1
    11    77    80    1
    12   141   140    1
    13   140   142    1
    14     1     2    1
    15    78    79    2
    16   132   133    1
    17    80    81    1
    18    73    74    2
    19    73    72    1
    20    82    81   ar
    21    82    84   ar
    22   133   134    1
    23   133   135    1
    24     2     3    1
    25     2     5    1
    26    72    71    1
    27    72    75    1
    28    81    83   ar
    29    84    86   ar
    30     3     4    2
    31     5     6    1
    32    70    68    1
    33    83    85   ar
    34    65    66    1
    35    65    68    1
    36    65    64    1
    37    66    67    2
    38    86    85   ar
    39    68    69    1
    40    87    88    1
    41     6     7   ar
    42     6     8   ar
    43    90    89    2
    44   106   105    2
    45    89    88    1
    46    88    91    1
    47   103   104    1
    48     9    10    1
    49    96    95    2
    50    95    94    1
    51   105   104    1
    52    92    91    1
    53    16    17    1
    54    16    15    1
    55   104   107    1
    56    14    15    1
    57    14    13    1
    58    97    94    1
    59    97    98    1
    60    94    93    1
    61   127   126    1
    62    10    13    1
    63    10    11    1
    64   126   125    1
    65   114   113    2
    66   111   112    1
    67   107   109    1
    68   107   108    1
    69    12    11    2
    70   118   116    1
    71   125   124    1
    72    11    18   am
    73    98   100   ar
    74    98    99   ar
    75   113   112    1
    76   124   123    1
    77   100   102   ar
    78   112   115    1
    79   108   110    1
    80   123   120    1
    81    18    19    1
    82   116   115    1
    83   116   117    1
    84   122   121    2
    85   119   120    1
    86    99   101   ar
    87   102   101   ar
    88   120   121    1
    89    19    20    1
    90    36    35    2
    91    20    21    2
    92    20    22   am
    93    49    48    1
    94    63    62    1
    95    35    37   am
    96    35    34    1
    97    60    61    2
    98    60    59    1
    99    53    52    2
   100    59    62    1
   101    59    58    1
   102    47    48   ar
   103    47    45   ar
   104    48    46   ar
   105    22    23    1
   106    34    31    1
   107    52    58   am
   108    52    51    1
   109    57    55   am
   110    25    24    2
   111    54    51    1
   112    54    55    1
   113    31    30    1
   114    31    32    1
   115    45    43   ar
   116    24    30   am
   117    24    23    1
   118    46    44   ar
   119    51    50    1
   120    55    56    2
   121    23    26    1
   122    50    40   am
   123    38    32   am
   124    38    39    1
   125    32    33    2
   126    43    44   ar
   127    43    42    1
   128    26    27    1
   129    26    28    1
   130    40    39    1
   131    40    41    2
   132    39    42    1
   133    27    29    1
