@<TRIPOS>MOLECULE
tmp/5eolA00.pdb
 169 158 0 0 0
SMALL
GASTEIGER

@<TRIPOS>ATOM
      1  N        -25.0790  -33.6920    4.9240 N.3    12  LEU12      -0.1231
      2  CA       -24.2370  -34.8380    5.2630 C.3    12  LEU12       0.1693
      3  C        -22.9700  -34.4260    6.0110 C.2    12  LEU12       0.2592
      4  O        -22.4940  -35.1520    6.8780 O.2    12  LEU12      -0.2718
      5  CB       -23.8830  -35.6450    4.0070 C.3    12  LEU12       0.0284
      6  CG       -25.0270  -36.3360    3.2530 C.3    12  LEU12       0.0019
      7  CD1      -24.5360  -36.8380    1.9030 C.3    12  LEU12       0.0001
      8  CD2      -25.6380  -37.4720    4.0620 C.3    12  LEU12       0.0001
      9  N        -22.4360  -33.2550    5.6780 N.am   13  GLY13      -0.1957
     10  CA       -21.2300  -32.7370    6.3190 C.3    13  GLY13       0.1869
     11  C        -20.8110  -31.3970    5.7440 C.2    13  GLY13       0.2309
     12  O        -21.2340  -31.0200    4.6440 O.2    13  GLY13      -0.2863
     13  N        -13.9330  -28.3870    2.6990 N.3    17  PHE17      -0.1241
     14  CA       -14.4580  -28.7960    1.3950 C.3    17  PHE17       0.1605
     15  C        -15.7340  -28.0690    0.9480 C.2    17  PHE17       0.2264
     16  O        -16.0990  -28.1370   -0.2230 O.2    17  PHE17      -0.2867
     17  CB       -14.7160  -30.3060    1.3820 C.3    17  PHE17       0.0534
     18  CG       -15.5220  -30.8030    2.5560 C.ar   17  PHE17      -0.0203
     19  CD1      -16.9180  -30.8010    2.5160 C.ar   17  PHE17      -0.0042
     20  CD2      -14.8850  -31.2930    3.7000 C.ar   17  PHE17      -0.0042
     21  CE1      -17.6590  -31.2640    3.5940 C.ar   17  PHE17      -0.0003
     22  CE2      -15.6240  -31.7600    4.7800 C.ar   17  PHE17      -0.0003
     23  CZ       -17.0110  -31.7470    4.7240 C.ar   17  PHE17      -0.0000
     24  N        -21.9220  -30.4320    1.8760 N.3    20  VAL20      -0.1245
     25  CA       -22.4320  -31.5690    1.1010 C.3    20  VAL20       0.1561
     26  C        -23.7750  -32.0580    1.6480 C.2    20  VAL20       0.2260
     27  O        -23.8840  -32.4090    2.8240 O.2    20  VAL20      -0.2867
     28  CB       -21.4170  -32.7360    1.0490 C.3    20  VAL20       0.0252
     29  CG1      -21.9530  -33.8800    0.1950 C.3    20  VAL20       0.0019
     30  CG2      -20.0710  -32.2620    0.5120 C.3    20  VAL20       0.0019
     31  N        -25.2110  -36.9840   -4.1380 N.3    33  ALA33      -0.1245
     32  CA       -24.6490  -36.0590   -3.1660 C.3    33  ALA33       0.1562
     33  C        -24.4710  -34.6930   -3.8220 C.2    33  ALA33       0.2260
     34  O        -23.8940  -34.5820   -4.9030 O.2    33  ALA33      -0.2867
     35  CB       -23.3240  -36.5800   -2.6220 C.3    33  ALA33       0.0290
     36  N        -22.8290  -31.1800   -3.5860 N.3    35  LYS35      -0.1245
     37  CA       -21.7290  -30.4240   -2.9840 C.3    35  LYS35       0.1561
     38  C        -21.7300  -28.9580   -3.4310 C.2    35  LYS35       0.2260
     39  O        -21.7220  -28.6640   -4.6280 O.2    35  LYS35      -0.2867
     40  CB       -20.3850  -31.0900   -3.3120 C.3    35  LYS35       0.0271
     41  CG       -19.1720  -30.3900   -2.7250 C.3    35  LYS35       0.0035
     42  CD       -17.8870  -31.1440   -3.0300 C.3    35  LYS35       0.0206
     43  CE       -16.6990  -30.4640   -2.3710 C.3    35  LYS35       0.1093
     44  NZ       -15.4370  -31.2490   -2.4720 N.3    35  LYS35      -0.1314
     45  N        -11.1250  -29.0860   -9.0450 N.3    57  GLU57      -0.1245
     46  CA       -11.8690  -30.2730   -8.6330 C.3    57  GLU57       0.1567
     47  C        -12.7250  -30.8930   -9.7500 C.2    57  GLU57       0.2260
     48  O        -12.7050  -32.1130   -9.9450 O.2    57  GLU57      -0.2867
     49  CB       -12.7390  -29.9180   -7.4290 C.3    57  GLU57       0.0388
     50  CG       -13.3930  -31.1040   -6.7500 C.3    57  GLU57       0.1160
     51  CD       -14.1790  -30.7070   -5.5130 C.2    57  GLU57       0.3649
     52  OE1      -14.1190  -29.5250   -5.0960 O.co2  57  GLU57      -0.2457
     53  OE2      -14.8610  -31.5870   -4.9570 O.co2  57  GLU57      -0.2457
     54  N        -15.0530  -41.5990   -6.6140 N.3    72  ILE72      -0.1245
     55  CA       -16.3690  -40.9690   -6.6960 C.3    72  ILE72       0.1561
     56  C        -16.6200  -40.4440   -8.1170 C.2    72  ILE72       0.2260
     57  O        -15.7260  -39.8700   -8.7400 O.2    72  ILE72      -0.2867
     58  CB       -16.5120  -39.8360   -5.6430 C.3    72  ILE72       0.0252
     59  CG1      -17.9860  -39.4880   -5.3950 C.3    72  ILE72       0.0019
     60  CG2      -15.6570  -38.6200   -6.0010 C.3    72  ILE72       0.0019
     61  CD1      -18.6680  -40.4330   -4.4300 C.3    72  ILE72       0.0001
     62  N        -22.6380  -35.5510   -7.2240 N.3    88  LEU88      -0.1231
     63  CA       -21.8050  -36.7420   -7.1250 C.3    88  LEU88       0.1693
     64  C        -22.6770  -37.9670   -6.8920 C.2    88  LEU88       0.2592
     65  O        -23.7760  -37.8530   -6.3500 O.2    88  LEU88      -0.2718
     66  CB       -20.7840  -36.5830   -5.9910 C.3    88  LEU88       0.0284
     67  CG       -19.8870  -35.3370   -6.0570 C.3    88  LEU88       0.0019
     68  CD1      -19.3940  -34.9360   -4.6740 C.3    88  LEU88       0.0001
     69  CD2      -18.7210  -35.5310   -7.0180 C.3    88  LEU88       0.0001
     70  N        -22.1910  -39.1340   -7.3160 N.am   89  GLU89      -0.1966
     71  CA       -22.8520  -40.4020   -7.0060 C.3    89  GLU89       0.1733
     72  C        -22.8730  -40.5880   -5.4900 C.2    89  GLU89       0.2616
     73  O        -21.9870  -40.0970   -4.7900 O.2    89  GLU89      -0.2715
     74  CB       -22.1290  -41.5790   -7.6800 C.3    89  GLU89       0.0429
     75  CG       -20.7290  -41.8440   -7.1380 C.3    89  GLU89       0.1163
     76  CD       -20.0830  -43.1120   -7.6720 C.2    89  GLU89       0.3649
     77  OE1      -18.8420  -43.1390   -7.7540 O.co2  89  GLU89      -0.2457
     78  OE2      -20.7980  -44.0820   -8.0010 O.co2  89  GLU89      -0.2457
     79  N        -23.8900  -41.2750   -4.9820 N.am   90  ARG90      -0.1964
     80  CA       -23.9540  -41.5810   -3.5580 C.3    90  ARG90       0.1714
     81  C        -24.3040  -43.0480   -3.3320 C.2    90  ARG90       0.2458
     82  O        -25.4510  -43.4490   -3.5450 O.2    90  ARG90      -0.2730
     83  CB       -24.9460  -40.6570   -2.8380 C.3    90  ARG90       0.0347
     84  CG       -25.1080  -40.9410   -1.3500 C.3    90  ARG90       0.0492
     85  CD       -25.9220  -39.8690   -0.6400 C.3    90  ARG90       0.2205
     86  NE       -27.2710  -39.7140   -1.1870 N.pl3  90  ARG90      -0.0865
     87  CZ       -28.3260  -40.4400   -0.8220 C.cat  90  ARG90       0.5346
     88  NH1      -28.2070  -41.3910    0.0980 N.pl3  90  ARG90       0.1354
     89  NH2      -29.5090  -40.2120   -1.3780 N.pl3  90  ARG90       0.1354
     90  N        -23.3070  -43.8550   -2.9120 N.am   91  PRO91      -0.2727
     91  CA       -23.5370  -45.2390   -2.4850 C.3    91  PRO91       0.1402
     92  C        -24.4200  -45.2750   -1.2430 C.2    91  PRO91       0.2269
     93  O        -24.3870  -44.3460   -0.4270 O.2    91  PRO91      -0.2865
     94  CB       -22.1340  -45.7510   -2.1370 C.3    91  PRO91       0.0296
     95  CG       -21.1860  -44.8030   -2.7810 C.3    91  PRO91       0.0237
     96  CD       -21.8810  -43.4820   -2.8360 C.3    91  PRO91       0.0939
     97  N        -23.6740  -46.3070    3.1980 N.3    94  VAL94      -0.1231
     98  CA       -22.2710  -45.9130    3.1330 C.3    94  VAL94       0.1692
     99  C        -21.8150  -45.3590    4.4900 C.2    94  VAL94       0.2592
    100  O        -22.6350  -44.9030    5.2880 O.2    94  VAL94      -0.2718
    101  CB       -22.0330  -44.9000    1.9730 C.3    94  VAL94       0.0266
    102  CG1      -22.6630  -43.5460    2.2720 C.3    94  VAL94       0.0020
    103  CG2      -20.5560  -44.7450    1.6610 C.3    94  VAL94       0.0020
    104  N        -20.5110  -45.4310    4.7510 N.am   95  GLN95      -0.1966
    105  CA       -19.8950  -44.8000    5.9180 C.3    95  GLN95       0.1733
    106  C        -18.4530  -44.4340    5.5730 C.2    95  GLN95       0.2616
    107  O        -17.7610  -45.2220    4.9260 O.2    95  GLN95      -0.2715
    108  CB       -19.9260  -45.7400    7.1260 C.3    95  GLN95       0.0408
    109  CG       -19.4280  -45.0980    8.4130 C.3    95  GLN95       0.0908
    110  CD       -19.4680  -46.0310    9.6090 C.2    95  GLN95       0.2608
    111  OE1      -19.0290  -47.1780    9.5370 O.2    95  GLN95      -0.2717
    112  NE2      -19.9850  -45.5330   10.7230 N.am   95  GLN95      -0.0878
    113  N        -17.9960  -43.2510    5.9900 N.am   96  ASP96      -0.1971
    114  CA       -16.5930  -42.8830    5.7500 C.3    96  ASP96       0.1709
    115  C        -15.6560  -43.6590    6.6750 C.2    96  ASP96       0.2293
    116  O        -16.0660  -44.1240    7.7450 O.2    96  ASP96      -0.2864
    117  CB       -16.3450  -41.3580    5.7770 C.3    96  ASP96       0.1436
    118  CG       -16.3340  -40.7610    7.1850 C.2    96  ASP96       0.3671
    119  OD1      -15.7290  -41.3320    8.1120 O.co2  96  ASP96      -0.2456
    120  OD2      -16.9250  -39.6810    7.3620 O.co2  96  ASP96      -0.2456
    121  N        -15.2000  -42.4910   10.4440 N.3    99  ASP99      -0.1239
    122  CA       -16.2910  -42.9320   11.3150 C.3    99  ASP99       0.1674
    123  C        -16.1930  -44.4230   11.6040 C.2    99  ASP99       0.2266
    124  O        -16.4080  -44.8590   12.7380 O.2    99  ASP99      -0.2867
    125  CB       -17.6500  -42.6290   10.6770 C.3    99  ASP99       0.1410
    126  CG       -18.0610  -41.1780   10.8230 C.2    99  ASP99       0.3668
    127  OD1      -17.3060  -40.3800   11.4160 O.co2  99  ASP99      -0.2456
    128  OD2      -19.1600  -40.8330   10.3430 O.co2  99  ASP99      -0.2456
    129  N        -11.0730  -39.6960    6.3030 N.3   139  GLU139     -0.1231
    130  CA       -12.2340  -38.8370    6.0190 C.3   139  GLU139      0.1699
    131  C        -12.5830  -38.7410    4.5280 C.2   139  GLU139      0.2592
    132  O        -13.7360  -38.4960    4.1810 O.2   139  GLU139     -0.2718
    133  CB       -12.0250  -37.4260    6.5840 C.3   139  GLU139      0.0402
    134  CG       -12.0500  -37.3440    8.1020 C.3   139  GLU139      0.1161
    135  CD       -11.7000  -35.9600    8.6240 C.2   139  GLU139      0.3649
    136  OE1      -10.5850  -35.4730    8.3550 O.co2 139  GLU139     -0.2457
    137  OE2      -12.5440  -35.3620    9.3180 O.co2 139  GLU139     -0.2457
    138  N        -11.5920  -38.9370    3.6590 N.am  140  ASN140     -0.1974
    139  CA       -11.8100  -38.8780    2.2110 C.3   140  ASN140      0.1688
    140  C        -12.0050  -40.2350    1.5300 C.2   140  ASN140      0.2292
    141  O        -11.8270  -40.3730    0.3160 O.2   140  ASN140     -0.2864
    142  CB       -10.7040  -38.0620    1.5410 C.3   140  ASN140      0.1181
    143  CG       -10.8060  -36.5860    1.8650 C.2   140  ASN140      0.2629
    144  OD1      -11.8940  -36.0830    2.1540 O.2   140  ASN140     -0.2716
    145  ND2       -9.6780  -35.8820    1.8230 N.am  140  ASN140     -0.0877
    146  N        -14.8800  -43.3920    1.3630 N.3   142  LEU142     -0.1245
    147  CA       -16.1960  -43.9350    1.6820 C.3   142  LEU142      0.1561
    148  C        -16.2020  -45.4450    1.5080 C.2   142  LEU142      0.2260
    149  O        -15.6020  -45.9660    0.5620 O.2   142  LEU142     -0.2867
    150  CB       -17.2720  -43.3220    0.7810 C.3   142  LEU142      0.0270
    151  CG       -17.5310  -41.8130    0.8250 C.3   142  LEU142      0.0019
    152  CD1      -18.6910  -41.4780   -0.0980 C.3   142  LEU142      0.0001
    153  CD2      -17.8130  -41.3290    2.2430 C.3   142  LEU142      0.0001
    154  N        -12.9920  -39.6790   -2.2870 N.3   153  ILE153     -0.1231
    155  CA       -13.7940  -38.4710   -2.4770 C.3   153  ILE153      0.1692
    156  C        -12.9340  -37.2280   -2.2720 C.2   153  ILE153      0.2592
    157  O        -11.7760  -37.3270   -1.8510 O.2   153  ILE153     -0.2718
    158  CB       -15.0230  -38.4200   -1.5280 C.3   153  ILE153      0.0266
    159  CG1      -14.5840  -38.4230   -0.0520 C.3   153  ILE153      0.0019
    160  CG2      -15.9850  -39.5610   -1.8410 C.3   153  ILE153      0.0020
    161  CD1      -15.6860  -38.1110    0.9420 C.3   153  ILE153      0.0001
    162  N        -13.5240  -36.0750   -2.5880 N.am  154  ASP154     -0.1974
    163  CA       -12.9460  -34.7440   -2.3760 C.3   154  ASP154      0.1709
    164  C        -11.6250  -34.3670   -3.0330 C.2   154  ASP154      0.2293
    165  O        -10.5770  -34.3700   -2.3890 O.2   154  ASP154     -0.2864
    166  CB       -12.8240  -34.4180   -0.8890 C.3   154  ASP154      0.1436
    167  CG       -12.7720  -32.9180   -0.6200 C.2   154  ASP154      0.3671
    168  OD1      -12.7300  -32.1060   -1.5780 O.co2 154  ASP154     -0.2456
    169  OD2      -12.7860  -32.5490    0.5670 O.co2 154  ASP154     -0.2456
@<TRIPOS>BOND
     1    48    47    2
     2    47    46    1
     3    45    46    1
     4    57    56    2
     5    46    49    1
     6    56    55    1
     7    78    76   ar
     8    77    76   ar
     9    74    75    1
    10    74    71    1
    11    76    75    1
    12    49    50    1
    13    70    71    1
    14    70    64   am
    15    62    63    1
    16    63    64    1
    17    63    66    1
    18    69    67    1
    19    71    72    1
    20    64    65    2
    21    50    51    1
    22    55    54    1
    23    55    58    1
    24    67    66    1
    25    67    68    1
    26    60    58    1
    27    58    59    1
    28    51    52   ar
    29    51    53   ar
    30    72    79   am
    31    72    73    2
    32    59    61    1
    33    79    80    1
    34    34    33    2
    35    39    38    2
    36    31    32    1
    37    33    32    1
    38    36    37    1
    39    80    81    1
    40    80    83    1
    41    82    81    2
    42    38    37    1
    43    81    90   am
    44    40    37    1
    45    40    41    1
    46    32    35    1
    47   164   165    2
    48   164   163    1
    49    42    41    1
    50    42    43    1
    51    90    96    1
    52    90    91    1
    53    83    84    1
    54    96    95    1
    55    95    94    1
    56   162   163    1
    57   162   156   am
    58    91    94    1
    59    91    92    1
    60   155   154    1
    61   155   156    1
    62   155   158    1
    63    44    43    1
    64   163   166    1
    65   156   157    2
    66   160   158    1
    67   168   167   ar
    68   158   159    1
    69    89    87    1
    70    84    85    1
    71    92    93    2
    72    86    87    2
    73    86    85    1
    74   166   167    1
    75    87    88    1
    76   167   169   ar
    77    16    15    2
    78   152   151    1
    79   159   161    1
    80    29    28    1
    81   141   140    2
    82    30    28    1
    83   149   148    2
    84   150   151    1
    85   150   147    1
    86   151   153    1
    87    15    14    1
    88    28    25    1
    89    25    26    1
    90    25    24    1
    91   146   147    1
    92    17    14    1
    93    17    18    1
    94    14    13    1
    95   148   147    1
    96   140   139    1
    97   142   143    1
    98   142   139    1
    99    26    27    2
   100   103   101    1
   101   145   143   am
   102   143   144    2
   103     7     6    1
   104   101   102    1
   105   101    98    1
   106   139   138    1
   107    19    18   ar
   108    19    21   ar
   109    18    20   ar
   110    98    97    1
   111    98    99    1
   112     6     5    1
   113     6     8    1
   114    21    23   ar
   115   138   131   am
   116    20    22   ar
   117     5     2    1
   118   132   131    2
   119    99   104   am
   120    99   100    2
   121   131   130    1
   122    12    11    2
   123    23    22   ar
   124   104   105    1
   125     1     2    1
   126   107   106    2
   127     2     3    1
   128   106   105    1
   129   106   113   am
   130     9     3   am
   131     9    10    1
   132    11    10    1
   133   114   117    1
   134   114   113    1
   135   114   115    1
   136   117   118    1
   137   105   108    1
   138     3     4    2
   139   130   129    1
   140   130   133    1
   141   133   134    1
   142   115   116    2
   143   108   109    1
   144   118   120   ar
   145   118   119   ar
   146   134   135    1
   147   136   135   ar
   148   109   110    1
   149   135   137   ar
   150   111   110    2
   151   110   112   am
   152   128   126   ar
   153   121   122    1
   154   125   126    1
   155   125   122    1
   156   126   127   ar
   157   122   123    1
   158   123   124    2
