@<TRIPOS>MOLECULE
tmp/5eomI01.pdb
 129 122 0 0 0
SMALL
GASTEIGER

@<TRIPOS>ATOM
      1  N        106.0610   73.5800   19.3810 N.3    25  ARG25      -0.1231
      2  CA       106.5670   74.4150   20.4660 C.3    25  ARG25       0.1694
      3  C        107.9830   74.9020   20.1760 C.2    25  ARG25       0.2592
      4  O        108.2970   76.0830   20.3670 O.2    25  ARG25      -0.2718
      5  CB       106.5300   73.6360   21.7810 C.3    25  ARG25       0.0321
      6  CG       107.3350   74.2800   22.8890 C.3    25  ARG25       0.0489
      7  CD       107.5060   73.3500   24.0730 C.3    25  ARG25       0.2205
      8  NE       108.0870   74.0560   25.2100 N.pl3  25  ARG25      -0.0865
      9  CZ       109.3780   74.3480   25.3260 C.cat  25  ARG25       0.5346
     10  NH1      110.2270   73.9920   24.3730 N.pl3  25  ARG25       0.1354
     11  NH2      109.8200   74.9990   26.3930 N.pl3  25  ARG25       0.1354
     12  N        108.8530   73.9990   19.7190 N.am   26  LYS26      -0.1966
     13  CA       110.2500   74.3480   19.4760 C.3    26  LYS26       0.1728
     14  C        110.3620   75.4760   18.4570 C.2    26  LYS26       0.2616
     15  O        110.9670   76.5200   18.7270 O.2    26  LYS26      -0.2715
     16  CB       111.0170   73.1080   19.0050 C.3    26  LYS26       0.0311
     17  CG       112.4800   73.0510   19.4210 C.3    26  LYS26       0.0038
     18  CD       113.2100   71.9050   18.7220 C.3    26  LYS26       0.0206
     19  CE       113.1930   70.6180   19.5280 C.3    26  LYS26       0.1093
     20  NZ       114.5430   70.3150   20.0860 N.3    26  LYS26      -0.1314
     21  N        109.7620   75.2890   17.2790 N.am   27  ALA27      -0.1977
     22  CA       109.8900   76.2820   16.2180 C.3    27  ALA27       0.1597
     23  C        109.1080   77.5540   16.5230 C.2    27  ALA27       0.2287
     24  O        109.4860   78.6340   16.0550 O.2    27  ALA27      -0.2864
     25  CB       109.4350   75.6870   14.8850 C.3    27  ALA27       0.0319
     26  N        108.4580   78.9220   19.7130 N.3    29  ILE29      -0.1231
     27  CA       109.2940   79.6610   20.6530 C.3    29  ILE29       0.1692
     28  C        110.4960   80.2530   19.9310 C.2    29  ILE29       0.2591
     29  O        110.8880   81.3970   20.1850 O.2    29  ILE29      -0.2718
     30  CB       109.7250   78.7540   21.8230 C.3    29  ILE29       0.0266
     31  CG1      108.5310   78.4210   22.7200 C.3    29  ILE29       0.0019
     32  CG2      110.8340   79.4070   22.6400 C.3    29  ILE29       0.0020
     33  CD1      108.8920   77.5760   23.9250 C.3    29  ILE29       0.0001
     34  N        111.0710   79.5010   18.9890 N.am   30  ALA30      -0.1980
     35  CA       112.2950   79.9360   18.3230 C.3    30  ALA30       0.1597
     36  C        112.0420   81.1180   17.3920 C.2    30  ALA30       0.2287
     37  O        112.7810   82.1070   17.4170 O.2    30  ALA30      -0.2864
     38  CB       112.9180   78.7700   17.5560 C.3    30  ALA30       0.0319
     39  N        111.5290   84.0590   19.6130 N.3    33  ILE33      -0.1231
     40  CA       112.4630   84.2100   20.7280 C.3    33  ILE33       0.1692
     41  C        113.2920   85.4870   20.6200 C.2    33  ILE33       0.2591
     42  O        113.6410   86.0810   21.6430 O.2    33  ILE33      -0.2718
     43  CB       113.3710   82.9710   20.8690 C.3    33  ILE33       0.0266
     44  CG1      114.0650   82.9760   22.2300 C.3    33  ILE33       0.0019
     45  CG2      114.4170   82.9100   19.7780 C.3    33  ILE33       0.0020
     46  CD1      114.6990   81.6580   22.5880 C.3    33  ILE33       0.0001
     47  N        113.6220   85.9330   19.4080 N.am   34  ARG34      -0.1980
     48  CA       114.3920   87.1590   19.2400 C.3    34  ARG34       0.1597
     49  C        113.6600   88.1890   18.3920 C.2    34  ARG34       0.2287
     50  O        114.2440   89.2250   18.0520 O.2    34  ARG34      -0.2864
     51  CB       115.7710   86.8580   18.6500 C.3    34  ARG34       0.0334
     52  CG       116.4390   85.6340   19.2530 C.3    34  ARG34       0.0492
     53  CD       117.0700   85.8570   20.6230 C.3    34  ARG34       0.2205
     54  NE       117.5490   84.5970   21.1860 N.pl3  34  ARG34      -0.0865
     55  CZ       118.4770   84.4930   22.1320 C.cat  34  ARG34       0.5346
     56  NH1      119.0540   85.5770   22.6330 N.pl3  34  ARG34       0.1354
     57  NH2      118.8430   83.2940   22.5630 N.pl3  34  ARG34       0.1354
     58  N        121.8770   81.9230   20.0890 N.3    53  TYR53      -0.1241
     59  CA       122.4740   83.0820   20.7410 C.3    53  TYR53       0.1605
     60  C        123.0080   82.6550   22.1030 C.2    53  TYR53       0.2264
     61  O        122.2540   82.1870   22.9570 O.2    53  TYR53      -0.2867
     62  CB       121.4640   84.2230   20.8970 C.3    53  TYR53       0.0534
     63  CG       120.6630   84.5660   19.6520 C.ar   53  TYR53      -0.0201
     64  CD1      119.7340   83.6730   19.1270 C.ar   53  TYR53      -0.0009
     65  CD2      120.8090   85.7970   19.0260 C.ar   53  TYR53      -0.0009
     66  CE1      119.0040   83.9800   18.0000 C.ar   53  TYR53       0.0417
     67  CE2      120.0710   86.1180   17.9000 C.ar   53  TYR53       0.0417
     68  CZ       119.1700   85.2050   17.3930 C.ar   53  TYR53       0.1957
     69  OH       118.4300   85.5140   16.2740 O.3    53  TYR53      -0.2866
     70  N        124.3140   82.2060   25.7970 N.3    55  GLY55      -0.1210
     71  CA       124.0260   82.7660   27.1020 C.3    55  GLY55       0.1956
     72  C        122.5790   83.1120   27.3660 C.2    55  GLY55       0.2612
     73  O        122.3050   84.0350   28.1380 O.2    55  GLY55      -0.2717
     74  N        121.6370   82.3970   26.7530 N.am   56  LEU56      -0.1965
     75  CA       120.2180   82.6270   26.9800 C.3    56  LEU56       0.1728
     76  C        119.5370   81.3180   27.3510 C.2    56  LEU56       0.2616
     77  O        119.9090   80.2460   26.8650 O.2    56  LEU56      -0.2715
     78  CB       119.5320   83.2400   25.7440 C.3    56  LEU56       0.0311
     79  CG       118.0140   83.4430   25.8480 C.3    56  LEU56       0.0022
     80  CD1      117.5980   84.8090   25.3350 C.3    56  LEU56       0.0001
     81  CD2      117.2430   82.3350   25.1310 C.3    56  LEU56       0.0001
     82  N        118.5300   81.4190   28.2160 N.am   57  GLU57      -0.1963
     83  CA       117.7080   80.2820   28.5960 C.3    57  GLU57       0.1733
     84  C        116.2370   80.6310   28.4240 C.2    57  GLU57       0.2616
     85  O        115.8380   81.7950   28.5350 O.2    57  GLU57      -0.2715
     86  CB       117.9800   79.8500   30.0410 C.3    57  GLU57       0.0429
     87  CG       119.4300   79.4830   30.3080 C.3    57  GLU57       0.1163
     88  CD       119.6230   78.8050   31.6490 C.2    57  GLU57       0.3649
     89  OE1      118.9690   77.7690   31.8920 O.co2  57  GLU57      -0.2457
     90  OE2      120.4220   79.3120   32.4630 O.co2  57  GLU57      -0.2457
     91  N        115.4350   79.6080   28.1440 N.am   58  VAL58      -0.1977
     92  CA       113.9940   79.7500   27.9700 C.3    58  VAL58       0.1596
     93  C        113.3130   79.2140   29.2220 C.2    58  VAL58       0.2287
     94  O        113.4410   78.0280   29.5470 O.2    58  VAL58      -0.2864
     95  CB       113.5040   79.0120   26.7150 C.3    58  VAL58       0.0276
     96  CG1      112.0270   79.2930   26.4730 C.3    58  VAL58       0.0022
     97  CG2      114.3360   79.4060   25.5040 C.3    58  VAL58       0.0022
     98  N        118.5170   65.2500   24.5750 N.3   175  LYS175     -0.1245
     99  CA       117.8210   66.4980   24.2840 C.3   175  LYS175      0.1561
    100  C        116.3700   66.2410   23.9010 C.2   175  LYS175      0.2260
    101  O        115.4760   67.0120   24.2710 O.2   175  LYS175     -0.2867
    102  CB       118.5410   67.2600   23.1710 C.3   175  LYS175      0.0271
    103  CG       119.9320   67.7560   23.5410 C.3   175  LYS175      0.0035
    104  CD       120.0320   69.2640   23.3750 C.3   175  LYS175      0.0206
    105  CE       119.1300   69.9830   24.3660 C.3   175  LYS175      0.1093
    106  NZ       118.4320   71.1430   23.7460 N.3   175  LYS175     -0.1314
    107  N        114.4330   65.7690   26.9830 N.3   178  LEU178     -0.1231
    108  CA       114.2280   67.0670   27.6150 C.3   178  LEU178      0.1693
    109  C        113.1480   67.8680   26.8980 C.2   178  LEU178      0.2592
    110  O        112.3150   68.5150   27.5440 O.2   178  LEU178     -0.2718
    111  CB       115.5460   67.8420   27.6460 C.3   178  LEU178      0.0284
    112  CG       115.5160   69.2400   28.2650 C.3   178  LEU178      0.0019
    113  CD1      114.9260   69.1880   29.6640 C.3   178  LEU178      0.0001
    114  CD2      116.9120   69.8450   28.2910 C.3   178  LEU178      0.0001
    115  N        113.1390   67.8250   25.5620 N.am  179  SER179     -0.1952
    116  CA       112.1510   68.5860   24.8020 C.3   179  SER179      0.1924
    117  C        110.7380   68.0870   25.0730 C.2   179  SER179      0.2314
    118  O        109.8050   68.8880   25.2130 O.2   179  SER179     -0.2863
    119  CB       112.4670   68.5150   23.3070 C.3   179  SER179      0.2116
    120  OG       113.6790   69.1840   23.0080 O.3   179  SER179     -0.2180
    121  N        109.9260   69.3200   28.5900 N.3   182  LYS182     -0.1245
    122  CA       109.5910   70.7390   28.5180 C.3   182  LYS182      0.1561
    123  C        108.2150   70.9480   27.9030 C.2   182  LYS182      0.2260
    124  O        107.4160   71.7460   28.4080 O.2   182  LYS182     -0.2867
    125  CB       110.6510   71.4960   27.7180 C.3   182  LYS182      0.0271
    126  CG       111.9300   71.7850   28.4820 C.3   182  LYS182      0.0035
    127  CD       113.0040   72.3430   27.5580 C.3   182  LYS182      0.0206
    128  CE       114.2760   72.6680   28.3230 C.3   182  LYS182      0.1093
    129  NZ       115.3990   73.0190   27.4150 N.3   182  LYS182     -0.1314
@<TRIPOS>BOND
     1    25    22    1
     2    24    23    2
     3    22    23    1
     4    22    21    1
     5    69    68    1
     6    21    14   am
     7    36    37    2
     8    36    35    1
     9    68    67   ar
    10    68    66   ar
    11    38    35    1
    12    67    65   ar
    13    66    64   ar
    14    50    49    2
    15    35    34    1
    16    49    48    1
    17    14    15    2
    18    14    13    1
    19    51    48    1
    20    51    52    1
    21    18    17    1
    22    18    19    1
    23    34    28   am
    24    16    17    1
    25    16    13    1
    26    65    63   ar
    27    64    63   ar
    28    48    47    1
    29    52    53    1
    30     1     2    1
    31    47    41   am
    32    13    12    1
    33    19    20    1
    34    39    40    1
    35    63    62    1
    36    26    27    1
    37    12     3   am
    38    45    43    1
    39    28    29    2
    40    28    27    1
    41    58    59    1
    42     3     4    2
    43     3     2    1
    44     2     5    1
    45    41    40    1
    46    41    42    2
    47    53    54    1
    48    27    30    1
    49    40    43    1
    50    59    62    1
    51    59    60    1
    52    43    44    1
    53    54    55    2
    54     5     6    1
    55    30    32    1
    56    30    31    1
    57    60    61    2
    58    55    57    1
    59    55    56    1
    60    44    46    1
    61    31    33    1
    62     6     7    1
    63   120   119    1
    64   102   103    1
    65   102    99    1
    66   119   116    1
    67   104   103    1
    68   104   105    1
    69   106   105    1
    70   100   101    2
    71   100    99    1
    72     7     8    1
    73    99    98    1
    74    10     9    1
    75   116   117    1
    76   116   115    1
    77   117   118    2
    78    81    79    1
    79     8     9    2
    80     9    11    1
    81    80    79    1
    82    97    95    1
    83   115   109   am
    84    78    79    1
    85    78    75    1
    86    70    71    1
    87    96    95    1
    88    95    92    1
    89    74    75    1
    90    74    72   am
    91    77    76    2
    92   109   110    2
    93   109   108    1
    94    75    76    1
    95   107   108    1
    96    71    72    1
    97    76    82   am
    98    72    73    2
    99   129   128    1
   100   127   128    1
   101   127   126    1
   102   108   111    1
   103   111   112    1
   104   125   126    1
   105   125   122    1
   106   123   124    2
   107   123   122    1
   108    92    91    1
   109    92    93    1
   110    91    84   am
   111    82    83    1
   112   112   114    1
   113   112   113    1
   114    84    85    2
   115    84    83    1
   116   122   121    1
   117    83    86    1
   118    93    94    2
   119    86    87    1
   120    87    88    1
   121    88    89   ar
   122    88    90   ar
