@<TRIPOS>MOLECULE
tmp/5eomJ01.pdb
 111 103 0 0 0
SMALL
GASTEIGER

@<TRIPOS>ATOM
      1  N        177.0890   14.2120    6.2030 N.3    26  ARG26      -0.1231
      2  CA       176.5110   12.9250    6.5840 C.3    26  ARG26       0.1694
      3  C        175.4000   12.5180    5.6260 C.2    26  ARG26       0.2591
      4  O        175.3340   11.3590    5.1960 O.2    26  ARG26      -0.2718
      5  CB       175.9890   12.9840    8.0210 C.3    26  ARG26       0.0321
      6  CG       175.2980   11.7130    8.4970 C.3    26  ARG26       0.0489
      7  CD       174.7230   11.8780    9.9080 C.3    26  ARG26       0.2205
      8  NE       174.0290   10.6770   10.3670 N.pl3  26  ARG26      -0.0865
      9  CZ       172.7900   10.3490   10.0140 C.cat  26  ARG26       0.5346
     10  NH1      172.0560   11.1960    9.3070 N.pl3  26  ARG26       0.1354
     11  NH2      172.2480    9.2260   10.4660 N.pl3  26  ARG26       0.1354
     12  N        174.5190   13.4590    5.2730 N.am   27  LYS27      -0.1980
     13  CA       173.4440   13.1500    4.3370 C.3    27  LYS27       0.1596
     14  C        173.9920   12.7050    2.9870 C.2    27  LYS27       0.2287
     15  O        173.4590   11.7760    2.3710 O.2    27  LYS27      -0.2864
     16  CB       172.5230   14.3590    4.1620 C.3    27  LYS27       0.0298
     17  CG       171.7320   14.7390    5.3990 C.3    27  LYS27       0.0038
     18  CD       170.8400   15.9370    5.1110 C.3    27  LYS27       0.0206
     19  CE       170.0820   16.3860    6.3460 C.3    27  LYS27       0.1093
     20  NZ       168.9380   17.2600    5.9750 N.3    27  LYS27      -0.1314
     21  N        175.7990    9.0980    3.3500 N.3    30  ILE30      -0.1231
     22  CA       174.8290    8.0240    3.5240 C.3    30  ILE30       0.1692
     23  C        173.9930    7.8490    2.2600 C.2    30  ILE30       0.2591
     24  O        173.6330    6.7270    1.8920 O.2    30  ILE30      -0.2718
     25  CB       173.9690    8.2960    4.7730 C.3    30  ILE30       0.0266
     26  CG1      174.8520    8.2490    6.0240 C.3    30  ILE30       0.0019
     27  CG2      172.8370    7.2850    4.8900 C.3    30  ILE30       0.0020
     28  CD1      174.1060    8.4460    7.3270 C.3    30  ILE30       0.0001
     29  N        173.6820    8.9510    1.5680 N.am   31  ALA31      -0.1980
     30  CA       172.9660    8.8530    0.2950 C.3    31  ALA31       0.1597
     31  C        173.7670    8.0650   -0.7350 C.2    31  ALA31       0.2287
     32  O        173.2060    7.2650   -1.4930 O.2    31  ALA31      -0.2864
     33  CB       172.6420   10.2470   -0.2410 C.3    31  ALA31       0.0319
     34  N        173.5920    4.4860    0.3710 N.3    34  ILE34      -0.1245
     35  CA       172.2460    3.9550    0.1730 C.3    34  ILE34       0.1561
     36  C        172.0170    3.5760   -1.2820 C.2    34  ILE34       0.2260
     37  O        171.3360    2.5850   -1.5740 O.2    34  ILE34      -0.2867
     38  CB       171.2010    4.9740    0.6730 C.3    34  ILE34       0.0252
     39  CG1      171.1030    4.9230    2.1970 C.3    34  ILE34       0.0019
     40  CG2      169.8480    4.7530    0.0170 C.3    34  ILE34       0.0019
     41  CD1      170.0820    5.8570    2.7660 C.3    34  ILE34       0.0001
     42  N        162.9910   10.9530   -4.4690 N.3    64  ASN64      -0.1225
     43  CA       164.3890   10.9860   -4.0390 C.3    64  ASN64       0.1785
     44  C        164.6260   10.2340   -2.7300 C.2    64  ASN64       0.2597
     45  O        165.6650   10.4180   -2.0860 O.2    64  ASN64      -0.2718
     46  CB       164.8930   12.4330   -3.9260 C.3    64  ASN64       0.1169
     47  CG       166.4040   12.5430   -4.0210 C.2    64  ASN64       0.2627
     48  OD1      167.1060   11.5470   -4.1950 O.2    64  ASN64      -0.2716
     49  ND2      166.9120   13.7660   -3.9180 N.am   64  ASN64      -0.0877
     50  N        163.6840    9.3830   -2.3190 N.am   65  ARG65      -0.1966
     51  CA       163.8150    8.5920   -1.1030 C.3    65  ARG65       0.1729
     52  C        163.2650    7.1950   -1.3530 C.2    65  ARG65       0.2616
     53  O        162.2960    7.0200   -2.0960 O.2    65  ARG65      -0.2715
     54  CB       163.0770    9.2320    0.0830 C.3    65  ARG65       0.0348
     55  CG       163.6260   10.5770    0.5370 C.3    65  ARG65       0.0492
     56  CD       163.9700   10.5410    2.0160 C.3    65  ARG65       0.2205
     57  NE       163.0310    9.7100    2.7650 N.pl3  65  ARG65      -0.0865
     58  CZ       163.2060    9.3350    4.0270 C.cat  65  ARG65       0.5346
     59  NH1      162.3010    8.5730    4.6270 N.pl3  65  ARG65       0.1354
     60  NH2      164.2880    9.7180    4.6910 N.pl3  65  ARG65       0.1354
     61  N        163.8890    6.2020   -0.7200 N.am   66  TYR66      -0.1974
     62  CA       163.5050    4.8030   -0.8880 C.3    66  TYR66       0.1639
     63  C        162.4720    4.4150    0.1650 C.2    66  TYR66       0.2290
     64  O        162.7560    4.4570    1.3660 O.2    66  TYR66      -0.2864
     65  CB       164.7280    3.8900   -0.7880 C.3    66  TYR66       0.0560
     66  CG       165.6850    3.9870   -1.9560 C.ar   66  TYR66      -0.0198
     67  CD1      165.5020    3.2120   -3.0940 C.ar   66  TYR66      -0.0009
     68  CD2      166.7780    4.8420   -1.9150 C.ar   66  TYR66      -0.0009
     69  CE1      166.3770    3.2910   -4.1620 C.ar   66  TYR66       0.0417
     70  CE2      167.6590    4.9290   -2.9790 C.ar   66  TYR66       0.0417
     71  CZ       167.4520    4.1510   -4.0990 C.ar   66  TYR66       0.1957
     72  OH       168.3250    4.2330   -5.1600 O.3    66  TYR66      -0.2866
     73  N        162.9880    2.0130    3.7380 N.3    69  LEU69      -0.1245
     74  CA       164.3850    1.9780    4.1490 C.3    69  LEU69       0.1561
     75  C        164.6030    2.8210    5.4020 C.2    69  LEU69       0.2260
     76  O        164.1310    3.9610    5.4820 O.2    69  LEU69      -0.2867
     77  CB       165.2700    2.4730    3.0030 C.3    69  LEU69       0.0270
     78  CG       166.7680    2.7050    3.1930 C.3    69  LEU69       0.0019
     79  CD1      167.4620    1.4640    3.7090 C.3    69  LEU69       0.0001
     80  CD2      167.3530    3.1260    1.8630 C.3    69  LEU69       0.0001
     81  N        167.7240    4.1570    8.1350 N.3    71  VAL71      -0.1245
     82  CA       169.1360    4.3340    8.4480 C.3    71  VAL71       0.1561
     83  C        169.3240    4.1140    9.9430 C.2    71  VAL71       0.2260
     84  O        168.6790    4.7720   10.7670 O.2    71  VAL71      -0.2867
     85  CB       169.6380    5.7240    8.0290 C.3    71  VAL71       0.0252
     86  CG1      171.1060    5.8780    8.3980 C.3    71  VAL71       0.0019
     87  CG2      169.4370    5.9410    6.5290 C.3    71  VAL71       0.0019
     88  N        163.0920   18.7170   11.9930 N.3   242  LYS242     -0.1245
     89  CA       163.9300   17.7790   11.2500 C.3   242  LYS242      0.1561
     90  C        165.4030   18.1580   11.3280 C.2   242  LYS242      0.2260
     91  O        166.2600   17.2900   11.5280 O.2   242  LYS242     -0.2867
     92  CB       163.4750   17.7020    9.7930 C.3   242  LYS242      0.0271
     93  CG       162.2860   16.7860    9.5540 C.3   242  LYS242      0.0035
     94  CD       162.6780   15.3270    9.7150 C.3   242  LYS242      0.0206
     95  CE       163.8370   14.9610    8.7980 C.3   242  LYS242      0.1093
     96  NZ       164.9880   14.4000    9.5640 N.3   242  LYS242     -0.1314
     97  N        168.4130   15.9160   12.6230 N.3   246  SER246     -0.1217
     98  CA       169.6300   15.6330   11.8640 C.3   246  SER246      0.1889
     99  C        170.8810   15.9320   12.6810 C.2   246  SER246      0.2288
    100  O        171.8430   15.1550   12.6620 O.2   246  SER246     -0.2866
    101  CB       169.6410   16.4330   10.5600 C.3   246  SER246      0.2089
    102  OG       168.6270   15.9900    9.6740 O.3   246  SER246     -0.2183
    103  N        171.3610   13.0670   15.2100 N.3   249  LYS249     -0.1245
    104  CA       171.9040   11.8540   14.6020 C.3   249  LYS249      0.1561
    105  C        173.3810   12.0120   14.2730 C.2   249  LYS249      0.2260
    106  O        174.1560   11.0530   14.3820 O.2   249  LYS249     -0.2867
    107  CB       171.1360   11.4990   13.3300 C.3   249  LYS249      0.0271
    108  CG       169.7030   11.0570   13.5220 C.3   249  LYS249      0.0035
    109  CD       169.0230   11.0550   12.1660 C.3   249  LYS249      0.0206
    110  CE       167.6110   10.5130   12.2140 C.3   249  LYS249      0.1093
    111  NZ       167.0200   10.4960   10.8430 N.3   249  LYS249     -0.1314
@<TRIPOS>BOND
     1    72    71    1
     2    42    43    1
     3    48    47    2
     4    69    71   ar
     5    69    67   ar
     6    71    70   ar
     7    43    46    1
     8    43    44    1
     9    47    46    1
    10    47    49   am
    11    67    66   ar
    12    70    68   ar
    13    44    50   am
    14    44    45    2
    15    50    51    1
    16    53    52    2
    17    66    68   ar
    18    66    65    1
    19    37    36    2
    20    32    31    2
    21    52    51    1
    22    52    61   am
    23    36    35    1
    24    51    54    1
    25    62    65    1
    26    62    61    1
    27    62    63    1
    28    31    30    1
    29    33    30    1
    30    40    38    1
    31    54    55    1
    32    63    64    2
    33    35    34    1
    34    35    38    1
    35    30    29    1
    36    55    56    1
    37    38    39    1
    38    29    23   am
    39    80    78    1
    40    24    23    2
    41    56    57    1
    42    39    41    1
    43    23    22    1
    44    15    14    2
    45    57    58    2
    46    14    13    1
    47    77    78    1
    48    77    74    1
    49    78    79    1
    50    21    22    1
    51    22    25    1
    52    73    74    1
    53    58    59    1
    54    58    60    1
    55    74    75    1
    56    16    13    1
    57    16    17    1
    58    13    12    1
    59    25    27    1
    60    25    26    1
    61    18    17    1
    62    18    19    1
    63     4     3    2
    64    12     3   am
    65    75    76    2
    66     3     2    1
    67    20    19    1
    68    26    28    1
    69     1     2    1
    70    87    85    1
    71     2     5    1
    72     5     6    1
    73    85    86    1
    74    85    82    1
    75    81    82    1
    76    82    83    1
    77     6     7    1
    78    95    96    1
    79    95    94    1
    80    10     9    1
    81    93    94    1
    82    93    92    1
    83   102   101    1
    84    92    89    1
    85     7     8    1
    86    83    84    2
    87     9     8    2
    88     9    11    1
    89   101    98    1
    90   111   110    1
    91    89    90    1
    92    89    88    1
    93    90    91    2
    94    98    97    1
    95    98    99    1
    96   109   110    1
    97   109   108    1
    98   100    99    2
    99   107   108    1
   100   107   104    1
   101   105   106    2
   102   105   104    1
   103   104   103    1
