@<TRIPOS>MOLECULE
tmp/5eooA01.pdb
 101 93 0 0 0
SMALL
GASTEIGER

@<TRIPOS>ATOM
      1  N         -4.8710    6.4440   51.8910 N.3    42  SER42      -0.1217
      2  CA        -4.8090    5.2200   52.7130 C.3    42  SER42       0.1889
      3  C         -4.4350    3.9490   51.9610 C.2    42  SER42       0.2288
      4  O         -4.2620    2.9160   52.5930 O.2    42  SER42      -0.2866
      5  CB        -6.1240    4.9670   53.4450 C.3    42  SER42       0.2089
      6  OG        -6.3780    5.9910   54.3870 O.3    42  SER42      -0.2183
      7  N         -1.6120    1.6760   53.2560 N.3    45  LYS45      -0.1245
      8  CA        -1.7410    0.7660   54.3940 C.3    45  LYS45       0.1561
      9  C         -1.6180   -0.6990   53.9730 C.2    45  LYS45       0.2260
     10  O         -1.2370   -1.5480   54.7780 O.2    45  LYS45      -0.2867
     11  CB        -3.0730    1.0260   55.1380 C.3    45  LYS45       0.0271
     12  CG        -3.0920    2.4300   55.7520 C.3    45  LYS45       0.0035
     13  CD        -4.4590    2.8770   56.2740 C.3    45  LYS45       0.0206
     14  CE        -4.3960    4.3130   56.7970 C.3    45  LYS45       0.1093
     15  NZ        -5.7150    4.9460   56.9810 N.3    45  LYS45      -0.1314
     16  N         -8.1060   11.7450   64.2740 N.3    76  GLU76      -0.1231
     17  CA        -9.5000   12.1070   64.1500 C.3    76  GLU76       0.1699
     18  C        -10.3520   10.9180   63.6640 C.2    76  GLU76       0.2592
     19  O        -11.4310   10.6670   64.1840 O.2    76  GLU76      -0.2718
     20  CB        -9.6560   13.3040   63.2200 C.3    76  GLU76       0.0402
     21  CG       -11.0550   13.8820   63.2670 C.3    76  GLU76       0.1161
     22  CD       -12.0530   13.2220   62.3650 C.2    76  GLU76       0.3649
     23  OE1      -11.6730   12.6940   61.3000 O.co2  76  GLU76      -0.2457
     24  OE2      -13.2510   13.2850   62.7180 O.co2  76  GLU76      -0.2457
     25  N         -9.8160   10.1890   62.6940 N.am   77  TYR77      -0.1976
     26  CA       -10.4120    8.9290   62.2570 C.3    77  TYR77       0.1639
     27  C         -9.6250    7.7510   62.7970 C.2    77  TYR77       0.2290
     28  O         -8.5150    7.4560   62.3100 O.2    77  TYR77      -0.2864
     29  CB       -10.5240    8.8420   60.7410 C.3    77  TYR77       0.0560
     30  CG       -11.2250    7.5830   60.3390 C.ar   77  TYR77      -0.0198
     31  CD1      -12.5920    7.4260   60.5110 C.ar   77  TYR77      -0.0009
     32  CD2      -10.5150    6.5140   59.8320 C.ar   77  TYR77      -0.0009
     33  CE1      -13.2260    6.2400   60.1790 C.ar   77  TYR77       0.0417
     34  CE2      -11.1380    5.3450   59.5200 C.ar   77  TYR77       0.0417
     35  CZ       -12.4880    5.1980   59.7050 C.ar   77  TYR77       0.1957
     36  OH       -13.0820    3.9930   59.3550 O.3    77  TYR77      -0.2866
     37  N        -10.7460   -1.1810   58.5190 N.3   102  LEU102     -0.1231
     38  CA       -11.4170    0.0690   58.8890 C.3   102  LEU102      0.1693
     39  C        -10.6630    1.2950   58.4140 C.2   102  LEU102      0.2592
     40  O        -11.1880    2.4050   58.4140 O.2   102  LEU102     -0.2718
     41  CB       -11.5630    0.1910   60.3820 C.3   102  LEU102      0.0284
     42  CG       -12.2340   -0.9870   61.0200 C.3   102  LEU102      0.0019
     43  CD1      -12.2740   -0.7560   62.5080 C.3   102  LEU102      0.0001
     44  CD2      -13.6370   -1.1950   60.4550 C.3   102  LEU102      0.0001
     45  N         -9.4120    1.1260   57.9760 N.am  103  SER103     -0.1952
     46  CA        -8.5660    2.2530   57.6110 C.3   103  SER103      0.1924
     47  C         -8.2430    3.1760   58.7950 C.2   103  SER103      0.2314
     48  O         -8.0110    4.3610   58.6390 O.2   103  SER103     -0.2863
     49  CB        -9.1770    3.0570   56.4590 C.3   103  SER103      0.2116
     50  OG        -8.1450    3.6240   55.6730 O.3   103  SER103     -0.2180
     51  N         -6.5380    5.3970   61.3320 N.3   105  ASN105     -0.1240
     52  CA        -5.2840    6.1690   61.1230 C.3   105  ASN105      0.1653
     53  C         -4.3470    6.0610   62.2870 C.2   105  ASN105      0.2266
     54  O         -3.1140    6.1420   62.0970 O.2   105  ASN105     -0.2867
     55  CB        -5.5630    7.6180   60.8370 C.3   105  ASN105      0.1155
     56  CG        -6.0760    7.8440   59.4630 C.2   105  ASN105      0.2627
     57  OD1       -5.7830    7.0730   58.5330 O.2   105  ASN105     -0.2716
     58  ND2       -6.7580    8.9670   59.2870 N.am  105  ASN105     -0.0877
     59  N         -2.2500   13.0180   53.7390 N.3   143  ASN143     -0.1240
     60  CA        -3.4400   13.1250   52.8900 C.3   143  ASN143      0.1653
     61  C         -3.6690   14.4680   52.2230 C.2   143  ASN143      0.2266
     62  O         -4.7090   14.6740   51.6010 O.2   143  ASN143     -0.2867
     63  CB        -4.7280   12.7460   53.6600 C.3   143  ASN143      0.1155
     64  CG        -4.6720   11.3250   54.2390 C.2   143  ASN143      0.2627
     65  OD1       -4.6190   10.3500   53.5090 O.2   143  ASN143     -0.2716
     66  ND2       -4.6900   11.2200   55.5260 N.am  143  ASN143     -0.0877
     67  N        -14.5630   -1.0960   53.9130 N.3   189  THR189     -0.1218
     68  CA       -14.7370    0.2540   53.3090 C.3   189  THR189      0.1862
     69  C        -14.8670    0.3040   51.7910 C.2   189  THR189      0.2287
     70  O        -15.0780    1.4080   51.2380 O.2   189  THR189     -0.2866
     71  CB       -13.5430    1.1540   53.6630 C.3   189  THR189      0.1770
     72  OG1      -12.3950    0.7070   52.9830 O.3   189  THR189     -0.2211
     73  CG2      -13.2860    1.2100   55.1410 C.3   189  THR189      0.0375
     74  N         -9.0080    0.9170   50.1380 N.3   208  THR208     -0.1203
     75  CA        -9.4490    2.2410   49.6800 C.3   208  THR208      0.1994
     76  C         -8.5900    3.3710   50.2540 C.2   208  THR208      0.2618
     77  O         -7.7980    3.1830   51.1980 O.2   208  THR208     -0.2717
     78  CB       -10.8920    2.5040   50.1480 C.3   208  THR208      0.1784
     79  OG1      -10.9510    2.3450   51.5630 O.3   208  THR208     -0.2211
     80  CG2      -11.9300    1.6220   49.4200 C.3   208  THR208      0.0376
     81  N         -8.7610    4.5800   49.7060 N.am  209  GLY209     -0.1942
     82  CA        -8.3130    5.7730   50.4000 C.3   209  GLY209      0.2014
     83  C         -8.9760    7.0320   49.9220 C.2   209  GLY209      0.2639
     84  O         -9.4470    7.0900   48.8080 O.2   209  GLY209     -0.2714
     85  N         -9.0970    8.0020   50.8100 N.am  210  SER210     -0.1949
     86  CA        -9.6480    9.3170   50.4910 C.3   210  SER210      0.1924
     87  C         -8.6220   10.3340   50.8700 C.2   210  SER210      0.2314
     88  O         -7.9260   10.1750   51.8710 O.2   210  SER210     -0.2863
     89  CB       -10.8940    9.6020   51.3500 C.3   210  SER210      0.2116
     90  OG       -11.9370    8.6870   51.0870 O.3   210  SER210     -0.2180
     91  N         -9.8540   10.1310   45.7630 N.3   216  ARG216     -0.1245
     92  CA       -10.5550    8.8930   46.0610 C.3   216  ARG216      0.1563
     93  C         -9.9440    7.7490   45.2820 C.2   216  ARG216      0.2260
     94  O        -10.0210    7.7040   44.0440 O.2   216  ARG216     -0.2867
     95  CB       -12.0070    8.9770   45.7060 C.3   216  ARG216      0.0307
     96  CG       -12.7940    7.7880   46.2100 C.3   216  ARG216      0.0489
     97  CD       -13.3610    8.0980   47.5640 C.3   216  ARG216      0.2205
     98  NE       -13.9900    6.9490   48.2080 N.pl3 216  ARG216     -0.0865
     99  CZ       -15.2820    6.8660   48.5110 C.cat 216  ARG216      0.5346
    100  NH1      -16.1280    7.8640   48.1970 N.pl3 216  ARG216      0.1354
    101  NH2      -15.7240    5.7750   49.1240 N.pl3 216  ARG216      0.1354
@<TRIPOS>BOND
     1    94    93    2
     2    93    92    1
     3    95    92    1
     4    95    96    1
     5    91    92    1
     6    96    97    1
     7    97    98    1
     8   100    99    1
     9    98    99    2
    10    99   101    1
    11    84    83    2
    12    80    78    1
    13    75    74    1
    14    75    78    1
    15    75    76    1
    16    81    76   am
    17    81    82    1
    18    83    82    1
    19    83    85   am
    20    78    79    1
    21    76    77    2
    22    86    85    1
    23    86    87    1
    24    86    89    1
    25    87    88    2
    26    90    89    1
    27    70    69    2
    28    62    61    2
    29    69    68    1
    30     1     2    1
    31     3     4    2
    32     3     2    1
    33    61    60    1
    34     2     5    1
    35    60    63    1
    36    60    59    1
    37    72    71    1
    38     7     8    1
    39    68    71    1
    40    68    67    1
    41     5     6    1
    42    65    64    2
    43    63    64    1
    44    71    73    1
    45     9     8    1
    46     9    10    2
    47    64    66   am
    48     8    11    1
    49    11    12    1
    50    50    49    1
    51    12    13    1
    52    13    14    1
    53    49    46    1
    54    14    15    1
    55    46    45    1
    56    46    47    1
    57    45    39   am
    58    40    39    2
    59    39    38    1
    60    37    38    1
    61    57    56    2
    62    48    47    2
    63    38    41    1
    64    58    56   am
    65    36    35    1
    66    56    55    1
    67    34    35   ar
    68    34    32   ar
    69    35    33   ar
    70    32    30   ar
    71    33    31   ar
    72    30    31   ar
    73    30    29    1
    74    41    42    1
    75    44    42    1
    76    29    26    1
    77    55    52    1
    78    42    43    1
    79    52    51    1
    80    52    53    1
    81    23    22   ar
    82    54    53    2
    83    26    25    1
    84    26    27    1
    85    28    27    2
    86    22    24   ar
    87    22    21    1
    88    25    18   am
    89    20    21    1
    90    20    17    1
    91    18    17    1
    92    18    19    2
    93    17    16    1
