@<TRIPOS>MOLECULE
tmp/5eorB00.pdb
 133 127 0 0 0
SMALL
GASTEIGER

@<TRIPOS>ATOM
      1  N        -38.6300   27.2360   -8.9160 N.3    30  THR30      -0.1203
      2  CA       -39.0180   27.4640  -10.3090 C.3    30  THR30       0.1994
      3  C        -38.1960   28.5720  -10.9930 C.2    30  THR30       0.2618
      4  O        -38.4840   28.9650  -12.1290 O.2    30  THR30      -0.2717
      5  CB       -40.4990   27.8420  -10.3850 C.3    30  THR30       0.1784
      6  OG1      -40.7130   29.0040   -9.5790 O.3    30  THR30      -0.2211
      7  CG2      -41.3980   26.6720   -9.8830 C.3    30  THR30       0.0376
      8  N        -37.1730   29.0710  -10.3070 N.am   31  TYR31      -0.1961
      9  CA       -36.4900   30.2950  -10.7560 C.3    31  TYR31       0.1771
     10  C        -35.4370   30.0810  -11.8380 C.2    31  TYR31       0.2620
     11  O        -34.7590   29.0460  -11.8710 O.2    31  TYR31      -0.2715
     12  CB       -35.8290   30.9940   -9.5640 C.3    31  TYR31       0.0574
     13  CG       -36.7490   31.8430   -8.7160 C.ar   31  TYR31      -0.0198
     14  CD1      -36.2630   32.9700   -8.0480 C.ar   31  TYR31      -0.0009
     15  CD2      -38.1020   31.5260   -8.5700 C.ar   31  TYR31      -0.0009
     16  CE1      -37.1070   33.7540   -7.2610 C.ar   31  TYR31       0.0417
     17  CE2      -38.9430   32.3030   -7.7850 C.ar   31  TYR31       0.0417
     18  CZ       -38.4360   33.4040   -7.1380 C.ar   31  TYR31       0.1957
     19  OH       -39.2710   34.1630   -6.3730 O.3    31  TYR31      -0.2866
     20  N        -35.2910   31.0870  -12.6950 N.am   32  THR32      -0.1951
     21  CA       -34.2300   31.1500  -13.6790 C.3    32  THR32       0.1897
     22  C        -32.9430   31.6160  -13.0010 C.2    32  THR32       0.2313
     23  O        -32.9680   32.5620  -12.1960 O.2    32  THR32      -0.2863
     24  CB       -34.6080   32.1610  -14.7520 C.3    32  THR32       0.1794
     25  OG1      -35.8550   31.7760  -15.3400 O.3    32  THR32      -0.2208
     26  CG2      -33.5400   32.2880  -15.8260 C.3    32  THR32       0.0378
     27  N        -28.4060   32.2890  -13.4820 N.3    34  ASP34      -0.1239
     28  CA       -27.2880   32.5550  -14.3790 C.3    34  ASP34       0.1674
     29  C        -26.0950   31.7320  -13.9240 C.2    34  ASP34       0.2266
     30  O        -25.8930   31.5710  -12.7280 O.2    34  ASP34      -0.2867
     31  CB       -26.9370   34.0420  -14.3660 C.3    34  ASP34       0.1410
     32  CG       -28.1190   34.9270  -14.7660 C.2    34  ASP34       0.3668
     33  OD1      -28.4980   34.9190  -15.9630 O.co2  34  ASP34      -0.2456
     34  OD2      -28.6790   35.6280  -13.8840 O.co2  34  ASP34      -0.2456
     35  N        -21.8510   31.4810  -14.2320 N.3    36  TYR36      -0.1241
     36  CA       -20.6600   32.2580  -14.5250 C.3    36  TYR36       0.1605
     37  C        -19.4320   31.4050  -14.3370 C.2    36  TYR36       0.2264
     38  O        -19.4160   30.4900  -13.5030 O.2    36  TYR36      -0.2867
     39  CB       -20.5020   33.4360  -13.5570 C.3    36  TYR36       0.0534
     40  CG       -21.6790   34.3560  -13.4820 C.ar   36  TYR36      -0.0201
     41  CD1      -21.7020   35.5530  -14.2160 C.ar   36  TYR36      -0.0009
     42  CD2      -22.7630   34.0500  -12.6620 C.ar   36  TYR36      -0.0009
     43  CE1      -22.7720   36.4170  -14.1420 C.ar   36  TYR36       0.0417
     44  CE2      -23.8570   34.9050  -12.5900 C.ar   36  TYR36       0.0417
     45  CZ       -23.8480   36.0910  -13.3220 C.ar   36  TYR36       0.1957
     46  OH       -24.9260   36.9400  -13.2310 O.3    36  TYR36      -0.2866
     47  N        -19.8740   35.4960  -18.2240 N.3    46  TYR46      -0.1241
     48  CA       -21.2210   34.9630  -18.2950 C.3    46  TYR46       0.1605
     49  C        -21.2330   33.6550  -19.0970 C.2    46  TYR46       0.2264
     50  O        -20.7240   33.6110  -20.2170 O.2    46  TYR46      -0.2867
     51  CB       -22.1320   35.9970  -18.9480 C.3    46  TYR46       0.0534
     52  CG       -23.5900   35.6890  -18.7660 C.ar   46  TYR46      -0.0201
     53  CD1      -24.2670   36.0980  -17.6150 C.ar   46  TYR46      -0.0009
     54  CD2      -24.2870   34.9710  -19.7360 C.ar   46  TYR46      -0.0009
     55  CE1      -25.6070   35.8070  -17.4500 C.ar   46  TYR46       0.0417
     56  CE2      -25.6140   34.6750  -19.5780 C.ar   46  TYR46       0.0417
     57  CZ       -26.2640   35.0830  -18.4390 C.ar   46  TYR46       0.1957
     58  OH       -27.5880   34.7920  -18.3120 O.3    46  TYR46      -0.2866
     59  N        -27.9110   31.5900  -19.3160 N.3    49  GLU49      -0.1245
     60  CA       -29.1580   31.7120  -18.5830 C.3    49  GLU49       0.1567
     61  C        -29.8060   30.3400  -18.6230 C.2    49  GLU49       0.2260
     62  O        -29.8850   29.7240  -19.6730 O.2    49  GLU49      -0.2867
     63  CB       -30.0860   32.7570  -19.2110 C.3    49  GLU49       0.0388
     64  CG       -31.4210   32.8310  -18.4980 C.3    49  GLU49       0.1160
     65  CD       -32.3630   33.9110  -19.0060 C.2    49  GLU49       0.3649
     66  OE1      -32.1110   35.1290  -18.7680 O.co2  49  GLU49      -0.2457
     67  OE2      -33.3960   33.5240  -19.6070 O.co2  49  GLU49      -0.2457
     68  N        -36.1720   26.8570  -15.7050 N.3    52  ARG52      -0.1245
     69  CA       -36.6210   25.6920  -14.9530 C.3    52  ARG52       0.1563
     70  C        -36.9640   24.4500  -15.7980 C.2    52  ARG52       0.2260
     71  O        -36.9270   23.3360  -15.2660 O.2    52  ARG52      -0.2867
     72  CB       -37.8130   26.0520  -14.0680 C.3    52  ARG52       0.0307
     73  CG       -39.1220   26.1520  -14.8260 C.3    52  ARG52       0.0489
     74  CD       -40.1640   26.7130  -13.9320 C.3    52  ARG52       0.2205
     75  NE       -41.4940   26.6480  -14.5160 N.pl3  52  ARG52      -0.0865
     76  CZ       -42.3770   25.6880  -14.2510 C.cat  52  ARG52       0.5346
     77  NH1      -42.0730   24.6880  -13.4140 N.pl3  52  ARG52       0.1354
     78  NH2      -43.5710   25.7310  -14.8330 N.pl3  52  ARG52       0.1354
     79  N        -26.0910   32.5900  -10.1060 N.3    93  GLY93      -0.1225
     80  CA       -26.6920   33.8320   -9.6300 C.3    93  GLY93       0.1811
     81  C        -28.1790   33.8170   -9.8700 C.2    93  GLY93       0.2280
     82  O        -28.6530   33.1770  -10.8180 O.2    93  GLY93      -0.2866
     83  N        -31.9470   36.4150   -9.3140 N.3    95  GLY95      -0.1210
     84  CA       -32.5920   37.6400   -8.8930 C.3    95  GLY95       0.1956
     85  C        -34.0150   37.4090   -8.4070 C.2    95  GLY95       0.2612
     86  O        -34.6480   36.4190   -8.7850 O.2    95  GLY95      -0.2717
     87  N        -34.5190   38.3180   -7.5730 N.am   96  ASP96      -0.1959
     88  CA       -35.9190   38.2800   -7.1430 C.3    96  ASP96       0.1840
     89  C        -36.3930   39.6490   -6.6580 C.2    96  ASP96       0.2622
     90  O        -35.5930   40.5640   -6.4940 O.2    96  ASP96      -0.2715
     91  CB       -36.1430   37.2250   -6.0440 C.3    96  ASP96       0.1450
     92  CG       -37.6280   36.8280   -5.8850 C.2    96  ASP96       0.3671
     93  OD1      -38.4840   37.2140   -6.7320 O.co2  96  ASP96      -0.2456
     94  OD2      -37.9400   36.1110   -4.9060 O.co2  96  ASP96      -0.2456
     95  N        -37.7060   39.7800   -6.4770 N.am   97  THR97      -0.1951
     96  CA       -38.3050   40.9010   -5.7790 C.3    97  THR97       0.1897
     97  C        -38.6130   40.4240   -4.3760 C.2    97  THR97       0.2313
     98  O        -39.2870   39.4110   -4.1990 O.2    97  THR97      -0.2863
     99  CB       -39.6080   41.3360   -6.4500 C.3    97  THR97       0.1794
    100  OG1      -39.3590   41.5590   -7.8420 O.3    97  THR97      -0.2208
    101  CG2      -40.1310   42.6280   -5.8250 C.3    97  THR97       0.0378
    102  N        -40.8470   44.3440   -2.2660 N.3   100  GLU100     -0.1245
    103  CA       -40.9030   45.3950   -3.3080 C.3   100  GLU100      0.1567
    104  C        -39.5500   45.8180   -3.9340 C.2   100  GLU100      0.2260
    105  O        -39.4920   46.7540   -4.7350 O.2   100  GLU100     -0.2867
    106  CB       -41.6480   46.6330   -2.7880 C.3   100  GLU100      0.0388
    107  CG       -43.1510   46.4330   -2.5340 C.3   100  GLU100      0.1160
    108  CD       -44.0320   46.9940   -3.6550 C.2   100  GLU100      0.3649
    109  OE1      -44.9240   46.2490   -4.1210 O.co2 100  GLU100     -0.2457
    110  OE2      -43.8470   48.1730   -4.0660 O.co2 100  GLU100     -0.2457
    111  N        -35.7110   44.8180   -5.8600 N.3   102  PHE102     -0.1241
    112  CA       -34.8240   43.9230   -6.5800 C.3   102  PHE102      0.1605
    113  C        -33.6370   43.5180   -5.7260 C.2   102  PHE102      0.2264
    114  O        -32.9370   44.3560   -5.1600 O.2   102  PHE102     -0.2867
    115  CB       -34.3220   44.5850   -7.8600 C.3   102  PHE102      0.0534
    116  CG       -33.3810   43.7200   -8.6610 C.ar  102  PHE102     -0.0203
    117  CD1      -33.8770   42.7920   -9.5790 C.ar  102  PHE102     -0.0042
    118  CD2      -32.0130   43.8250   -8.4920 C.ar  102  PHE102     -0.0042
    119  CE1      -33.0130   41.9880  -10.3340 C.ar  102  PHE102     -0.0003
    120  CE2      -31.1350   43.0270   -9.2290 C.ar  102  PHE102     -0.0003
    121  CZ       -31.6380   42.1020  -10.1610 C.ar  102  PHE102     -0.0000
    122  N        -30.2760   40.6000   -5.9760 N.3   104  TYR104     -0.1241
    123  CA       -29.5860   39.5570   -6.7410 C.3   104  TYR104      0.1605
    124  C        -28.5950   38.8990   -5.8030 C.2   104  TYR104      0.2264
    125  O        -27.9740   39.5920   -5.0040 O.2   104  TYR104     -0.2867
    126  CB       -28.8400   40.1620   -7.9450 C.3   104  TYR104      0.0534
    127  CG       -28.3890   39.1440   -8.9670 C.ar  104  TYR104     -0.0201
    128  CD1      -29.2560   38.7010   -9.9740 C.ar  104  TYR104     -0.0009
    129  CD2      -27.1140   38.6100   -8.9150 C.ar  104  TYR104     -0.0009
    130  CE1      -28.8600   37.7600  -10.8960 C.ar  104  TYR104      0.0417
    131  CE2      -26.7000   37.6690   -9.8390 C.ar  104  TYR104      0.0417
    132  CZ       -27.5730   37.2560  -10.8310 C.ar  104  TYR104      0.1957
    133  OH       -27.1430   36.3240  -11.7460 O.3   104  TYR104     -0.2866
@<TRIPOS>BOND
     1    50    49    2
     2    54    56   ar
     3    54    52   ar
     4    62    61    2
     5    67    65   ar
     6    56    57   ar
     7    59    60    1
     8    63    60    1
     9    63    64    1
    10    49    48    1
    11    65    66   ar
    12    65    64    1
    13    51    52    1
    14    51    48    1
    15    52    53   ar
    16    61    60    1
    17    57    58    1
    18    57    55   ar
    19    48    47    1
    20    53    55   ar
    21    33    32   ar
    22    26    24    1
    23    70    71    2
    24    70    69    1
    25    68    69    1
    26    25    24    1
    27    69    72    1
    28    78    76    1
    29    73    72    1
    30    73    74    1
    31    32    31    1
    32    32    34   ar
    33    24    21    1
    34    36    37    1
    35    36    35    1
    36    36    39    1
    37    75    76    2
    38    75    74    1
    39    28    31    1
    40    28    29    1
    41    28    27    1
    42    37    38    2
    43    76    77    1
    44    41    43   ar
    45    41    40   ar
    46    43    45   ar
    47    29    30    2
    48    21    22    1
    49    21    20    1
    50    39    40    1
    51    40    42   ar
    52    45    46    1
    53    45    44   ar
    54    22    23    2
    55    20    10   am
    56    42    44   ar
    57     4     3    2
    58    11    10    2
    59    10     9    1
    60   133   132    1
    61     3     2    1
    62     3     8   am
    63   130   132   ar
    64   130   128   ar
    65   132   131   ar
    66    82    81    2
    67     9     8    1
    68     9    12    1
    69     5     2    1
    70     5     7    1
    71     5     6    1
    72   119   121   ar
    73   119   117   ar
    74     2     1    1
    75   121   120   ar
    76    79    80    1
    77   128   127   ar
    78    81    80    1
    79   131   129   ar
    80   117   116   ar
    81    12    13    1
    82    83    84    1
    83   120   118   ar
    84   127   129   ar
    85   127   126    1
    86    84    85    1
    87    86    85    2
    88    13    15   ar
    89    13    14   ar
    90   116   118   ar
    91   116   115    1
    92    15    17   ar
    93    85    87   am
    94    14    16   ar
    95   126   123    1
    96   115   112    1
    97   100    99    1
    98    17    18   ar
    99    87    88    1
   100    16    18   ar
   101    88    89    1
   102    88    91    1
   103    18    19    1
   104   123   122    1
   105   123   124    1
   106    93    92   ar
   107    89    90    2
   108    89    95   am
   109   112   111    1
   110   112   113    1
   111    95    96    1
   112    99   101    1
   113    99    96    1
   114    91    92    1
   115    92    94   ar
   116   124   125    2
   117    96    97    1
   118   113   114    2
   119   105   104    2
   120    97    98    2
   121   109   108   ar
   122   110   108   ar
   123   104   103    1
   124   108   107    1
   125   103   106    1
   126   103   102    1
   127   106   107    1
