@<TRIPOS>MOLECULE
tmp/5eouB00.pdb
 184 170 0 0 0
SMALL
GASTEIGER

@<TRIPOS>ATOM
      1  N        358.3480  235.9360  179.5550 N.3     7  ASP7       -0.1239
      2  CA       359.1570  235.1520  180.4760 C.3     7  ASP7        0.1674
      3  C        358.5270  235.1480  181.8650 C.2     7  ASP7        0.2266
      4  O        358.4280  236.1880  182.5150 O.2     7  ASP7       -0.2867
      5  CB       360.5850  235.7010  180.5370 C.3     7  ASP7        0.1410
      6  CG       361.4630  234.9410  181.5140 C.2     7  ASP7        0.3668
      7  OD1      361.1820  233.7530  181.7770 O.co2   7  ASP7       -0.2456
      8  OD2      362.4400  235.5330  182.0180 O.co2   7  ASP7       -0.2456
      9  N        358.9620  234.0150  185.5540 N.3     9  SER9       -0.1202
     10  CA       360.0190  233.6710  186.4970 C.3     9  SER9        0.2020
     11  C        359.5770  233.8740  187.9360 C.2     9  SER9        0.2619
     12  O        358.4920  234.3430  188.1910 O.2     9  SER9       -0.2717
     13  CB       361.2960  234.4500  186.2170 C.3     9  SER9        0.2103
     14  OG       361.0820  235.8320  186.3080 O.3     9  SER9       -0.2182
     15  N        360.4020  233.4460  188.8730 N.am   10  SER10      -0.1937
     16  CA       360.0130  233.3290  190.2740 C.3    10  SER10       0.2055
     17  C        359.5910  234.6570  190.8950 C.2    10  SER10       0.2644
     18  O        358.7410  234.6870  191.7830 O.2    10  SER10      -0.2714
     19  CB       361.1590  232.7260  191.0900 C.3    10  SER10       0.2130
     20  OG       361.5180  231.4460  190.5960 O.3    10  SER10      -0.2179
     21  N        360.1820  235.7520  190.4300 N.am   11  THR11      -0.1936
     22  CA       359.9520  237.0490  191.0570 C.3    11  THR11       0.2028
     23  C        359.0900  237.9910  190.2220 C.2    11  THR11       0.2642
     24  O        358.4780  238.9130  190.7610 O.2    11  THR11      -0.2714
     25  CB       361.2850  237.7600  191.3680 C.3    11  THR11       0.1808
     26  OG1      362.0560  237.8850  190.1670 O.3    11  THR11      -0.2208
     27  CG2      362.0790  236.9700  192.3940 C.3    11  THR11       0.0379
     28  N        359.0390  237.7660  188.9130 N.am   12  SER12      -0.1949
     29  CA       358.3030  238.6730  188.0400 C.3    12  SER12       0.1924
     30  C        357.8770  238.0450  186.7180 C.2    12  SER12       0.2314
     31  O        358.3170  236.9540  186.3570 O.2    12  SER12      -0.2863
     32  CB       359.1450  239.9190  187.7550 C.3    12  SER12       0.2116
     33  OG       360.3430  239.5740  187.0810 O.3    12  SER12      -0.2180
     34  N        357.8550  239.0040  182.6680 N.3    14  LYS14      -0.1245
     35  CA       358.4740  239.9300  181.7270 C.3    14  LYS14       0.1561
     36  C        357.8990  239.7840  180.3220 C.2    14  LYS14       0.2260
     37  O        357.8380  238.6820  179.7760 O.2    14  LYS14      -0.2867
     38  CB       359.9870  239.7190  181.6990 C.3    14  LYS14       0.0271
     39  CG       360.6230  239.7000  183.0770 C.3    14  LYS14       0.0035
     40  CD       362.1110  239.4200  182.9970 C.3    14  LYS14       0.0206
     41  CE       362.7140  239.2720  184.3820 C.3    14  LYS14       0.1093
     42  NZ       362.1240  238.1190  185.1180 N.3    14  LYS14      -0.1314
     43  N        360.7290  227.9830  188.4600 N.3    43  LYS43      -0.1245
     44  CA       360.1880  227.8860  187.1040 C.3    43  LYS43       0.1561
     45  C        358.9280  227.0200  187.0300 C.2    43  LYS43       0.2260
     46  O        358.5640  226.5270  185.9630 O.2    43  LYS43      -0.2867
     47  CB       361.2590  227.3510  186.1440 C.3    43  LYS43       0.0271
     48  CG       362.4250  228.3100  185.9210 C.3    43  LYS43       0.0035
     49  CD       363.6680  227.5700  185.4470 C.3    43  LYS43       0.0206
     50  CE       364.7040  228.5180  184.8550 C.3    43  LYS43       0.1093
     51  NZ       365.1050  229.5970  185.7940 N.3    43  LYS43      -0.1314
     52  N        373.4130  233.2400  183.6190 N.3   187  ASP187     -0.1239
     53  CA       372.1280  233.8320  183.9670 C.3   187  ASP187      0.1674
     54  C        371.8830  233.6980  185.4650 C.2   187  ASP187      0.2266
     55  O        371.5550  232.6180  185.9540 O.2   187  ASP187     -0.2867
     56  CB       370.9960  233.1680  183.1770 C.3   187  ASP187      0.1410
     57  CG       369.7060  233.9750  183.2030 C.2   187  ASP187      0.3668
     58  OD1      369.4700  234.7100  184.1840 O.co2 187  ASP187     -0.2456
     59  OD2      368.9230  233.8720  182.2350 O.co2 187  ASP187     -0.2456
     60  N        369.5860  234.4590  188.3860 N.3   189  GLY189     -0.1210
     61  CA       368.2590  234.8620  188.8090 C.3   189  GLY189      0.1956
     62  C        368.2130  235.2010  190.2860 C.2   189  GLY189      0.2612
     63  O        369.2050  235.6430  190.8640 O.2   189  GLY189     -0.2717
     64  N        367.0530  234.9950  190.8990 N.am  190  ALA190     -0.1965
     65  CA       366.8860  235.2650  192.3210 C.3   190  ALA190      0.1728
     66  C        367.1820  234.0220  193.1510 C.2   190  ALA190      0.2617
     67  O        367.8160  234.1030  194.2040 O.2   190  ALA190     -0.2715
     68  CB       365.4820  235.7670  192.6030 C.3   190  ALA190      0.0334
     69  N        366.6790  232.8850  192.6800 N.am  191  THR191     -0.1937
     70  CA       366.8620  231.6110  193.3580 C.3   191  THR191      0.2028
     71  C        367.6830  230.6110  192.5630 C.2   191  THR191      0.2642
     72  O        368.2070  229.6640  193.1120 O.2   191  THR191     -0.2714
     73  CB       365.5110  230.9980  193.8190 C.3   191  THR191      0.1808
     74  OG1      364.8970  230.2170  192.7810 O.3   191  THR191     -0.2208
     75  CG2      364.5720  232.0850  194.2350 C.3   191  THR191      0.0379
     76  N        367.8200  230.8540  191.2730 N.am  192  MET192     -0.1976
     77  CA       368.5180  229.9290  190.3860 C.3   192  MET192      0.1605
     78  C        369.5360  230.6290  189.4890 C.2   192  MET192      0.2287
     79  O        369.2610  231.6870  188.9210 O.2   192  MET192     -0.2864
     80  CB       367.5130  229.1600  189.5270 C.3   192  MET192      0.0413
     81  CG       366.6750  228.1570  190.3040 C.3   192  MET192      0.0598
     82  SD       365.3240  227.4770  189.3240 S.3   192  MET192     -0.1393
     83  CE       364.4020  228.9710  188.9670 C.3   192  MET192      0.0692
     84  N        370.1460  236.1560  193.6550 N.3   213  GLY213     -0.1210
     85  CA       370.1450  237.4390  194.3330 C.3   213  GLY213      0.1956
     86  C        369.3020  237.5120  195.5910 C.2   213  GLY213      0.2611
     87  O        369.4140  238.4680  196.3570 O.2   213  GLY213     -0.2717
     88  N        368.4550  236.5100  195.8090 N.am  214  ARG214     -0.1979
     89  CA       367.6160  236.4750  197.0030 C.3   214  ARG214      0.1597
     90  C        368.4740  236.3490  198.2610 C.2   214  ARG214      0.2287
     91  O        368.0950  236.8210  199.3340 O.2   214  ARG214     -0.2864
     92  CB       366.6070  235.3250  196.9230 C.3   214  ARG214      0.0334
     93  CG       365.6720  235.2260  198.1200 C.3   214  ARG214      0.0492
     94  CD       364.4970  234.3080  197.8320 C.3   214  ARG214      0.2205
     95  NE       363.5980  234.8770  196.8330 N.pl3 214  ARG214     -0.0865
     96  CZ       362.5180  234.2610  196.3610 C.cat 214  ARG214      0.5346
     97  NH1      362.2020  233.0490  196.7960 N.pl3 214  ARG214      0.1354
     98  NH2      361.7560  234.8560  195.4540 N.pl3 214  ARG214      0.1354
     99  N        369.3730  239.8240  199.1130 N.3   217  THR217     -0.1218
    100  CA       368.1940  240.5260  199.6060 C.3   217  THR217      0.1862
    101  C        367.9100  240.1890  201.0670 C.2   217  THR217      0.2287
    102  O        367.6940  241.0800  201.8890 O.2   217  THR217     -0.2866
    103  CB       366.9520  240.1890  198.7590 C.3   217  THR217      0.1770
    104  OG1      367.1740  240.5930  197.4020 O.3   217  THR217     -0.2211
    105  CG2      365.7200  240.9020  199.3020 C.3   217  THR217      0.0375
    106  N        364.7230  244.7710  198.8370 N.3   232  GLY232     -0.1225
    107  CA       364.8240  244.5520  197.4070 C.3   232  GLY232      0.1811
    108  C        365.0310  245.8580  196.6660 C.2   232  GLY232      0.2280
    109  O        365.7650  245.9200  195.6810 O.2   232  GLY232     -0.2866
    110  N        368.5060  247.2930  197.4580 N.3   235  LYS235     -0.1231
    111  CA       369.4670  246.4920  196.7410 C.3   235  LYS235      0.1693
    112  C        369.7860  247.1180  195.3980 C.2   235  LYS235      0.2592
    113  O        370.8960  247.0370  194.9130 O.2   235  LYS235     -0.2718
    114  CB       368.9190  245.0770  196.5950 C.3   235  LYS235      0.0285
    115  CG       369.7080  244.1430  195.7070 C.3   235  LYS235      0.0035
    116  CD       369.5630  242.7160  196.1930 C.3   235  LYS235      0.0206
    117  CE       369.3740  241.7330  195.0590 C.3   235  LYS235      0.1093
    118  NZ       368.0410  241.0970  195.1250 N.3   235  LYS235     -0.1314
    119  N        368.7760  247.7110  194.7880 N.am  236  LYS236     -0.1966
    120  CA       368.8530  248.2300  193.4280 C.3   236  LYS236      0.1728
    121  C        369.2360  249.7060  193.3980 C.2   236  LYS236      0.2616
    122  O        370.0400  250.1300  192.5680 O.2   236  LYS236     -0.2715
    123  CB       367.5170  248.0310  192.7050 C.3   236  LYS236      0.0311
    124  CG       367.0570  246.5910  192.6430 C.3   236  LYS236      0.0038
    125  CD       368.0920  245.7180  191.9760 C.3   236  LYS236      0.0206
    126  CE       367.4440  244.5050  191.3460 C.3   236  LYS236      0.1093
    127  NZ       366.3780  244.9050  190.3720 N.3   236  LYS236     -0.1314
    128  N        368.6580  250.4840  194.3080 N.am  237  GLN237     -0.1977
    129  CA       368.8330  251.9330  194.3030 C.3   237  GLN237      0.1601
    130  C        369.9060  252.4000  195.2820 C.2   237  GLN237      0.2287
    131  O        370.5970  253.3890  195.0330 O.2   237  GLN237     -0.2864
    132  CB       367.5060  252.6240  194.6230 C.3   237  GLN237      0.0394
    133  CG       366.3660  252.2800  193.7010 C.3   237  GLN237      0.0908
    134  CD       366.8240  252.2670  192.2370 C.2   237  GLN237      0.2608
    135  OE1      367.1840  253.3740  191.8130 O.2   237  GLN237     -0.2717
    136  NE2      366.8090  251.0770  191.6170 N.am  237  GLN237     -0.0878
    137  N        370.3250  238.1510  183.6830 N.3   283  GLY283     -0.1210
    138  CA       369.4790  238.1090  184.8610 C.3   283  GLY283      0.1956
    139  C        369.5240  239.4220  185.6170 C.2   283  GLY283      0.2612
    140  O        370.3590  240.2790  185.3340 O.2   283  GLY283     -0.2717
    141  N        368.6250  239.5790  186.5830 N.am  284  GLY284     -0.1942
    142  CA       368.5430  240.8050  187.3550 C.3   284  GLY284      0.2014
    143  C        369.7610  241.0610  188.2230 C.2   284  GLY284      0.2639
    144  O        370.1570  242.2090  188.4250 O.2   284  GLY284     -0.2714
    145  N        370.3600  239.9890  188.7310 N.am  285  THR285     -0.1950
    146  CA       371.5030  240.0980  189.6340 C.3   285  THR285      0.1897
    147  C        372.7640  240.5220  188.8800 C.2   285  THR285      0.2313
    148  O        373.7460  240.9590  189.4810 O.2   285  THR285     -0.2863
    149  CB       371.7550  238.7640  190.3700 C.3   285  THR285      0.1794
    150  OG1      370.5130  238.2520  190.8690 O.3   285  THR285     -0.2208
    151  CG2      372.7170  238.9490  191.5370 C.3   285  THR285      0.0378
    152  N        373.1080  243.0620  187.2380 N.3   287  SER287     -0.1202
    153  CA       373.1880  244.5190  187.2580 C.3   287  SER287      0.2020
    154  C        373.8820  245.0490  188.5110 C.2   287  SER287      0.2618
    155  O        373.9870  246.2600  188.6990 O.2   287  SER287     -0.2717
    156  CB       371.7900  245.1270  187.1420 C.3   287  SER287      0.2103
    157  OG       371.1880  244.7800  185.9070 O.3   287  SER287     -0.2182
    158  N        374.3580  244.1510  189.3590 N.am  288  ILE288     -0.1979
    159  CA       375.0660  244.5960  190.5380 C.3   288  ILE288      0.1595
    160  C        376.3010  245.3370  190.0600 C.2   288  ILE288      0.2287
    161  O        377.0180  244.8780  189.1790 O.2   288  ILE288     -0.2864
    162  CB       375.4560  243.4190  191.4450 C.3   288  ILE288      0.0276
    163  CG1      374.2180  242.8650  192.1410 C.3   288  ILE288      0.0022
    164  CG2      376.4680  243.8520  192.4900 C.3   288  ILE288      0.0022
    165  CD1      374.5250  241.7610  193.1220 C.3   288  ILE288      0.0001
    166  N        368.1310  249.4170  181.8260 N.3   325  SER325     -0.1202
    167  CA       368.3730  248.9300  183.1800 C.3   325  SER325      0.2020
    168  C        367.9170  247.4840  183.3570 C.2   325  SER325      0.2618
    169  O        368.5150  246.7250  184.1200 O.2   325  SER325     -0.2717
    170  CB       367.6680  249.8250  184.2010 C.3   325  SER325      0.2103
    171  OG       368.1260  251.1610  184.1100 O.3   325  SER325     -0.2182
    172  N        366.8550  247.1100  182.6510 N.am  326  ASP326     -0.1973
    173  CA       366.2910  245.7680  182.7630 C.3   326  ASP326      0.1709
    174  C        366.8060  244.8360  181.6720 C.2   326  ASP326      0.2293
    175  O        366.4410  243.6620  181.6320 O.2   326  ASP326     -0.2864
    176  CB       364.7620  245.8250  182.7050 C.3   326  ASP326      0.1436
    177  CG       364.1620  246.6060  183.8560 C.2   326  ASP326      0.3671
    178  OD1      364.7490  246.5910  184.9590 O.co2 326  ASP326     -0.2456
    179  OD2      363.1010  247.2340  183.6580 O.co2 326  ASP326     -0.2456
    180  N        368.0930  241.2310  182.1800 N.3   329  ALA329     -0.1245
    181  CA       367.0680  240.3340  182.6990 C.3   329  ALA329      0.1562
    182  C        366.0400  239.9920  181.6250 C.2   329  ALA329      0.2260
    183  O        365.1280  239.1990  181.8570 O.2   329  ALA329     -0.2867
    184  CB       366.3850  240.9520  183.9090 C.3   329  ALA329      0.0290
@<TRIPOS>BOND
     1     1     2    1
     2    37    36    2
     3    36    35    1
     4     2     5    1
     5     2     3    1
     6     5     6    1
     7     6     7   ar
     8     6     8   ar
     9   182   183    2
    10   182   181    1
    11   175   174    2
    12   174   173    1
    13    38    35    1
    14    38    39    1
    15    35    34    1
    16   166   167    1
    17     3     4    2
    18   180   181    1
    19    59    57   ar
    20   172   173    1
    21   172   168   am
    22   181   184    1
    23   176   173    1
    24   176   177    1
    25    40    39    1
    26    40    41    1
    27    56    57    1
    28    56    53    1
    29   167   168    1
    30   167   170    1
    31    57    58   ar
    32   168   169    2
    33    52    53    1
    34   179   177   ar
    35   137   138    1
    36   177   178   ar
    37    53    54    1
    38   171   170    1
    39    41    42    1
    40    50    49    1
    41    50    51    1
    42   138   139    1
    43   140   139    2
    44    49    48    1
    45    54    55    2
    46     9    10    1
    47   139   141   am
    48   157   156    1
    49    48    47    1
    50    46    45    2
    51    47    44    1
    52    13    14    1
    53    13    10    1
    54    31    30    2
    55    10    11    1
    56   141   142    1
    57    30    29    1
    58    45    44    1
    59    33    32    1
    60    44    43    1
    61   156   153    1
    62   152   153    1
    63   153   154    1
    64   142   143    1
    65    32    29    1
    66    11    12    2
    67    11    15   am
    68    29    28    1
    69   143   144    2
    70   143   145   am
    71    60    61    1
    72   154   155    2
    73   154   158   am
    74   145   146    1
    75    61    62    1
    76    15    16    1
    77   147   148    2
    78   147   146    1
    79    28    23   am
    80    79    78    2
    81    83    82    1
    82   161   160    2
    83    82    81    1
    84   158   159    1
    85    78    77    1
    86    80    81    1
    87    80    77    1
    88   146   149    1
    89   160   159    1
    90    26    25    1
    91    23    24    2
    92    23    22    1
    93    16    17    1
    94    16    19    1
    95    62    63    2
    96    62    64   am
    97   149   150    1
    98   149   151    1
    99   127   126    1
   100    77    76    1
   101    21    17   am
   102    21    22    1
   103   159   162    1
   104    20    19    1
   105    17    18    2
   106    64    65    1
   107    22    25    1
   108    76    71   am
   109   126   125    1
   110    25    27    1
   111   162   163    1
   112   162   164    1
   113   136   134   am
   114   135   134    2
   115   125   124    1
   116   163   165    1
   117   134   133    1
   118    65    68    1
   119    65    66    1
   120    71    72    2
   121    71    70    1
   122   122   121    2
   123   124   123    1
   124    69    66   am
   125    69    70    1
   126   123   120    1
   127    74    73    1
   128    66    67    2
   129    70    73    1
   130   121   120    1
   131   121   128   am
   132   120   119    1
   133    84    85    1
   134   133   132    1
   135    73    75    1
   136   129   128    1
   137   129   132    1
   138   129   130    1
   139    85    86    1
   140   119   112   am
   141   113   112    2
   142   131   130    2
   143   117   118    1
   144   117   116    1
   145   112   111    1
   146    98    96    1
   147    86    88   am
   148    86    87    2
   149   109   108    2
   150   115   116    1
   151   115   114    1
   152    88    89    1
   153    96    97    1
   154    96    95    2
   155   114   111    1
   156   108   107    1
   157   111   110    1
   158    95    94    1
   159    92    89    1
   160    92    93    1
   161    89    90    1
   162   104   103    1
   163   107   106    1
   164    94    93    1
   165    90    91    2
   166   103   105    1
   167   103   100    1
   168    99   100    1
   169   100   101    1
   170   101   102    2
