@<TRIPOS>MOLECULE
tmp/5eoxA00.pdb
 166 153 0 0 0
SMALL
GASTEIGER

@<TRIPOS>ATOM
      1  N        -39.1280  137.8470    1.7490 N.3    16  ASP16      -0.1239
      2  CA       -38.2470  137.6570    0.6060 C.3    16  ASP16       0.1674
      3  C        -38.9830  138.0000   -0.6820 C.2    16  ASP16       0.2266
      4  O        -39.9390  137.3230   -1.0620 O.2    16  ASP16      -0.2867
      5  CB       -37.7240  136.2190    0.5640 C.3    16  ASP16       0.1410
      6  CG       -36.8950  135.9300   -0.6750 C.2    16  ASP16       0.3668
      7  OD1      -36.3320  136.8770   -1.2630 O.co2  16  ASP16      -0.2456
      8  OD2      -36.7980  134.7450   -1.0570 O.co2  16  ASP16      -0.2456
      9  N        -38.6210  138.1860   -4.6100 N.3    18  SER18      -0.1202
     10  CA       -37.8350  137.8060   -5.7750 C.3    18  SER18       0.2020
     11  C        -38.5470  138.2330   -7.0520 C.2    18  SER18       0.2619
     12  O        -39.5080  138.9950   -7.0080 O.2    18  SER18      -0.2717
     13  CB       -37.5720  136.2990   -5.7890 C.3    18  SER18       0.2103
     14  OG       -38.7590  135.5720   -6.0490 O.3    18  SER18      -0.2182
     15  N        -38.0710  137.7390   -8.1890 N.am   19  SER19      -0.1937
     16  CA       -38.6410  138.1100   -9.4760 C.3    19  SER19       0.2055
     17  C        -40.0370  137.5270   -9.6810 C.2    19  SER19       0.2644
     18  O        -40.8700  138.1240  -10.3610 O.2    19  SER19      -0.2714
     19  CB       -37.7240  137.6550  -10.6120 C.3    19  SER19       0.2130
     20  OG       -37.6000  136.2440  -10.6300 O.3    19  SER19      -0.2179
     21  N        -40.2920  136.3650   -9.0880 N.am   20  THR20      -0.1936
     22  CA       -41.5180  135.6290   -9.3810 C.3    20  THR20       0.2028
     23  C        -42.5070  135.5520   -8.2190 C.2    20  THR20       0.2642
     24  O        -43.7110  135.4260   -8.4420 O.2    20  THR20      -0.2714
     25  CB       -41.1970  134.1920   -9.8380 C.3    20  THR20       0.1808
     26  OG1      -40.3970  133.5370   -8.8450 O.3    20  THR20      -0.2208
     27  CG2      -40.4440  134.2140  -11.1570 C.3    20  THR20       0.0379
     28  N        -42.0170  135.6260   -6.9860 N.am   21  SER21      -0.1949
     29  CA       -42.9100  135.4830   -5.8410 C.3    21  SER21       0.1924
     30  C        -42.4600  136.2450   -4.6000 C.2    21  SER21       0.2314
     31  O        -41.3050  136.6580   -4.4870 O.2    21  SER21      -0.2863
     32  CB       -43.0690  134.0060   -5.4810 C.3    21  SER21       0.2116
     33  OG       -41.9320  133.5340   -4.7810 O.3    21  SER21      -0.2180
     34  N        -42.3010  135.7110   -0.4410 N.3    23  LYS23      -0.1245
     35  CA       -42.3800  134.6920    0.5860 C.3    23  LYS23       0.1561
     36  C        -42.3100  135.3210    1.9630 C.2    23  LYS23       0.2260
     37  O        -41.4320  136.1130    2.2350 O.2    23  LYS23      -0.2867
     38  CB       -41.2630  133.6710    0.4040 C.3    23  LYS23       0.0271
     39  CG       -40.8270  133.4980   -1.0360 C.3    23  LYS23       0.0035
     40  CD       -40.0450  132.2240   -1.2580 C.3    23  LYS23       0.0206
     41  CE       -39.0510  132.3980   -2.3880 C.3    23  LYS23       0.1093
     42  NZ       -39.6320  133.1620   -3.5170 N.3    23  LYS23      -0.1314
     43  N        -28.3600  127.8860   -4.6930 N.3   197  ASP197     -0.1239
     44  CA       -29.7380  128.3530   -4.7220 C.3   197  ASP197      0.1674
     45  C        -30.2280  128.4550   -6.1630 C.2   197  ASP197      0.2266
     46  O        -29.8070  129.3350   -6.9110 O.2   197  ASP197     -0.2867
     47  CB       -29.8550  129.7030   -4.0060 C.3   197  ASP197      0.1410
     48  CG       -31.2030  130.3740   -4.2200 C.2   197  ASP197      0.3668
     49  OD1      -32.2090  129.6670   -4.4330 O.co2 197  ASP197     -0.2456
     50  OD2      -31.2580  131.6210   -4.1680 O.co2 197  ASP197     -0.2456
     51  N        -33.1740  129.3980   -8.3850 N.3   199  GLY199     -0.1210
     52  CA       -34.4360  130.1120   -8.4360 C.3   199  GLY199      0.1956
     53  C        -35.1240  129.9270   -9.7720 C.2   199  GLY199      0.2612
     54  O        -34.7150  129.0910  -10.5730 O.2   199  GLY199     -0.2717
     55  N        -36.1720  130.7040  -10.0140 N.am  200  ALA200     -0.1965
     56  CA       -36.9100  130.5950  -11.2630 C.3   200  ALA200      0.1728
     57  C        -36.0890  131.1370  -12.4240 C.2   200  ALA200      0.2617
     58  O        -35.8660  130.4460  -13.4140 O.2   200  ALA200     -0.2715
     59  CB       -38.2300  131.3270  -11.1620 C.3   200  ALA200      0.0334
     60  N        -35.6230  132.3720  -12.2870 N.am  201  THR201     -0.1937
     61  CA       -34.9460  133.0510  -13.3830 C.3   201  THR201      0.2028
     62  C        -33.4380  133.1600  -13.1790 C.2   201  THR201      0.2642
     63  O        -32.7310  133.6810  -14.0400 O.2   201  THR201     -0.2714
     64  CB       -35.5140  134.4680  -13.5840 C.3   201  THR201      0.1808
     65  OG1      -35.0930  135.3110  -12.5040 O.3   201  THR201     -0.2208
     66  CG2      -37.0320  134.4270  -13.6290 C.3   201  THR201      0.0379
     67  N        -32.9440  132.6700  -12.0460 N.am  202  MET202     -0.1976
     68  CA       -31.5290  132.8230  -11.7260 C.3   202  MET202      0.1605
     69  C        -31.0290  131.8120  -10.6940 C.2   202  MET202      0.2287
     70  O        -31.7380  131.4670   -9.7500 O.2   202  MET202     -0.2864
     71  CB       -31.2650  134.2480  -11.2310 C.3   202  MET202      0.0413
     72  CG       -29.8240  134.5310  -10.8420 C.3   202  MET202      0.0598
     73  SD       -29.3040  136.1870  -11.3240 S.3   202  MET202     -0.1393
     74  CE       -30.6760  137.1620  -10.7150 C.3   202  MET202      0.0692
     75  N        -35.4170  127.4990  -12.8940 N.3   223  GLY223     -0.1210
     76  CA       -36.5700  126.6440  -13.1030 C.3   223  GLY223      0.1956
     77  C        -37.5380  127.1800  -14.1380 C.2   223  GLY223      0.2611
     78  O        -38.3860  126.4420  -14.6410 O.2   223  GLY223     -0.2717
     79  N        -37.4230  128.4680  -14.4520 N.am  224  ARG224     -0.1979
     80  CA       -38.2430  129.0670  -15.4980 C.3   224  ARG224      0.1597
     81  C        -37.8880  128.4540  -16.8430 C.2   224  ARG224      0.2287
     82  O        -38.7500  128.2880  -17.7070 O.2   224  ARG224     -0.2864
     83  CB       -38.0610  130.5850  -15.5480 C.3   224  ARG224      0.0334
     84  CG       -38.9690  131.2040  -16.6150 C.3   224  ARG224      0.0492
     85  CD       -39.1880  132.6630  -16.2620 C.3   224  ARG224      0.2205
     86  NE       -39.8540  133.2440  -17.4380 N.pl3 224  ARG224     -0.0865
     87  CZ       -39.9410  134.5190  -17.6950 C.cat 224  ARG224      0.5346
     88  NH1      -39.4280  135.4490  -16.9290 N.pl3 224  ARG224      0.1354
     89  NH2      -40.5150  134.8630  -18.8600 N.pl3 224  ARG224      0.1354
     90  N        -39.9070  125.5030  -16.9270 N.3   227  THR227     -0.1218
     91  CA       -41.2890  125.8870  -17.1930 C.3   227  THR227      0.1862
     92  C        -41.4840  126.1780  -18.6720 C.2   227  THR227      0.2287
     93  O        -42.4100  125.6640  -19.2940 O.2   227  THR227     -0.2866
     94  CB       -41.7170  127.1340  -16.3890 C.3   227  THR227      0.1770
     95  OG1      -40.9740  128.2730  -16.8390 O.3   227  THR227     -0.2211
     96  CG2      -41.4840  126.9330  -14.9070 C.3   227  THR227      0.0375
     97  N        -45.8520  125.6280  -14.3930 N.3   242  GLY242     -0.1225
     98  CA       -45.3280  125.6260  -13.0410 C.3   242  GLY242      0.1811
     99  C        -46.1430  124.7180  -12.1440 C.2   242  GLY242      0.2280
    100  O        -45.5960  123.9720  -11.3320 O.2   242  GLY242     -0.2866
    101  N        -45.5580  121.1420  -13.1440 N.3   245  LYS245     -0.1231
    102  CA       -44.2270  120.7380  -12.7120 C.3   245  LYS245      0.1693
    103  C        -44.2540  120.1560  -11.3020 C.2   245  LYS245      0.2591
    104  O        -43.6160  119.1410  -11.0290 O.2   245  LYS245     -0.2718
    105  CB       -43.2660  121.9240  -12.7680 C.3   245  LYS245      0.0285
    106  CG       -41.8250  121.5580  -12.4800 C.3   245  LYS245      0.0035
    107  CD       -41.0080  122.7910  -12.1490 C.3   245  LYS245      0.0206
    108  CE       -41.1120  123.8360  -13.2390 C.3   245  LYS245      0.1093
    109  NZ       -40.3740  125.0740  -12.8640 N.3   245  LYS245     -0.1314
    110  N        -45.0000  120.8040  -10.4130 N.am  246  LYS246     -0.1980
    111  CA       -45.1280  120.3490   -9.0320 C.3   246  LYS246      0.1596
    112  C        -46.1700  119.2470   -8.9040 C.2   246  LYS246      0.2287
    113  O        -45.9450  118.2380   -8.2370 O.2   246  LYS246     -0.2864
    114  CB       -45.4920  121.5190   -8.1140 C.3   246  LYS246      0.0298
    115  CG       -44.5390  122.7070   -8.0340 C.3   246  LYS246      0.0038
    116  CD       -43.2870  122.1720   -7.4410 C.3   246  LYS246      0.0206
    117  CE       -42.3620  123.4020   -7.6180 C.3   246  LYS246      0.1093
    118  NZ       -41.0050  122.8950   -7.8710 N.3   246  LYS246     -0.1314
    119  N        -33.6200  126.9490   -3.1310 N.3   293  GLY293     -0.1210
    120  CA       -34.4840  127.4220   -4.1930 C.3   293  GLY293      0.1956
    121  C        -35.5940  126.4220   -4.4410 C.2   293  GLY293      0.2612
    122  O        -35.5240  125.2810   -3.9840 O.2   293  GLY293     -0.2717
    123  N        -36.6220  126.8510   -5.1650 N.am  294  GLY294     -0.1942
    124  CA       -37.7700  126.0050   -5.4350 C.3   294  GLY294      0.2014
    125  C        -37.4290  124.7940   -6.2820 C.2   294  GLY294      0.2639
    126  O        -37.9190  123.6930   -6.0320 O.2   294  GLY294     -0.2714
    127  N        -36.5740  124.9980   -7.2790 N.am  295  THR295     -0.1950
    128  CA       -36.2020  123.9370   -8.2080 C.3   295  THR295      0.1897
    129  C        -35.3960  122.8360   -7.5160 C.2   295  THR295      0.2313
    130  O        -35.2490  121.7350   -8.0430 O.2   295  THR295     -0.2863
    131  CB       -35.3910  124.4990   -9.3930 C.3   295  THR295      0.1794
    132  OG1      -35.9230  125.7730   -9.7770 O.3   295  THR295     -0.2208
    133  CG2      -35.4470  123.5530  -10.5840 C.3   295  THR295      0.0378
    134  N        -36.3600  121.2440   -5.1360 N.3   297  SER297     -0.1202
    135  CA       -37.3340  120.2720   -4.6510 C.3   297  SER297      0.2020
    136  C        -37.6140  119.1730   -5.6710 C.2   297  SER297      0.2618
    137  O        -38.4380  118.2910   -5.4280 O.2   297  SER297     -0.2717
    138  CB       -38.6420  120.9720   -4.2730 C.3   297  SER297      0.2103
    139  OG       -38.5020  121.6920   -3.0610 O.3   297  SER297     -0.2182
    140  N        -36.9350  119.2280   -6.8130 N.am  298  ILE298     -0.1979
    141  CA       -37.0620  118.1770   -7.8160 C.3   298  ILE298      0.1595
    142  C        -36.5460  116.8600   -7.2480 C.2   298  ILE298      0.2287
    143  O        -35.4500  116.8030   -6.6900 O.2   298  ILE298     -0.2864
    144  CB       -36.3000  118.5190   -9.1100 C.3   298  ILE298      0.0276
    145  CG1      -36.9650  119.6980   -9.8200 C.3   298  ILE298      0.0022
    146  CG2      -36.2600  117.3210  -10.0420 C.3   298  ILE298      0.0022
    147  CD1      -36.3370  120.0370  -11.1540 C.3   298  ILE298      0.0001
    148  N        -42.1530  120.8980    1.7590 N.3   335  SER335     -0.1202
    149  CA       -42.1260  120.9800    0.3060 C.3   335  SER335      0.2020
    150  C        -41.5120  122.2950   -0.1620 C.2   335  SER335      0.2618
    151  O        -40.8420  122.3450   -1.1930 O.2   335  SER335     -0.2717
    152  CB       -43.5400  120.8330   -0.2630 C.3   335  SER335      0.2103
    153  OG       -44.3580  121.9310    0.1120 O.3   335  SER335     -0.2182
    154  N        -41.7400  123.3560    0.6060 N.am  336  ASP336     -0.1973
    155  CA       -41.3030  124.6940    0.2170 C.3   336  ASP336      0.1709
    156  C        -40.0510  125.1550    0.9530 C.2   336  ASP336      0.2293
    157  O        -39.5490  126.2500    0.6990 O.2   336  ASP336     -0.2864
    158  CB       -42.4260  125.7060    0.4560 C.3   336  ASP336      0.1436
    159  CG       -43.5640  125.5590   -0.5330 C.2   336  ASP336      0.3671
    160  OD1      -43.2960  125.2020   -1.6980 O.co2 336  ASP336     -0.2456
    161  OD2      -44.7250  125.8050   -0.1450 O.co2 336  ASP336     -0.2456
    162  N        -36.8690  126.7210   -0.6310 N.3   339  ALA339     -0.1245
    163  CA       -37.1430  128.0090   -1.2560 C.3   339  ALA339      0.1562
    164  C        -37.3060  129.1180   -0.2200 C.2   339  ALA339      0.2260
    165  O        -37.4690  130.2840   -0.5730 O.2   339  ALA339     -0.2867
    166  CB       -38.3860  127.9170   -2.1260 C.3   339  ALA339      0.0290
@<TRIPOS>BOND
     1    93    92    2
     2    89    87    1
     3    92    91    1
     4    82    81    2
     5    87    86    2
     6    87    88    1
     7    86    85    1
     8    91    90    1
     9    91    94    1
    10    81    80    1
    11    95    94    1
    12    84    85    1
    13    84    83    1
    14    94    96    1
    15    83    80    1
    16    80    79    1
    17    78    77    2
    18    79    77   am
    19    97    98    1
    20    77    76    1
    21    63    62    2
    22    66    64    1
    23    64    61    1
    24    64    65    1
    25    58    57    2
    26    61    62    1
    27    61    60    1
    28   108   109    1
    29   108   107    1
    30    62    67   am
    31   101   102    1
    32    76    75    1
    33    98    99    1
    34   105   102    1
    35   105   106    1
    36   102   103    1
    37   106   107    1
    38    57    60   am
    39    57    56    1
    40    99   100    2
    41    67    68    1
    42    68    71    1
    43    68    69    1
    44    73    72    1
    45    73    74    1
    46   103   104    2
    47   103   110   am
    48    56    59    1
    49    56    55    1
    50    71    72    1
    51    27    25    1
    52   147   145    1
    53    69    70    2
    54    20    19    1
    55    19    16    1
    56   133   131    1
    57    54    53    2
    58   110   111    1
    59    18    17    2
    60   146   144    1
    61    55    53   am
    62    25    22    1
    63    25    26    1
    64   145   144    1
    65   132   131    1
    66    53    52    1
    67    17    16    1
    68    17    21   am
    69    16    15    1
    70   131   128    1
    71    22    21    1
    72    22    23    1
    73   144   141    1
    74   111   112    1
    75   111   114    1
    76   112   113    2
    77    24    23    2
    78    52    51    1
    79    23    28   am
    80   128   129    1
    81   128   127    1
    82    15    11   am
    83   114   115    1
    84   130   129    2
    85   115   116    1
    86   118   117    1
    87   141   142    1
    88   141   140    1
    89   117   116    1
    90   127   125   am
    91   142   143    2
    92    11    12    2
    93    11    10    1
    94    28    29    1
    95    46    45    2
    96   140   136   am
    97   125   126    2
    98   125   124    1
    99    45    44    1
   100    14    13    1
   101    29    32    1
   102    29    30    1
   103    13    10    1
   104    10     9    1
   105   136   137    2
   106   136   135    1
   107    32    33    1
   108   124   123    1
   109   123   121   am
   110   134   135    1
   111    44    43    1
   112    44    47    1
   113   135   138    1
   114    30    31    2
   115   121   120    1
   116   121   122    2
   117    49    48   ar
   118   138   139    1
   119    48    50   ar
   120    48    47    1
   121   120   119    1
   122    42    41    1
   123    41    40    1
   124   166   163    1
   125   160   159   ar
   126     7     6   ar
   127    40    39    1
   128   163   162    1
   129   163   164    1
   130   151   150    2
   131     4     3    2
   132     8     6   ar
   133    39    38    1
   134     3     2    1
   135     6     5    1
   136   165   164    2
   137   159   161   ar
   138   159   158    1
   139    34    35    1
   140   152   153    1
   141   152   149    1
   142   150   149    1
   143   150   154   am
   144   155   158    1
   145   155   154    1
   146   155   156    1
   147   149   148    1
   148    38    35    1
   149     5     2    1
   150    35    36    1
   151     2     1    1
   152   157   156    2
   153    36    37    2
