@<TRIPOS>MOLECULE
tmp/5ep2A00.pdb
 101 93 0 0 0
SMALL
GASTEIGER

@<TRIPOS>ATOM
      1  N         -4.3840   59.4040   35.4830 N.3     1  GLY1       -0.1210
      2  CA        -4.2970   57.9680   35.6930 C.3     1  GLY1        0.1956
      3  C         -3.9650   57.7830   37.1670 C.2     1  GLY1        0.2612
      4  O         -3.5780   56.7490   37.6400 O.2     1  GLY1       -0.2717
      5  N         -4.0300   58.8910   37.8580 N.am    2  PHE2       -0.1962
      6  CA        -3.7870   58.8630   39.2860 C.3     2  PHE2        0.1771
      7  C         -4.9810   58.2580   40.0070 C.2     2  PHE2        0.2619
      8  O         -6.1360   58.2800   39.5530 O.2     2  PHE2       -0.2715
      9  CB        -3.6060   60.2930   39.6930 C.3     2  PHE2        0.0574
     10  CG        -2.2470   60.8510   39.3860 C.ar    2  PHE2       -0.0200
     11  CD1       -1.1320   60.3350   39.9810 C.ar    2  PHE2       -0.0042
     12  CD2       -2.1020   61.9390   38.5210 C.ar    2  PHE2       -0.0042
     13  CE1        0.1280   60.8840   39.7530 C.ar    2  PHE2       -0.0003
     14  CE2       -0.8370   62.4930   38.2940 C.ar    2  PHE2       -0.0003
     15  CZ         0.2640   61.9740   38.8740 C.ar    2  PHE2       -0.0000
     16  N         -4.6940   57.7830   41.2120 N.am    3  ILE3       -0.1977
     17  CA        -5.6910   57.2230   42.0950 C.3     3  ILE3        0.1596
     18  C         -5.7870   58.0880   43.3490 C.2     3  ILE3        0.2287
     19  O         -4.7750   58.4430   43.9480 O.2     3  ILE3       -0.2864
     20  CB        -5.3090   55.8000   42.4900 C.3     3  ILE3        0.0276
     21  CG1       -5.4230   54.8780   41.2670 C.3     3  ILE3        0.0022
     22  CG2       -6.1600   55.3150   43.7000 C.3     3  ILE3        0.0022
     23  CD1       -4.7830   53.5330   41.5250 C.3     3  ILE3        0.0001
     24  N         10.4460   57.9240   42.3370 N.3    33  GLY33      -0.1210
     25  CA         9.3480   56.9970   42.4430 C.3    33  GLY33       0.1956
     26  C          8.0030   57.6760   42.3980 C.2    33  GLY33       0.2613
     27  O          7.0180   56.9770   42.6030 O.2    33  GLY33      -0.2717
     28  N          7.9250   58.9700   42.1010 N.am   34  THR34      -0.1938
     29  CA         6.6150   59.5840   41.8780 C.3    34  THR34       0.2028
     30  C          6.2120   59.4260   40.3980 C.2    34  THR34       0.2642
     31  O          7.0480   59.1270   39.5210 O.2    34  THR34      -0.2714
     32  CB         6.5750   61.0500   42.2770 C.3    34  THR34       0.1808
     33  OG1        7.6420   61.7730   41.6460 O.3    34  THR34      -0.2208
     34  CG2        6.7130   61.2020   43.8070 C.3    34  THR34       0.0379
     35  N          4.9300   59.6050   40.1520 N.am   35  GLY35      -0.1954
     36  CA         4.3130   59.2180   38.8760 C.3    35  GLY35       0.1869
     37  C          4.4120   60.2400   37.7450 C.2    35  GLY35       0.2309
     38  O          3.4100   60.8130   37.3040 O.2    35  GLY35      -0.2863
     39  N          2.6640   59.0460   34.5790 N.3    38  VAL38      -0.1245
     40  CA         1.2250   59.0820   34.8290 C.3    38  VAL38       0.1561
     41  C          0.6880   60.5140   34.6960 C.2    38  VAL38       0.2260
     42  O         -0.3440   60.7480   34.0550 O.2    38  VAL38      -0.2867
     43  CB         0.9160   58.5650   36.2530 C.3    38  VAL38       0.0252
     44  CG1       -0.5580   58.8030   36.6230 C.3    38  VAL38       0.0019
     45  CG2        1.2790   57.0840   36.3230 C.3    38  VAL38       0.0019
     46  N          0.0170   61.9010   50.8330 N.3   176  ARG176     -0.1245
     47  CA        -1.2050   61.7310   50.0380 C.3   176  ARG176      0.1563
     48  C         -2.3510   61.0790   50.7810 C.2   176  ARG176      0.2260
     49  O         -3.2890   60.5780   50.1660 O.2   176  ARG176     -0.2867
     50  CB        -0.9050   60.9290   48.7720 C.3   176  ARG176      0.0307
     51  CG        -0.0950   61.7600   47.7730 C.3   176  ARG176      0.0489
     52  CD         0.2720   60.9860   46.4930 C.3   176  ARG176      0.2205
     53  NE        -0.9230   60.5110   45.8350 N.pl3 176  ARG176     -0.0865
     54  CZ        -0.8720   59.8470   44.6810 C.cat 176  ARG176      0.5346
     55  NH1        0.2870   59.4780   44.1660 N.pl3 176  ARG176      0.1354
     56  NH2       -2.0310   59.5080   44.1120 N.pl3 176  ARG176      0.1354
     57  N         -4.0660   53.1550   46.3130 N.3   183  ILE183     -0.1245
     58  CA        -3.0340   52.7010   45.3830 C.3   183  ILE183      0.1561
     59  C         -2.6080   51.2990   45.7650 C.2   183  ILE183      0.2260
     60  O         -2.4800   50.4120   44.9020 O.2   183  ILE183     -0.2867
     61  CB        -1.8160   53.6310   45.3380 C.3   183  ILE183      0.0252
     62  CG1       -2.2370   55.0130   44.8320 C.3   183  ILE183      0.0019
     63  CG2       -0.7380   53.0560   44.4390 C.3   183  ILE183      0.0019
     64  CD1       -1.1690   56.0910   45.0990 C.3   183  ILE183      0.0001
     65  N         -5.0710   48.7740   44.5690 N.3   186  ALA186     -0.1231
     66  CA        -5.0310   48.5510   43.1290 C.3   186  ALA186      0.1694
     67  C         -3.8180   47.6800   42.7820 C.2   186  ALA186      0.2591
     68  O         -3.9080   46.7550   41.9540 O.2   186  ALA186     -0.2718
     69  CB        -4.9480   49.9070   42.4410 C.3   186  ALA186      0.0304
     70  N         -2.6740   47.9670   43.4080 N.am  187  LEU187     -0.1980
     71  CA        -1.4960   47.1350   43.1880 C.3   187  LEU187      0.1596
     72  C         -1.6890   45.7050   43.6790 C.2   187  LEU187      0.2287
     73  O         -1.2360   44.7560   43.0200 O.2   187  LEU187     -0.2864
     74  CB        -0.2420   47.7310   43.8570 C.3   187  LEU187      0.0297
     75  CG         0.2060   49.0580   43.2580 C.3   187  LEU187      0.0022
     76  CD1        1.2120   49.6990   44.2110 C.3   187  LEU187      0.0001
     77  CD2        0.8060   48.8750   41.8450 C.3   187  LEU187      0.0001
     78  N         -3.6360   43.8970   41.0490 N.3   190  LEU190     -0.1245
     79  CA        -2.8820   43.6950   39.8100 C.3   190  LEU190      0.1561
     80  C         -1.7780   42.6630   40.0040 C.2   190  LEU190      0.2260
     81  O         -1.5900   41.7630   39.1980 O.2   190  LEU190     -0.2867
     82  CB        -2.3180   45.0260   39.3640 C.3   190  LEU190      0.0270
     83  CG        -1.4800   45.0450   38.0940 C.3   190  LEU190      0.0019
     84  CD1       -2.3420   44.5690   36.9110 C.3   190  LEU190      0.0001
     85  CD2       -0.9950   46.4800   37.8650 C.3   190  LEU190      0.0001
     86  N          5.9080   55.7630   45.0310 N.3   219  VAL219     -0.1245
     87  CA         5.0280   54.7170   44.5370 C.3   219  VAL219      0.1561
     88  C          5.8590   53.5490   44.0130 C.2   219  VAL219      0.2260
     89  O          5.4120   52.4180   44.0900 O.2   219  VAL219     -0.2867
     90  CB         4.0240   55.2880   43.5090 C.3   219  VAL219      0.0252
     91  CG1        3.1560   54.1910   42.9480 C.3   219  VAL219      0.0019
     92  CG2        3.1490   56.3200   44.1790 C.3   219  VAL219      0.0019
     93  N          5.1510   49.7820   45.0570 N.3   223  GLN223     -0.1245
     94  CA         5.0330   48.6690   44.1010 C.3   223  GLN223      0.1566
     95  C          5.9630   47.5120   44.4880 C.2   223  GLN223      0.2260
     96  O          5.5650   46.3500   44.4410 O.2   223  GLN223     -0.2867
     97  CB         5.4010   49.1450   42.6850 C.3   223  GLN223      0.0367
     98  CG         4.4720   50.2110   42.0920 C.3   223  GLN223      0.0905
     99  CD         5.0740   50.9390   40.8870 C.2   223  GLN223      0.2608
    100  OE1        6.2370   50.7380   40.5240 O.2   223  GLN223     -0.2717
    101  NE2        4.2650   51.7830   40.2610 N.am  223  GLN223     -0.0878
@<TRIPOS>BOND
     1    42    41    2
     2    39    40    1
     3    41    40    1
     4    40    43    1
     5     1     2    1
     6     2     3    1
     7    43    45    1
     8    43    44    1
     9    84    83    1
    10     3     4    2
    11     3     5   am
    12    38    37    2
    13    37    36    1
    14     5     6    1
    15    85    83    1
    16    83    82    1
    17    14    12   ar
    18    14    15   ar
    19    12    10   ar
    20    15    13   ar
    21    36    35    1
    22    81    80    2
    23     6     9    1
    24     6     7    1
    25    82    79    1
    26    10     9    1
    27    10    11   ar
    28    31    30    2
    29     8     7    2
    30    13    11   ar
    31    79    80    1
    32    79    78    1
    33     7    16   am
    34    35    30   am
    35   101    99   am
    36    30    29    1
    37   100    99    2
    38    99    98    1
    39    16    17    1
    40    21    23    1
    41    21    20    1
    42    33    32    1
    43    77    75    1
    44    29    28    1
    45    29    32    1
    46    68    67    2
    47    98    97    1
    48    17    20    1
    49    17    18    1
    50    28    26   am
    51    32    34    1
    52    24    25    1
    53    26    25    1
    54    26    27    2
    55    69    66    1
    56    20    22    1
    57    97    94    1
    58    67    66    1
    59    67    70   am
    60    91    90    1
    61    73    72    2
    62    66    65    1
    63    71    70    1
    64    71    72    1
    65    71    74    1
    66    75    74    1
    67    75    76    1
    68    18    19    2
    69    90    92    1
    70    90    87    1
    71    88    89    2
    72    88    87    1
    73    94    95    1
    74    94    93    1
    75    56    54    1
    76    55    54    1
    77    63    61    1
    78    96    95    2
    79    87    86    1
    80    54    53    2
    81    62    64    1
    82    62    61    1
    83    60    59    2
    84    61    58    1
    85    58    59    1
    86    58    57    1
    87    53    52    1
    88    52    51    1
    89    51    50    1
    90    50    47    1
    91    47    48    1
    92    47    46    1
    93    49    48    2
