@<TRIPOS>MOLECULE
tmp/5ep3A00.pdb
 101 93 0 0 0
SMALL
GASTEIGER

@<TRIPOS>ATOM
      1  N         -4.6210   58.1910   35.4100 N.3     1  GLY1       -0.1210
      2  CA        -4.1100   56.9810   36.0320 C.3     1  GLY1        0.1956
      3  C         -3.8570   57.1620   37.5140 C.2     1  GLY1        0.2612
      4  O         -3.5480   56.2000   38.2370 O.2     1  GLY1       -0.2717
      5  N         -3.9780   58.4080   37.9680 N.am    2  PHE2       -0.1962
      6  CA        -3.8010   58.7040   39.3810 C.3     2  PHE2        0.1771
      7  C         -4.9260   58.0850   40.1970 C.2     2  PHE2        0.2619
      8  O         -6.0720   57.9900   39.7530 O.2     2  PHE2       -0.2715
      9  CB        -3.7620   60.2130   39.6260 C.3     2  PHE2        0.0574
     10  CG        -2.4020   60.8320   39.4430 C.ar    2  PHE2       -0.0200
     11  CD1       -1.3140   60.3900   40.1810 C.ar    2  PHE2       -0.0042
     12  CD2       -2.2170   61.8670   38.5460 C.ar    2  PHE2       -0.0042
     13  CE1       -0.0600   60.9660   40.0150 C.ar    2  PHE2       -0.0003
     14  CE2       -0.9770   62.4450   38.3750 C.ar    2  PHE2       -0.0003
     15  CZ         0.1040   61.9980   39.1080 C.ar    2  PHE2       -0.0000
     16  N         -4.5860   57.6740   41.4130 N.am    3  ILE3       -0.1977
     17  CA        -5.5410   57.1230   42.3610 C.3     3  ILE3        0.1596
     18  C         -5.5420   58.0160   43.5870 C.2     3  ILE3        0.2287
     19  O         -4.4760   58.3520   44.1130 O.2     3  ILE3       -0.2864
     20  CB        -5.1870   55.6770   42.7490 C.3     3  ILE3        0.0276
     21  CG1       -5.3660   54.7450   41.5520 C.3     3  ILE3        0.0022
     22  CG2       -6.0250   55.2180   43.9340 C.3     3  ILE3        0.0022
     23  CD1       -4.9800   53.3190   41.8530 C.3     3  ILE3        0.0001
     24  N          9.6110   58.0870   42.1250 N.3    33  GLY33      -0.1210
     25  CA         8.4640   57.2480   42.3960 C.3    33  GLY33       0.1956
     26  C          7.1730   57.9800   42.6740 C.2    33  GLY33       0.2613
     27  O          6.2460   57.3760   43.2180 O.2    33  GLY33      -0.2717
     28  N          7.0570   59.2550   42.2970 N.am   34  THR34      -0.1938
     29  CA         5.8370   59.9870   42.6010 C.3    34  THR34       0.2028
     30  C          4.8290   59.9960   41.4630 C.2    34  THR34       0.2642
     31  O          3.7080   60.4760   41.6660 O.2    34  THR34      -0.2714
     32  CB         6.1500   61.4310   43.0020 C.3    34  THR34       0.1808
     33  OG1        7.0630   62.0090   42.0610 O.3    34  THR34      -0.2208
     34  CG2        6.7440   61.4660   44.3950 C.3    34  THR34       0.0379
     35  N          5.1910   59.4860   40.2850 N.am   35  GLY35      -0.1954
     36  CA         4.2420   59.3200   39.1960 C.3    35  GLY35       0.1869
     37  C          4.2940   60.3660   38.1030 C.2    35  GLY35       0.2309
     38  O          3.2580   60.8910   37.6880 O.2    35  GLY35      -0.2863
     39  N          2.6240   59.1140   34.8500 N.3    38  VAL38      -0.1245
     40  CA         1.1830   59.1030   35.0730 C.3    38  VAL38       0.1561
     41  C          0.6220   60.5090   34.9430 C.2    38  VAL38       0.2260
     42  O         -0.4430   60.7170   34.3510 O.2    38  VAL38      -0.2867
     43  CB         0.8600   58.4950   36.4470 C.3    38  VAL38       0.0252
     44  CG1       -0.6040   58.7020   36.7850 C.3    38  VAL38       0.0019
     45  CG2        1.2040   57.0170   36.4510 C.3    38  VAL38       0.0019
     46  N          0.1430   61.9850   51.1260 N.3   176  ARG176     -0.1245
     47  CA        -1.0700   61.7960   50.3410 C.3   176  ARG176      0.1563
     48  C         -2.1840   61.1070   51.1230 C.2   176  ARG176      0.2260
     49  O         -3.1210   60.5830   50.5160 O.2   176  ARG176     -0.2867
     50  CB        -0.7530   61.0200   49.0600 C.3   176  ARG176      0.0307
     51  CG         0.0740   61.8180   48.0680 C.3   176  ARG176      0.0489
     52  CD         0.3810   61.0100   46.7970 C.3   176  ARG176      0.2205
     53  NE        -0.8400   60.5380   46.1560 N.pl3 176  ARG176     -0.0865
     54  CZ        -0.8650   59.8670   45.0080 C.cat 176  ARG176      0.5346
     55  NH1        0.2730   59.5910   44.3740 N.pl3 176  ARG176      0.1354
     56  NH2       -2.0260   59.4720   44.4960 N.pl3 176  ARG176      0.1354
     57  N         -4.0070   53.1180   46.8180 N.3   183  ILE183     -0.1245
     58  CA        -3.0330   52.6260   45.8470 C.3   183  ILE183      0.1561
     59  C         -2.5830   51.2200   46.2120 C.2   183  ILE183      0.2260
     60  O         -2.3890   50.3630   45.3390 O.2   183  ILE183     -0.2867
     61  CB        -1.8290   53.5810   45.7610 C.3   183  ILE183      0.0252
     62  CG1       -2.2510   54.9540   45.2350 C.3   183  ILE183      0.0019
     63  CG2       -0.7180   52.9770   44.8980 C.3   183  ILE183      0.0019
     64  CD1       -1.1980   55.9970   45.4530 C.3   183  ILE183      0.0001
     65  N         -5.1190   48.7110   45.0850 N.3   186  ALA186     -0.1231
     66  CA        -5.0950   48.4830   43.6460 C.3   186  ALA186      0.1694
     67  C         -3.9080   47.6130   43.2600 C.2   186  ALA186      0.2591
     68  O         -4.0300   46.7130   42.4200 O.2   186  ALA186     -0.2718
     69  CB        -5.0520   49.8150   42.8980 C.3   186  ALA186      0.0304
     70  N         -2.7510   47.8740   43.8680 N.am  187  LEU187     -0.1980
     71  CA        -1.5600   47.0760   43.6040 C.3   187  LEU187      0.1596
     72  C         -1.7310   45.6480   44.1030 C.2   187  LEU187      0.2287
     73  O         -1.2730   44.6970   43.4570 O.2   187  LEU187     -0.2864
     74  CB        -0.3490   47.7310   44.2610 C.3   187  LEU187      0.0297
     75  CG         0.1480   49.0340   43.6360 C.3   187  LEU187      0.0022
     76  CD1        1.1780   49.6970   44.5390 C.3   187  LEU187      0.0001
     77  CD2        0.7360   48.7380   42.2660 C.3   187  LEU187      0.0001
     78  N         -3.8080   43.7890   41.5110 N.3   190  LEU190     -0.1245
     79  CA        -3.0980   43.6200   40.2480 C.3   190  LEU190      0.1561
     80  C         -1.9500   42.6270   40.3870 C.2   190  LEU190      0.2260
     81  O         -1.7720   41.7450   39.5380 O.2   190  LEU190     -0.2867
     82  CB        -2.5890   44.9740   39.7550 C.3   190  LEU190      0.0270
     83  CG        -1.9630   44.9900   38.3590 C.3   190  LEU190      0.0019
     84  CD1       -2.9860   44.5820   37.3060 C.3   190  LEU190      0.0001
     85  CD2       -1.4010   46.3690   38.0560 C.3   190  LEU190      0.0001
     86  N          5.8220   55.5620   45.3870 N.3   219  VAL219     -0.1245
     87  CA         4.9670   54.4900   44.8820 C.3   219  VAL219      0.1561
     88  C          5.7940   53.3300   44.3440 C.2   219  VAL219      0.2260
     89  O          5.3490   52.1770   44.3770 O.2   219  VAL219     -0.2867
     90  CB         4.0010   55.0530   43.8280 C.3   219  VAL219      0.0252
     91  CG1        3.0870   53.9550   43.2700 C.3   219  VAL219      0.0019
     92  CG2        3.1800   56.1740   44.4430 C.3   219  VAL219      0.0019
     93  N          5.1750   49.5890   45.3840 N.3   223  GLN223     -0.1245
     94  CA         5.1180   48.4840   44.4290 C.3   223  GLN223      0.1566
     95  C          6.0640   47.3540   44.8220 C.2   223  GLN223      0.2260
     96  O          5.6840   46.1770   44.7700 O.2   223  GLN223     -0.2867
     97  CB         5.4400   48.9900   43.0220 C.3   223  GLN223      0.0367
     98  CG         4.3390   49.8580   42.4360 C.3   223  GLN223      0.0905
     99  CD         4.7930   50.6740   41.2420 C.2   223  GLN223      0.2608
    100  OE1        5.9750   50.6890   40.8940 O.2   223  GLN223     -0.2717
    101  NE2        3.8530   51.3710   40.6140 N.am  223  GLN223     -0.0878
@<TRIPOS>BOND
     1    42    41    2
     2    39    40    1
     3    41    40    1
     4    40    43    1
     5     1     2    1
     6     2     3    1
     7    43    45    1
     8    43    44    1
     9    84    83    1
    10     3     5   am
    11     3     4    2
    12    38    37    2
    13     5     6    1
    14    85    83    1
    15    37    36    1
    16    83    82    1
    17    14    12   ar
    18    14    15   ar
    19    12    10   ar
    20    15    13   ar
    21    36    35    1
    22     6     9    1
    23     6     7    1
    24    10     9    1
    25    10    11   ar
    26    81    80    2
    27     8     7    2
    28    82    79    1
    29    13    11   ar
    30     7    16   am
    31    79    80    1
    32    79    78    1
    33    35    30   am
    34   101    99   am
    35   100    99    2
    36    99    98    1
    37    16    17    1
    38    30    31    2
    39    30    29    1
    40    21    23    1
    41    21    20    1
    42    33    32    1
    43    24    25    1
    44    77    75    1
    45    28    29    1
    46    28    26   am
    47    17    20    1
    48    17    18    1
    49    25    26    1
    50    68    67    2
    51    98    97    1
    52    29    32    1
    53    26    27    2
    54    20    22    1
    55    69    66    1
    56    32    34    1
    57    97    94    1
    58    67    66    1
    59    67    70   am
    60    91    90    1
    61    73    72    2
    62    18    19    2
    63    71    70    1
    64    71    72    1
    65    71    74    1
    66    75    74    1
    67    75    76    1
    68    66    65    1
    69    90    92    1
    70    90    87    1
    71    88    89    2
    72    88    87    1
    73    55    54    1
    74    94    95    1
    75    94    93    1
    76    56    54    1
    77    96    95    2
    78    87    86    1
    79    63    61    1
    80    54    53    2
    81    62    64    1
    82    62    61    1
    83    60    59    2
    84    61    58    1
    85    58    59    1
    86    58    57    1
    87    53    52    1
    88    52    51    1
    89    51    50    1
    90    50    47    1
    91    47    48    1
    92    47    46    1
    93    49    48    2
