@<TRIPOS>MOLECULE
tmp/5ep3A01.pdb
 122 119 0 0 0
SMALL
GASTEIGER

@<TRIPOS>ATOM
      1  N         -1.2380   74.6510   25.1100 N.3    23  LYS23      -0.1231
      2  CA        -0.0460   74.0240   24.5520 C.3    23  LYS23       0.1693
      3  C          1.2140   74.3770   25.3360 C.2    23  LYS23       0.2592
      4  O          2.3050   73.9220   24.9740 O.2    23  LYS23      -0.2718
      5  CB         0.1170   74.4250   23.0840 C.3    23  LYS23       0.0285
      6  CG         1.0070   73.4980   22.2920 C.3    23  LYS23       0.0035
      7  CD         0.6170   73.4980   20.8420 C.3    23  LYS23       0.0206
      8  CE         1.7910   73.0900   19.9960 C.3    23  LYS23       0.1093
      9  NZ         1.7130   73.7180   18.6540 N.3    23  LYS23      -0.1314
     10  N          1.0900   75.1680   26.4020 N.am   24  ALA24      -0.1966
     11  CA         2.2580   75.5450   27.1840 C.3    24  ALA24       0.1728
     12  C          2.9540   74.3060   27.7350 C.2    24  ALA24       0.2616
     13  O          2.3110   73.3290   28.1300 O.2    24  ALA24      -0.2715
     14  CB         1.8600   76.4800   28.3270 C.3    24  ALA24       0.0334
     15  N          4.2800   74.3500   27.7430 N.am   25  THR25      -0.1951
     16  CA         5.0620   73.2300   28.2380 C.3    25  THR25       0.1897
     17  C          4.8530   73.0390   29.7340 C.2    25  THR25       0.2313
     18  O          4.8340   74.0000   30.5120 O.2    25  THR25      -0.2863
     19  CB         6.5400   73.4480   27.9310 C.3    25  THR25       0.1794
     20  OG1        6.7250   73.5220   26.5110 O.3    25  THR25      -0.2208
     21  CG2        7.3760   72.3080   28.4940 C.3    25  THR25       0.0378
     22  N         14.4970   72.6710   18.3830 N.3   117  PHE117     -0.1227
     23  CA        13.2670   71.9540   18.0570 C.3   117  PHE117      0.1736
     24  C         12.0730   72.4840   18.8430 C.2   117  PHE117      0.2595
     25  O         10.9540   72.5600   18.3190 O.2   117  PHE117     -0.2718
     26  CB        13.4580   70.4580   18.3230 C.3   117  PHE117      0.0547
     27  CG        12.1900   69.6630   18.2280 C.ar  117  PHE117     -0.0202
     28  CD1       11.5330   69.5290   17.0150 C.ar  117  PHE117     -0.0042
     29  CD2       11.6560   69.0460   19.3460 C.ar  117  PHE117     -0.0042
     30  CE1       10.3640   68.8010   16.9160 C.ar  117  PHE117     -0.0003
     31  CE2       10.4860   68.3110   19.2530 C.ar  117  PHE117     -0.0003
     32  CZ         9.8380   68.1940   18.0360 C.ar  117  PHE117     -0.0000
     33  N         12.2820   72.8440   20.1060 N.am  118  ILE118     -0.1966
     34  CA        11.1800   73.3460   20.9180 C.3   118  ILE118      0.1727
     35  C         10.6960   74.6980   20.4000 C.2   118  ILE118      0.2616
     36  O          9.4960   74.9930   20.4260 O.2   118  ILE118     -0.2715
     37  CB        11.6220   73.3980   22.3860 C.3   118  ILE118      0.0290
     38  CG1       11.9630   71.9840   22.8440 C.3   118  ILE118      0.0022
     39  CG2       10.5430   73.9880   23.2680 C.3   118  ILE118      0.0023
     40  CD1       12.1380   71.8630   24.3000 C.3   118  ILE118      0.0001
     41  N         11.6080   75.5250   19.8900 N.am  119  GLN119     -0.1963
     42  CA        11.2080   76.8160   19.3340 C.3   119  GLN119      0.1733
     43  C         10.4810   76.6450   18.0070 C.2   119  GLN119      0.2617
     44  O          9.3440   77.1040   17.8380 O.2   119  GLN119     -0.2715
     45  CB        12.4310   77.7110   19.1460 C.3   119  GLN119      0.0408
     46  CG        13.1720   78.0640   20.4130 C.3   119  GLN119      0.0908
     47  CD        14.3510   78.9770   20.1390 C.2   119  GLN119      0.2608
     48  OE1       15.5010   78.6140   20.3820 O.2   119  GLN119     -0.2717
     49  NE2       14.0700   80.1680   19.6190 N.am  119  GLN119     -0.0878
     50  N         11.1300   75.9920   17.0440 N.am  120  THR120     -0.1937
     51  CA        10.6500   75.9730   15.6710 C.3   120  THR120      0.2028
     52  C          9.8190   74.7490   15.3280 C.2   120  THR120      0.2642
     53  O          9.0620   74.7950   14.3550 O.2   120  THR120     -0.2714
     54  CB        11.8320   76.0340   14.6980 C.3   120  THR120      0.1808
     55  OG1       12.5620   74.8020   14.7770 O.3   120  THR120     -0.2208
     56  CG2       12.7560   77.1900   15.0520 C.3   120  THR120      0.0379
     57  N          9.9420   73.6600   16.0780 N.am  121  GLY121     -0.1954
     58  CA         9.3380   72.4150   15.6620 C.3   121  GLY121      0.1869
     59  C         10.1200   71.6550   14.6100 C.2   121  GLY121      0.2309
     60  O          9.6630   70.5950   14.1660 O.2   121  GLY121     -0.2863
     61  N          7.2640   68.8000   13.0750 N.3   134  VAL134     -0.1231
     62  CA         6.1040   68.1640   13.6870 C.3   134  VAL134      0.1692
     63  C          5.4920   69.1350   14.6890 C.2   134  VAL134      0.2592
     64  O          6.0970   70.1400   15.0670 O.2   134  VAL134     -0.2718
     65  CB         6.4590   66.8370   14.3920 C.3   134  VAL134      0.0266
     66  CG1        6.8850   65.7760   13.3820 C.3   134  VAL134      0.0020
     67  CG2        7.5460   67.0720   15.4480 C.3   134  VAL134      0.0020
     68  N          4.2840   68.8070   15.1370 N.am  135  ASP135     -0.1960
     69  CA         3.5520   69.5970   16.1270 C.3   135  ASP135      0.1840
     70  C          3.3550   68.7330   17.3710 C.2   135  ASP135      0.2622
     71  O          2.5040   67.8380   17.3820 O.2   135  ASP135     -0.2715
     72  CB         2.2200   70.0650   15.5470 C.3   135  ASP135      0.1450
     73  CG         1.3290   70.7520   16.5690 C.2   135  ASP135      0.3671
     74  OD1        1.8070   71.1410   17.6560 O.co2 135  ASP135     -0.2456
     75  OD2        0.1360   70.9330   16.2600 O.co2 135  ASP135     -0.2456
     76  N          4.1330   68.9910   18.4190 N.am  136  VAL136     -0.1963
     77  CA         4.0300   68.2310   19.6580 C.3   136  VAL136      0.1727
     78  C          3.8120   69.1890   20.8220 C.2   136  VAL136      0.2616
     79  O          4.3580   70.2990   20.8510 O.2   136  VAL136     -0.2715
     80  CB         5.2720   67.3380   19.9040 C.3   136  VAL136      0.0290
     81  CG1        5.4600   66.3560   18.7680 C.3   136  VAL136      0.0023
     82  CG2        6.5210   68.1760   20.0920 C.3   136  VAL136      0.0023
     83  N          2.9990   68.7620   21.7790 N.am  137  ARG137     -0.1963
     84  CA         2.9060   69.4380   23.0620 C.3   137  ARG137      0.1729
     85  C          3.9110   68.7850   24.0000 C.2   137  ARG137      0.2616
     86  O          3.9390   67.5560   24.1150 O.2   137  ARG137     -0.2715
     87  CB         1.4850   69.3410   23.6210 C.3   137  ARG137      0.0348
     88  CG         1.1900   70.3040   24.7560 C.3   137  ARG137      0.0492
     89  CD         1.5320   69.7330   26.1310 C.3   137  ARG137      0.2205
     90  NE         1.2650   70.7380   27.1530 N.pl3 137  ARG137     -0.0865
     91  CZ         0.0750   70.9410   27.7060 C.cat 137  ARG137      0.5346
     92  NH1       -0.9540   70.1760   27.3650 N.pl3 137  ARG137      0.1354
     93  NH2       -0.0820   71.9050   28.6040 N.pl3 137  ARG137      0.1354
     94  N          4.7500   69.5980   24.6430 N.am  138  PHE138     -0.1974
     95  CA         5.8360   69.0780   25.4630 C.3   138  PHE138      0.1639
     96  C          5.4180   68.9270   26.9180 C.2   138  PHE138      0.2290
     97  O          4.7430   69.7930   27.4850 O.2   138  PHE138     -0.2864
     98  CB         7.0660   69.9830   25.4010 C.3   138  PHE138      0.0560
     99  CG         7.7300   70.0120   24.0660 C.ar  138  PHE138     -0.0200
    100  CD1        8.5790   68.9890   23.6780 C.ar  138  PHE138     -0.0042
    101  CD2        7.5100   71.0660   23.1950 C.ar  138  PHE138     -0.0042
    102  CE1        9.1940   69.0170   22.4420 C.ar  138  PHE138     -0.0003
    103  CE2        8.1170   71.1000   21.9610 C.ar  138  PHE138     -0.0003
    104  CZ         8.9640   70.0760   21.5820 C.ar  138  PHE138     -0.0000
    105  N         12.6800   78.2090   28.5850 N.3   162  ARG162     -0.1245
    106  CA        11.7350   77.9180   27.5160 C.3   162  ARG162      0.1563
    107  C         10.7860   76.7900   27.9030 C.2   162  ARG162      0.2260
    108  O          9.6580   76.7390   27.4060 O.2   162  ARG162     -0.2867
    109  CB        12.4920   77.5640   26.2340 C.3   162  ARG162      0.0307
    110  CG        11.6400   77.5810   24.9790 C.3   162  ARG162      0.0489
    111  CD        11.0210   78.9510   24.7630 C.3   162  ARG162      0.2205
    112  NE        10.1730   78.9950   23.5760 N.pl3 162  ARG162     -0.0865
    113  CZ        10.4520   79.6990   22.4850 C.cat 162  ARG162      0.5346
    114  NH1       11.5580   80.4290   22.4290 N.pl3 162  ARG162      0.1354
    115  NH2        9.6220   79.6800   21.4520 N.pl3 162  ARG162      0.1354
    116  N          7.4050   76.5770   31.9710 N.3   165  VAL165     -0.1245
    117  CA         6.2290   77.4340   31.8660 C.3   165  VAL165      0.1561
    118  C          5.1910   77.0260   32.9020 C.2   165  VAL165      0.2260
    119  O          4.8300   77.8220   33.7770 O.2   165  VAL165     -0.2867
    120  CB         5.6320   77.3930   30.4500 C.3   165  VAL165      0.0252
    121  CG1        4.4660   78.3850   30.3360 C.3   165  VAL165      0.0019
    122  CG2        6.7210   77.6680   29.4060 C.3   165  VAL165      0.0019
@<TRIPOS>BOND
     1    61    62    1
     2    66    65    1
     3    62    65    1
     4    62    63    1
     5    60    59    2
     6    53    52    2
     7    65    67    1
     8    59    58    1
     9    63    64    2
    10    63    68   am
    11    54    55    1
    12    54    56    1
    13    54    51    1
    14    68    69    1
    15    52    51    1
    16    52    57   am
    17    72    69    1
    18    72    73    1
    19    58    57    1
    20    51    50    1
    21    69    70    1
    22    75    73   ar
    23    73    74   ar
    24    30    28   ar
    25    30    32   ar
    26    28    27   ar
    27    50    43   am
    28    70    71    2
    29    70    76   am
    30    44    43    2
    31    43    42    1
    32    32    31   ar
    33    23    26    1
    34    23    22    1
    35    23    24    1
    36    27    26    1
    37    27    29   ar
    38    25    24    2
    39    76    77    1
    40     9     8    1
    41    81    80    1
    42    24    33   am
    43    45    42    1
    44    45    46    1
    45    31    29   ar
    46    42    41    1
    47    49    47   am
    48    77    80    1
    49    77    78    1
    50    41    35   am
    51    80    82    1
    52     8     7    1
    53    33    34    1
    54    47    48    2
    55    47    46    1
    56    35    36    2
    57    35    34    1
    58    78    79    2
    59    78    83   am
    60     7     6    1
    61    34    37    1
    62   115   113    1
    63   104   103   ar
    64   104   102   ar
    65    83    84    1
    66   103   101   ar
    67     6     5    1
    68    37    38    1
    69    37    39    1
    70   114   113    1
    71   102   100   ar
    72   113   112    2
    73    38    40    1
    74    84    87    1
    75    84    85    1
    76     5     2    1
    77   101    99   ar
    78   112   111    1
    79    87    88    1
    80   100    99   ar
    81    85    86    2
    82    85    94   am
    83    99    98    1
    84     2     1    1
    85     2     3    1
    86    94    95    1
    87    88    89    1
    88   111   110    1
    89     4     3    2
    90   110   109    1
    91     3    10   am
    92    98    95    1
    93    95    96    1
    94    89    90    1
    95   109   106    1
    96    10    11    1
    97    20    19    1
    98    96    97    2
    99    90    91    2
   100    11    12    1
   101    11    14    1
   102    92    91    1
   103   108   107    2
   104   106   107    1
   105   106   105    1
   106    91    93    1
   107    12    15   am
   108    12    13    2
   109    15    16    1
   110    19    16    1
   111    19    21    1
   112    16    17    1
   113   122   120    1
   114    17    18    2
   115   121   120    1
   116   120   117    1
   117   117   116    1
   118   117   118    1
   119   118   119    2
