@<TRIPOS>MOLECULE
tmp/5ep4A00.pdb
 156 147 0 0 0
SMALL
GASTEIGER

@<TRIPOS>ATOM
      1  N         -4.8240   54.5650   34.2840 N.3     1  GLY1       -0.1210
      2  CA        -4.3230   53.6740   35.3200 C.3     1  GLY1        0.1956
      3  C         -4.0220   54.3080   36.6680 C.2     1  GLY1        0.2612
      4  O         -3.5060   53.6560   37.5530 O.2     1  GLY1       -0.2717
      5  N         -4.3190   55.5930   36.8240 N.am    2  PHE2       -0.1962
      6  CA        -4.1910   56.2200   38.1290 C.3     2  PHE2        0.1771
      7  C         -5.1830   55.6170   39.0950 C.2     2  PHE2        0.2619
      8  O         -6.3770   55.5280   38.8150 O.2     2  PHE2       -0.2715
      9  CB        -4.4530   57.7040   38.0150 C.3     2  PHE2        0.0574
     10  CG        -3.2230   58.5170   37.8530 C.ar    2  PHE2       -0.0200
     11  CD1       -2.0420   58.1350   38.4720 C.ar    2  PHE2       -0.0042
     12  CD2       -3.2290   59.6430   37.0510 C.ar    2  PHE2       -0.0042
     13  CE1       -0.8860   58.8790   38.3130 C.ar    2  PHE2       -0.0003
     14  CE2       -2.1260   60.3940   36.9690 C.ar    2  PHE2       -0.0003
     15  CZ        -0.9590   60.0260   37.6090 C.ar    2  PHE2       -0.0000
     16  N         -4.7010   55.2440   40.2570 N.am    3  ILE3       -0.1977
     17  CA        -5.5700   54.8830   41.3650 C.3     3  ILE3        0.1596
     18  C         -5.2810   55.9030   42.4530 C.2     3  ILE3        0.2287
     19  O         -4.1320   56.3350   42.6220 O.2     3  ILE3       -0.2864
     20  CB        -5.3290   53.4150   41.8160 C.3     3  ILE3        0.0276
     21  CG1       -5.8180   52.5000   40.6900 C.3     3  ILE3        0.0022
     22  CG2       -6.0370   53.0510   43.1260 C.3     3  ILE3        0.0022
     23  CD1       -5.3820   51.0860   40.8120 C.3     3  ILE3        0.0001
     24  N         -3.2230   63.9310   44.8120 N.3     9  MET9       -0.1245
     25  CA        -3.4570   63.3400   43.4970 C.3     9  MET9        0.1570
     26  C         -4.6360   63.9930   42.8170 C.2     9  MET9        0.2261
     27  O         -4.6260   64.1220   41.5740 O.2     9  MET9       -0.2867
     28  CB        -3.6940   61.8300   43.6110 C.3     9  MET9        0.0387
     29  CG        -2.4460   61.0180   43.9930 C.3     9  MET9        0.0595
     30  SD        -1.0760   61.2280   42.7940 S.3     9  MET9       -0.1393
     31  CE        -1.7600   60.4600   41.3680 C.3     9  MET9        0.0692
     32  N         11.6210   58.2780   42.1210 N.3    32  SER32      -0.1202
     33  CA        11.5580   56.9960   41.4370 C.3    32  SER32       0.2020
     34  C         10.2940   56.2460   41.8410 C.2    32  SER32       0.2619
     35  O          9.9090   56.2590   43.0220 O.2    32  SER32      -0.2717
     36  CB        12.8020   56.1700   41.7740 C.3    32  SER32       0.2103
     37  OG        12.6510   54.8080   41.4250 O.3    32  SER32      -0.2182
     38  N          9.6350   55.6670   40.8560 N.am   33  GLY33      -0.1942
     39  CA         8.4590   54.8510   41.0440 C.3    33  GLY33       0.2014
     40  C          7.1880   55.5800   41.3860 C.2    33  GLY33       0.2640
     41  O          6.2840   54.9480   41.8890 O.2    33  GLY33      -0.2714
     42  N          7.0600   56.8750   41.0840 N.am   34  THR34      -0.1936
     43  CA         5.8530   57.6210   41.4690 C.3    34  THR34       0.2028
     44  C          4.7530   57.6120   40.4240 C.2    34  THR34       0.2643
     45  O          3.6680   58.1410   40.6750 O.2    34  THR34      -0.2714
     46  CB         6.1900   59.0900   41.8570 C.3    34  THR34       0.1808
     47  OG1        7.0740   59.6690   40.8750 O.3    34  THR34      -0.2208
     48  CG2        6.8660   59.1440   43.2090 C.3    34  THR34       0.0379
     49  N          4.9720   57.0080   39.2610 N.am   35  GLY35      -0.1939
     50  CA         3.9580   56.8880   38.2380 C.3    35  GLY35       0.2014
     51  C          4.0220   57.9160   37.1260 C.2    35  GLY35       0.2639
     52  O          2.9790   58.3520   36.6760 O.2    35  GLY35      -0.2714
     53  N          5.2160   58.3520   36.7350 N.am   36  LYS36      -0.1963
     54  CA         5.3160   59.3850   35.6990 C.3    36  LYS36       0.1728
     55  C          4.8260   58.9000   34.3320 C.2    36  LYS36       0.2616
     56  O          4.1990   59.6750   33.6130 O.2    36  LYS36      -0.2715
     57  CB         6.7510   59.8930   35.6290 C.3    36  LYS36       0.0311
     58  CG         7.1730   60.4690   37.0220 C.3    36  LYS36       0.0038
     59  CD         8.5750   61.0870   36.9400 C.3    36  LYS36       0.0206
     60  CE         9.6300   60.0320   37.0130 C.3    36  LYS36       0.1093
     61  NZ         9.5860   59.4110   38.3920 N.3    36  LYS36      -0.1314
     62  N          5.0080   57.6130   33.9850 N.am   37  GLU37      -0.1963
     63  CA         4.5170   57.1430   32.6780 C.3    37  GLU37       0.1733
     64  C          2.9960   56.9170   32.7130 C.2    37  GLU37       0.2616
     65  O          2.2760   57.2660   31.7770 O.2    37  GLU37      -0.2715
     66  CB         5.2820   55.8900   32.2510 C.3    37  GLU37       0.0429
     67  CG         4.7620   55.3710   30.9150 C.3    37  GLU37       0.1163
     68  CD         5.6430   54.3090   30.3090 C.2    37  GLU37       0.3649
     69  OE1        5.1270   53.5520   29.4570 O.co2  37  GLU37      -0.2457
     70  OE2        6.8140   54.2120   30.6980 O.co2  37  GLU37      -0.2457
     71  N          2.4690   56.4410   33.8560 N.am   38  VAL38      -0.1977
     72  CA         1.0250   56.4020   34.0260 C.3    38  VAL38       0.1596
     73  C          0.4320   57.7910   33.8990 C.2    38  VAL38       0.2287
     74  O         -0.6250   57.9780   33.3290 O.2    38  VAL38      -0.2864
     75  CB         0.6990   55.7990   35.4230 C.3    38  VAL38       0.0276
     76  CG1       -0.7460   56.1530   35.8860 C.3    38  VAL38       0.0022
     77  CG2        0.9200   54.3330   35.4090 C.3    38  VAL38       0.0022
     78  N         10.7400   59.9680   28.3670 N.3   101  ASP101     -0.1225
     79  CA        10.8890   59.5110   29.7610 C.3   101  ASP101      0.1805
     80  C         12.3460   59.4300   30.1680 C.2   101  ASP101      0.2597
     81  O         13.1860   58.8640   29.4590 O.2   101  ASP101     -0.2718
     82  CB        10.2380   58.1300   29.8700 C.3   101  ASP101      0.1424
     83  CG        10.2680   57.5640   31.2770 C.2   101  ASP101      0.3668
     84  OD1        9.9070   58.2870   32.2070 O.co2 101  ASP101     -0.2456
     85  OD2       10.6390   56.3760   31.4220 O.co2 101  ASP101     -0.2456
     86  N         12.6430   59.9290   31.3560 N.am  102  GLU102     -0.1979
     87  CA        14.0010   60.0170   31.8670 C.3   102  GLU102      0.1602
     88  C         14.9350   60.7030   30.8740 C.2   102  GLU102      0.2287
     89  O         16.0550   60.2670   30.5790 O.2   102  GLU102     -0.2864
     90  CB        14.5120   58.6190   32.3120 C.3   102  GLU102      0.0415
     91  CG        13.5990   57.9420   33.3960 C.3   102  GLU102      0.1163
     92  CD        13.3680   58.8380   34.6730 C.2   102  GLU102      0.3649
     93  OE1       14.1800   59.7440   34.9330 O.co2 102  GLU102     -0.2457
     94  OE2       12.3390   58.6550   35.3840 O.co2 102  GLU102     -0.2457
     95  N         13.2890   61.6170   37.0080 N.3   143  ASN143     -0.1240
     96  CA        13.5730   61.3620   38.4330 C.3   143  ASN143      0.1653
     97  C         14.5640   62.3300   39.0270 C.2   143  ASN143      0.2266
     98  O         14.7470   62.3500   40.2550 O.2   143  ASN143     -0.2867
     99  CB        14.2370   60.0060   38.6450 C.3   143  ASN143      0.1155
    100  CG        13.3660   58.8880   38.3510 C.2   143  ASN143      0.2627
    101  OD1       12.1530   59.0160   38.3320 O.2   143  ASN143     -0.2716
    102  ND2       13.9600   57.7460   38.1360 N.am  143  ASN143     -0.0877
    103  N          0.3490   60.2080   50.2320 N.3   176  ARG176     -0.1245
    104  CA        -0.8890   59.9990   49.4760 C.3   176  ARG176      0.1563
    105  C         -2.0430   59.3920   50.2750 C.2   176  ARG176      0.2260
    106  O         -3.0440   58.9850   49.7040 O.2   176  ARG176     -0.2867
    107  CB        -0.6230   59.1420   48.2330 C.3   176  ARG176      0.0307
    108  CG         0.2650   59.8140   47.2170 C.3   176  ARG176      0.0489
    109  CD         0.2480   58.9800   45.9750 C.3   176  ARG176      0.2205
    110  NE         1.4300   59.2460   45.1810 N.pl3 176  ARG176     -0.0865
    111  CZ         1.6130   58.7170   43.9740 C.cat 176  ARG176      0.5346
    112  NH1        0.7410   57.8670   43.4450 N.pl3 176  ARG176      0.1354
    113  NH2        2.7350   58.9990   43.3560 N.pl3 176  ARG176      0.1354
    114  N         -4.1520   51.4530   46.1960 N.3   183  ILE183     -0.1245
    115  CA        -3.2430   50.8410   45.2180 C.3   183  ILE183      0.1561
    116  C         -2.8650   49.4330   45.6510 C.2   183  ILE183      0.2260
    117  O         -2.8660   48.4860   44.8340 O.2   183  ILE183     -0.2867
    118  CB        -2.0080   51.7210   45.0310 C.3   183  ILE183      0.0252
    119  CG1       -2.3940   53.0820   44.4560 C.3   183  ILE183      0.0019
    120  CG2       -1.0070   51.0430   44.1470 C.3   183  ILE183      0.0019
    121  CD1       -1.2640   54.0380   44.6120 C.3   183  ILE183      0.0001
    122  N         -3.3240   46.0970   43.3880 N.3   187  LEU187     -0.1245
    123  CA        -2.1790   45.2300   43.0700 C.3   187  LEU187      0.1561
    124  C         -2.3850   43.8270   43.5660 C.2   187  LEU187      0.2260
    125  O         -1.9620   42.8640   42.9260 O.2   187  LEU187     -0.2867
    126  CB        -0.8640   45.8130   43.6190 C.3   187  LEU187      0.0270
    127  CG        -0.4610   47.1040   42.9580 C.3   187  LEU187      0.0019
    128  CD1        0.7200   47.7290   43.7210 C.3   187  LEU187      0.0001
    129  CD2       -0.0140   46.7910   41.4760 C.3   187  LEU187      0.0001
    130  N          5.5680   53.6050   44.2340 N.3   219  VAL219     -0.1231
    131  CA         4.6530   52.5800   43.7870 C.3   219  VAL219      0.1692
    132  C          5.4090   51.3670   43.2660 C.2   219  VAL219      0.2591
    133  O          4.9230   50.2360   43.4230 O.2   219  VAL219     -0.2718
    134  CB         3.6540   53.1190   42.7360 C.3   219  VAL219      0.0266
    135  CG1        2.6360   52.0910   42.3560 C.3   219  VAL219      0.0020
    136  CG2        2.9440   54.3530   43.3250 C.3   219  VAL219      0.0020
    137  N          6.6020   51.5390   42.6600 N.am  220  ARG220     -0.1980
    138  CA         7.3050   50.3170   42.2530 C.3   220  ARG220      0.1597
    139  C          7.6550   49.4640   43.4580 C.2   220  ARG220      0.2287
    140  O          7.5130   48.2390   43.3840 O.2   220  ARG220     -0.2864
    141  CB         8.6030   50.6290   41.5240 C.3   220  ARG220      0.0334
    142  CG         9.3550   49.3430   41.1240 C.3   220  ARG220      0.0492
    143  CD        10.4560   49.6560   40.0620 C.3   220  ARG220      0.2205
    144  NE         9.9080   50.3400   38.8850 N.pl3 220  ARG220     -0.0865
    145  CZ         9.2360   49.6860   37.9310 C.cat 220  ARG220      0.5346
    146  NH1        9.0810   48.3530   38.0010 N.pl3 220  ARG220      0.1354
    147  NH2        8.7170   50.3630   36.9180 N.pl3 220  ARG220      0.1354
    148  N          4.6090   47.6420   44.4350 N.3   223  GLN223     -0.1245
    149  CA         4.3890   46.5280   43.5070 C.3   223  GLN223      0.1566
    150  C          5.3160   45.3710   43.8410 C.2   223  GLN223      0.2260
    151  O          4.8870   44.2210   43.8890 O.2   223  GLN223     -0.2867
    152  CB         4.6270   46.9660   42.0580 C.3   223  GLN223      0.0367
    153  CG         3.5440   47.8110   41.5200 C.3   223  GLN223      0.0905
    154  CD         3.8820   48.2180   40.0950 C.2   223  GLN223      0.2608
    155  OE1        5.0630   48.3850   39.7640 O.2   223  GLN223     -0.2717
    156  NE2        2.8660   48.3350   39.2400 N.am  223  GLN223     -0.0878
@<TRIPOS>BOND
     1    78    79    1
     2    69    68   ar
     3    81    80    2
     4    79    82    1
     5    79    80    1
     6    82    83    1
     7    80    86   am
     8    68    70   ar
     9    68    67    1
    10    89    88    2
    11    88    87    1
    12    67    66    1
    13    83    85   ar
    14    83    84   ar
    15    86    87    1
    16    65    64    2
    17    87    90    1
    18    66    63    1
    19    90    91    1
    20    63    64    1
    21    63    62    1
    22    64    71   am
    23    74    73    2
    24    91    92    1
    25    56    55    2
    26    71    72    1
    27    73    72    1
    28    62    55   am
    29    72    75    1
    30     1     2    1
    31    55    54    1
    32    92    93   ar
    33    92    94   ar
    34     2     3    1
    35    77    75    1
    36    75    76    1
    37    57    54    1
    38    57    58    1
    39    54    53    1
    40     3     5   am
    41     3     4    2
    42    52    51    2
    43    53    51   am
    44     5     6    1
    45   147   145    1
    46    59    60    1
    47    59    58    1
    48    14    12   ar
    49    14    15   ar
    50    95    96    1
    51    60    61    1
    52    12    10   ar
    53    51    50    1
    54    15    13   ar
    55    10     9    1
    56    10    11   ar
    57   145   146    1
    58   145   144    2
    59     9     6    1
    60     6     7    1
    61   102   100   am
    62    50    49    1
    63    13    11   ar
    64   101   100    2
    65   100    99    1
    66    96    99    1
    67    96    97    1
    68     8     7    2
    69   144   143    1
    70    97    98    2
    71     7    16   am
    72   156   154   am
    73    49    44   am
    74   155   154    2
    75   143   142    1
    76   154   153    1
    77    16    17    1
    78    44    45    2
    79    44    43    1
    80    21    23    1
    81    21    20    1
    82    38    39    1
    83    38    34   am
    84    47    46    1
    85    39    40    1
    86    42    40   am
    87    42    43    1
    88   142   141    1
    89    17    20    1
    90    17    18    1
    91    31    30    1
    92    40    41    2
    93    37    36    1
    94    33    36    1
    95    33    34    1
    96    33    32    1
    97    43    46    1
    98   129   127    1
    99   153   152    1
   100   141   138    1
   101    27    26    2
   102    20    22    1
   103    34    35    2
   104    46    48    1
   105   152   149    1
   106   138   137    1
   107   138   139    1
   108   135   134    1
   109    18    19    2
   110   137   132   am
   111   134   136    1
   112   134   131    1
   113    30    29    1
   114    26    25    1
   115   125   124    2
   116   127   126    1
   117   127   128    1
   118   123   122    1
   119   123   124    1
   120   123   126    1
   121   132   133    2
   122   132   131    1
   123   113   111    1
   124   140   139    2
   125   112   111    1
   126    25    28    1
   127    25    24    1
   128   149   150    1
   129   149   148    1
   130    28    29    1
   131   131   130    1
   132   150   151    2
   133   111   110    2
   134   120   118    1
   135   119   121    1
   136   119   118    1
   137   117   116    2
   138   118   115    1
   139   110   109    1
   140   115   116    1
   141   115   114    1
   142   109   108    1
   143   108   107    1
   144   107   104    1
   145   104   103    1
   146   104   105    1
   147   106   105    2
