@<TRIPOS>MOLECULE
tmp/5ep7A00.pdb
 136 132 0 0 0
SMALL
GASTEIGER

@<TRIPOS>ATOM
      1  N        -14.5880  -11.4670   15.4850 N.3    31  LEU31      -0.1231
      2  CA       -15.8460  -11.1200   16.1400 C.3    31  LEU31       0.1678
      3  C        -15.6670  -10.4210   17.4810 C.2    31  LEU31       0.2434
      4  O        -16.3990   -9.4490   17.7360 O.2    31  LEU31      -0.2733
      5  CB       -16.7660  -12.3440   16.2450 C.3    31  LEU31       0.0284
      6  CG       -17.2640  -12.8910   14.9060 C.3    31  LEU31       0.0019
      7  CD1      -18.0600  -14.1780   15.1070 C.3    31  LEU31       0.0001
      8  CD2      -18.0910  -11.8520   14.1640 C.3    31  LEU31       0.0001
      9  N        -14.7430  -10.8300   18.3580 N.am   32  PRO32      -0.2718
     10  CA       -14.5770  -10.1050   19.6240 C.3    32  PRO32       0.1535
     11  C        -13.9590   -8.7250   19.4800 C.2    32  PRO32       0.2598
     12  O        -13.8430   -8.0180   20.4920 O.2    32  PRO32      -0.2715
     13  CB       -13.6590  -11.0300   20.4420 C.3    32  PRO32       0.0310
     14  CG       -13.8060  -12.3760   19.8110 C.3    32  PRO32       0.0237
     15  CD       -13.9600  -12.0790   18.3500 C.3    32  PRO32       0.0939
     16  N        -13.5480   -8.3310   18.2720 N.am   33  PHE33      -0.1974
     17  CA       -12.8340   -7.0830   18.0410 C.3    33  PHE33       0.1639
     18  C        -13.6210   -6.0930   17.2100 C.2    33  PHE33       0.2290
     19  O        -13.1430   -4.9750   16.9890 O.2    33  PHE33      -0.2864
     20  CB       -11.4630   -7.3630   17.4120 C.3    33  PHE33       0.0560
     21  CG       -10.6090   -8.2290   18.2760 C.ar   33  PHE33      -0.0200
     22  CD1       -9.7930   -7.6620   19.2350 C.ar   33  PHE33      -0.0042
     23  CD2      -10.6730   -9.6160   18.1870 C.ar   33  PHE33      -0.0042
     24  CE1       -9.0390   -8.4650   20.0750 C.ar   33  PHE33      -0.0003
     25  CE2       -9.9190  -10.4110   19.0170 C.ar   33  PHE33      -0.0003
     26  CZ        -9.1050   -9.8400   19.9610 C.ar   33  PHE33      -0.0000
     27  N        -16.4410   -4.4560   17.8430 N.3    35  GLN35      -0.1231
     28  CA       -17.0440   -3.3570   18.5710 C.3    35  GLN35       0.1683
     29  C        -16.2640   -3.1320   19.8540 C.2    35  GLN35       0.2434
     30  O        -15.5390   -4.0190   20.3120 O.2    35  GLN35      -0.2733
     31  CB       -18.5190   -3.6650   18.8760 C.3    35  GLN35       0.0380
     32  CG       -19.4230   -3.6160   17.6400 C.3    35  GLN35       0.0905
     33  CD       -19.6940   -2.2000   17.1620 C.2    35  GLN35       0.2608
     34  OE1      -20.0460   -1.3260   17.9550 O.2    35  GLN35      -0.2717
     35  NE2      -19.5280   -1.9640   15.8630 N.am   35  GLN35      -0.0878
     36  N        -16.3720   -1.9390   20.4430 N.am   36  PRO36      -0.2718
     37  CA       -15.6460   -1.6690   21.6880 C.3    36  PRO36       0.1535
     38  C        -16.0540   -2.6480   22.7750 C.2    36  PRO36       0.2598
     39  O        -17.2300   -2.9970   22.9140 O.2    36  PRO36      -0.2715
     40  CB       -16.0850   -0.2460   22.0500 C.3    36  PRO36       0.0310
     41  CG       -16.5020    0.3580   20.7490 C.3    36  PRO36       0.0237
     42  CD       -17.1390   -0.7620   19.9930 C.3    36  PRO36       0.0939
     43  N        -15.0680   -3.0840   23.5580 N.am   37  VAL37      -0.1978
     44  CA       -15.3600   -3.8830   24.7440 C.3    37  VAL37       0.1596
     45  C        -16.3500   -3.1450   25.6320 C.2    37  VAL37       0.2287
     46  O        -16.1450   -1.9740   25.9720 O.2    37  VAL37      -0.2864
     47  CB       -14.0700   -4.1930   25.5140 C.3    37  VAL37       0.0276
     48  CG1      -14.3940   -4.8290   26.8650 C.3    37  VAL37       0.0022
     49  CG2      -13.1740   -5.0910   24.6880 C.3    37  VAL37       0.0022
     50  N        -21.7160   -5.3580   29.7820 N.3    41  LEU41      -0.1231
     51  CA       -22.2330   -6.4850   29.0170 C.3    41  LEU41       0.1693
     52  C        -21.4340   -7.7470   29.2930 C.2    41  LEU41       0.2591
     53  O        -22.0050   -8.8330   29.4730 O.2    41  LEU41      -0.2718
     54  CB       -22.1680   -6.1370   27.5320 C.3    41  LEU41       0.0284
     55  CG       -22.5380   -7.2230   26.5330 C.3    41  LEU41       0.0019
     56  CD1      -23.9850   -7.6550   26.7400 C.3    41  LEU41       0.0001
     57  CD2      -22.3110   -6.7210   25.1110 C.3    41  LEU41       0.0001
     58  N        -20.1130   -7.6240   29.3510 N.am   42  LEU42      -0.1980
     59  CA       -19.2290   -8.7640   29.4950 C.3    42  LEU42       0.1596
     60  C        -18.9540   -9.1250   30.9490 C.2    42  LEU42       0.2287
     61  O        -18.2570  -10.1120   31.2030 O.2    42  LEU42      -0.2864
     62  CB       -17.9230   -8.5250   28.7270 C.3    42  LEU42       0.0297
     63  CG       -18.1460   -8.3420   27.2200 C.3    42  LEU42       0.0022
     64  CD1      -16.9090   -7.7680   26.5530 C.3    42  LEU42       0.0001
     65  CD2      -18.5740   -9.6420   26.5420 C.3    42  LEU42       0.0001
     66  N        -17.1220   -7.6330   33.2910 N.3    44  ILE44      -0.1245
     67  CA       -15.7140   -7.4490   33.6420 C.3    44  ILE44       0.1561
     68  C        -15.4960   -6.0200   34.1380 C.2    44  ILE44       0.2260
     69  O        -14.8880   -5.1970   33.4350 O.2    44  ILE44      -0.2867
     70  CB       -14.7910   -7.8430   32.4730 C.3    44  ILE44       0.0252
     71  CG1      -15.2270   -7.1920   31.1500 C.3    44  ILE44       0.0019
     72  CG2      -14.7690   -9.3610   32.3080 C.3    44  ILE44       0.0019
     73  CD1      -14.3070   -7.5150   29.9890 C.3    44  ILE44       0.0001
     74  N        -12.2540   -3.8190   33.6770 N.3    47  TYR47      -0.1241
     75  CA       -11.6440   -3.6640   32.3580 C.3    47  TYR47       0.1605
     76  C        -11.0390   -2.2750   32.1690 C.2    47  TYR47       0.2264
     77  O         -9.8720   -2.1440   31.7780 O.2    47  TYR47      -0.2867
     78  CB       -12.6560   -3.9680   31.2580 C.3    47  TYR47       0.0534
     79  CG       -12.0170   -3.9020   29.8900 C.ar   47  TYR47      -0.0201
     80  CD1      -11.2910   -4.9780   29.3980 C.ar   47  TYR47      -0.0009
     81  CD2      -12.1180   -2.7610   29.0970 C.ar   47  TYR47      -0.0009
     82  CE1      -10.6780   -4.9240   28.1480 C.ar   47  TYR47       0.0417
     83  CE2      -11.5150   -2.6980   27.8480 C.ar   47  TYR47       0.0417
     84  CZ       -10.7960   -3.7750   27.3820 C.ar   47  TYR47       0.1957
     85  OH       -10.1960   -3.6990   26.1450 O.3    47  TYR47      -0.2866
     86  N         -9.3300    0.1470   22.3240 N.3    55  MET55      -0.1245
     87  CA        -9.3300    0.2880   20.8760 C.3    55  MET55       0.1570
     88  C         -9.9720   -0.9560   20.2830 C.2    55  MET55       0.2261
     89  O         -9.8780   -2.0450   20.8520 O.2    55  MET55      -0.2867
     90  CB        -7.8990    0.4690   20.3470 C.3    55  MET55       0.0387
     91  CG        -7.7850    0.7990   18.8620 C.3    55  MET55       0.0595
     92  SD        -8.7260    2.2550   18.3380 S.3    55  MET55      -0.1393
     93  CE        -8.1190    3.5360   19.4470 C.3    55  MET55       0.0692
     94  N         -5.8660   -6.5000   24.4230 N.3    86  ALA86      -0.1245
     95  CA        -6.4980   -7.8000   24.5950 C.3    86  ALA86       0.1562
     96  C         -5.5340   -8.8030   25.1970 C.2    86  ALA86       0.2260
     97  O         -5.9280   -9.6200   26.0360 O.2    86  ALA86      -0.2867
     98  CB        -7.0430   -8.2970   23.2600 C.3    86  ALA86       0.0290
     99  N         -5.2680   -7.8390   28.9920 N.3    89  TYR89      -0.1227
    100  CA        -6.4040   -8.0410   29.8780 C.3    89  TYR89       0.1736
    101  C         -6.7700   -9.5130   30.0180 C.2    89  TYR89       0.2595
    102  O         -7.1280   -9.9730   31.1140 O.2    89  TYR89      -0.2718
    103  CB        -7.6250   -7.2350   29.4090 C.3    89  TYR89       0.0548
    104  CG        -8.7380   -7.4390   30.3920 C.ar   89  TYR89      -0.0200
    105  CD1       -8.7310   -6.7600   31.5990 C.ar   89  TYR89      -0.0009
    106  CD2       -9.7410   -8.3740   30.1680 C.ar   89  TYR89      -0.0009
    107  CE1       -9.7000   -6.9930   32.5520 C.ar   89  TYR89       0.0417
    108  CE2      -10.7140   -8.6060   31.1090 C.ar   89  TYR89       0.0417
    109  CZ       -10.6890   -7.9120   32.2970 C.ar   89  TYR89       0.1957
    110  OH       -11.6630   -8.1700   33.2380 O.3    89  TYR89      -0.2866
    111  N         -6.7260  -10.2570   28.9220 N.am   90  ASN90      -0.1974
    112  CA        -7.2510  -11.6130   28.8950 C.3    90  ASN90       0.1688
    113  C         -6.1820  -12.6320   29.2500 C.2    90  ASN90       0.2292
    114  O         -4.9970  -12.4400   28.9830 O.2    90  ASN90      -0.2864
    115  CB        -7.8140  -11.9310   27.5170 C.3    90  ASN90       0.1181
    116  CG        -8.9730  -11.0490   27.1720 C.2    90  ASN90       0.2629
    117  OD1      -10.1090  -11.3260   27.5620 O.2    90  ASN90      -0.2716
    118  ND2       -8.7030   -9.9600   26.4640 N.am   90  ASN90      -0.0877
    119  N         -9.9170  -17.8290   24.9320 N.3    95  ARG95      -0.1231
    120  CA       -10.3360  -17.7930   23.5360 C.3    95  ARG95       0.1694
    121  C        -10.0400  -16.4340   22.9090 C.2    95  ARG95       0.2591
    122  O         -9.4970  -16.3600   21.8000 O.2    95  ARG95      -0.2718
    123  CB       -11.8250  -18.1280   23.4620 C.3    95  ARG95       0.0321
    124  CG       -12.4240  -18.2200   22.0730 C.3    95  ARG95       0.0489
    125  CD       -13.8510  -18.7480   22.1830 C.3    95  ARG95       0.2205
    126  NE       -14.5140  -18.9590   20.8960 N.pl3  95  ARG95      -0.0865
    127  CZ       -15.1910  -18.0240   20.2420 C.cat  95  ARG95       0.5346
    128  NH1      -15.2790  -16.7970   20.7300 N.pl3  95  ARG95       0.1354
    129  NH2      -15.7610  -18.3170   19.0830 N.pl3  95  ARG95       0.1354
    130  N        -10.3620  -15.3440   23.6170 N.am   96  VAL96      -0.1980
    131  CA       -10.0990  -14.0090   23.0720 C.3    96  VAL96       0.1595
    132  C         -8.6040  -13.7820   22.8530 C.2    96  VAL96       0.2287
    133  O         -8.1960  -13.1740   21.8550 O.2    96  VAL96      -0.2864
    134  CB       -10.7520  -12.9150   23.9440 C.3    96  VAL96       0.0276
    135  CG1      -10.2460  -11.5150   23.5640 C.3    96  VAL96       0.0022
    136  CG2      -12.2670  -12.9590   23.8230 C.3    96  VAL96       0.0022
@<TRIPOS>BOND
     1     8     6    1
     2     6     7    1
     3     6     5    1
     4     1     2    1
     5    35    33   am
     6     2     5    1
     7     2     3    1
     8    19    18    2
     9    33    32    1
    10    33    34    2
    11    18    17    1
    12    20    17    1
    13    20    21    1
    14     3     4    2
    15     3     9   am
    16    32    31    1
    17    27    28    1
    18    17    16    1
    19    23    21   ar
    20    23    25   ar
    21    16    11   am
    22    21    22   ar
    23    92    91    1
    24    92    93    1
    25    15     9    1
    26    15    14    1
    27     9    10    1
    28    28    31    1
    29    28    29    1
    30    91    90    1
    31    25    26   ar
    32   129   127    1
    33    22    24   ar
    34    11    10    1
    35    11    12    2
    36    10    13    1
    37    14    13    1
    38    29    30    2
    39    29    36   am
    40    26    24   ar
    41    42    36    1
    42    42    41    1
    43   127   128    1
    44   127   126    2
    45    88    89    2
    46    88    87    1
    47    90    87    1
    48    36    37    1
    49    41    40    1
    50    87    86    1
    51   126   125    1
    52    37    40    1
    53    37    38    1
    54   122   121    2
    55   133   132    2
    56   124   125    1
    57   124   123    1
    58    38    39    2
    59    38    43   am
    60   132   131    1
    61   121   120    1
    62   121   130   am
    63   131   130    1
    64   131   134    1
    65    98    95    1
    66   123   120    1
    67   120   119    1
    68    43    44    1
    69   135   134    1
    70   136   134    1
    71    94    95    1
    72    95    96    1
    73    49    47    1
    74    44    47    1
    75    44    45    1
    76    57    55    1
    77    96    97    2
    78    47    48    1
    79    45    46    2
    80    85    84    1
    81   118   116   am
    82    55    56    1
    83    55    54    1
    84    65    63    1
    85    64    63    1
    86   116   115    1
    87   116   117    2
    88    63    62    1
    89    84    83   ar
    90    84    82   ar
    91   115   112    1
    92    54    51    1
    93    83    81   ar
    94    82    80   ar
    95    62    59    1
    96   112   111    1
    97   112   113    1
    98   111   101   am
    99   114   113    2
   100    99   100    1
   101    51    52    1
   102    51    50    1
   103    81    79   ar
   104    52    58   am
   105    52    53    2
   106    58    59    1
   107    80    79   ar
   108   103   100    1
   109   103   104    1
   110    59    60    1
   111   100   101    1
   112    79    78    1
   113    73    71    1
   114   101   102    2
   115   106   104   ar
   116   106   108   ar
   117   104   105   ar
   118    60    61    2
   119   108   109   ar
   120    71    70    1
   121    78    75    1
   122   105   107   ar
   123    77    76    2
   124    76    75    1
   125   109   107   ar
   126   109   110    1
   127    72    70    1
   128    75    74    1
   129    70    67    1
   130    66    67    1
   131    69    68    2
   132    67    68    1
