@<TRIPOS>MOLECULE
tmp/5ep9C00.pdb
 127 119 0 0 0
SMALL
GASTEIGER

@<TRIPOS>ATOM
      1  N         31.4680   11.1940  143.4160 N.3    56  MET56      -0.1245
      2  CA        30.1140   10.7270  143.1360 C.3    56  MET56       0.1570
      3  C         29.1500   10.9680  144.2930 C.2    56  MET56       0.2261
      4  O         29.5620   11.1250  145.4420 O.2    56  MET56      -0.2867
      5  CB        30.0920    9.2270  142.7960 C.3    56  MET56       0.0387
      6  CG        30.6410    8.3630  143.9240 C.3    56  MET56       0.0595
      7  SD        30.5770    6.6310  143.5880 S.3    56  MET56      -0.1393
      8  CE        31.5480    6.5230  142.0390 C.3    56  MET56       0.0692
      9  N         24.5360    5.0400  141.5210 N.3    98  LEU98      -0.1245
     10  CA        25.6030    5.9670  141.3840 C.3    98  LEU98       0.1561
     11  C         25.2130    7.1500  140.5270 C.2    98  LEU98       0.2260
     12  O         24.6650    6.9530  139.4820 O.2    98  LEU98      -0.2867
     13  CB        26.8700    5.2810  140.8200 C.3    98  LEU98       0.0270
     14  CG        27.3270    3.9480  141.4600 C.3    98  LEU98       0.0019
     15  CD1       28.5590    3.4270  140.7280 C.3    98  LEU98       0.0001
     16  CD2       27.6510    4.1100  142.9220 C.3    98  LEU98       0.0001
     17  N         27.0840   10.7010  138.8540 N.3   100  LYS100     -0.1245
     18  CA        28.0780   11.7670  138.6220 C.3   100  LYS100      0.1561
     19  C         27.4360   12.8580  137.8540 C.2   100  LYS100      0.2260
     20  O         26.9330   12.5960  136.7850 O.2   100  LYS100     -0.2867
     21  CB        29.2630   11.3010  137.8180 C.3   100  LYS100      0.0271
     22  CG        30.2770   10.4490  138.5380 C.3   100  LYS100      0.0035
     23  CD        31.5980   10.3710  137.6340 C.3   100  LYS100      0.0206
     24  CE        32.6210    9.3700  138.1090 C.3   100  LYS100      0.1093
     25  NZ        33.6020   10.0070  139.0130 N.3   100  LYS100     -0.1314
     26  N         36.7410    9.1570  139.2130 N.3   111  THR111     -0.1218
     27  CA        36.9860    8.0870  140.1300 C.3   111  THR111      0.1862
     28  C         38.3960    7.4960  139.9400 C.2   111  THR111      0.2287
     29  O         38.7120    6.9710  138.9150 O.2   111  THR111     -0.2866
     30  CB        36.0300    6.9590  139.9090 C.3   111  THR111      0.1770
     31  OG1       34.7060    7.4750  139.9670 O.3   111  THR111     -0.2211
     32  CG2       36.1340    5.9320  141.0320 C.3   111  THR111      0.0375
     33  N         41.5710    1.8570  141.0980 N.3   114  HIS114     -0.1241
     34  CA        41.6180    1.0250  142.2790 C.3   114  HIS114      0.1621
     35  C         41.2130   -0.3670  141.8720 C.2   114  HIS114      0.2264
     36  O         40.6890   -0.5690  140.7700 O.2   114  HIS114     -0.2867
     37  CB        40.6230    1.5500  143.3670 C.3   114  HIS114      0.0745
     38  CG        39.2070    1.5440  142.9200 C.ar  114  HIS114      0.0817
     39  ND1       38.6900    2.5220  142.1120 N.ar  114  HIS114     -0.2268
     40  CD2       38.2110    0.6520  143.1190 C.ar  114  HIS114      0.1154
     41  CE1       37.4230    2.2400  141.8240 C.ar  114  HIS114      0.1986
     42  NE2       37.0830    1.1440  142.4840 N.ar  114  HIS114     -0.2212
     43  N         38.6670   -3.5280  143.7010 N.3   116  ASP116     -0.1239
     44  CA        37.5670   -3.4370  144.6620 C.3   116  ASP116      0.1674
     45  C         37.7960   -4.3530  145.8460 C.2   116  ASP116      0.2266
     46  O         37.2310   -4.1480  146.9400 O.2   116  ASP116     -0.2867
     47  CB        36.2170   -3.8540  143.9890 C.3   116  ASP116      0.1410
     48  CG        35.7000   -2.8770  142.9820 C.2   116  ASP116      0.3668
     49  OD1       35.9000   -1.6610  143.0820 O.co2 116  ASP116     -0.2456
     50  OD2       35.1400   -3.4160  142.0130 O.co2 116  ASP116     -0.2456
     51  N         31.6080   -7.4260  140.0060 N.3   130  THR130     -0.1218
     52  CA        30.6990   -6.2730  140.0560 C.3   130  THR130      0.1862
     53  C         30.0260   -6.0630  138.7140 C.2   130  THR130      0.2287
     54  O         30.6820   -6.0340  137.6610 O.2   130  THR130     -0.2866
     55  CB        31.4370   -5.0250  140.4450 C.3   130  THR130      0.1770
     56  OG1       31.9640   -5.1580  141.7600 O.3   130  THR130     -0.2211
     57  CG2       30.5630   -3.7620  140.3310 C.3   130  THR130      0.0375
     58  N         28.0820   -3.3670  136.5900 N.3   132  TRP132     -0.1241
     59  CA        27.8680   -1.8970  136.5060 C.3   132  TRP132      0.1605
     60  C         26.9330   -1.6490  135.3280 C.2   132  TRP132      0.2264
     61  O         27.2850   -1.9420  134.1670 O.2   132  TRP132     -0.2867
     62  CB        29.1980   -1.2170  136.2930 C.3   132  TRP132      0.0550
     63  CG        29.3780    0.2790  136.5190 C.ar  132  TRP132      0.0003
     64  CD1       29.9640    0.8360  137.5220 C.ar  132  TRP132      0.0946
     65  CD2       28.9490    1.3560  135.6200 C.ar  132  TRP132      0.0152
     66  NE1       29.9700    2.2210  137.3870 N.ar  132  TRP132     -0.2442
     67  CE2       29.3150    2.5510  136.2270 C.ar  132  TRP132      0.0810
     68  CE3       28.1850    1.3930  134.4420 C.ar  132  TRP132      0.0012
     69  CZ2       29.0760    3.7920  135.6570 C.ar  132  TRP132      0.0191
     70  CZ3       27.9000    2.6410  133.8600 C.ar  132  TRP132      0.0001
     71  CH2       28.3790    3.8200  134.4510 C.ar  132  TRP132      0.0015
     72  N         33.8150    4.0250  132.4350 N.3   145  MET145     -0.1245
     73  CA        34.9240    3.3910  133.0790 C.3   145  MET145      0.1570
     74  C         36.1180    3.0380  132.1080 C.2   145  MET145      0.2261
     75  O         35.9310    2.7700  130.9390 O.2   145  MET145     -0.2867
     76  CB        34.4590    2.1310  133.8350 C.3   145  MET145      0.0387
     77  CG        33.5330    2.5520  135.0220 C.3   145  MET145      0.0595
     78  SD        33.6640    1.4630  136.4370 S.3   145  MET145     -0.1393
     79  CE        32.6530    0.2600  135.7900 C.3   145  MET145      0.0692
     80  N         33.0870   -6.6610  136.1080 N.3   176  HIS176     -0.1241
     81  CA        34.5220   -6.6940  136.4340 C.3   176  HIS176      0.1621
     82  C         34.8910   -7.3740  137.7300 C.2   176  HIS176      0.2264
     83  O         34.2260   -7.2980  138.7520 O.2   176  HIS176     -0.2867
     84  CB        35.1350   -5.3010  136.3550 C.3   176  HIS176      0.0745
     85  CG        34.7710   -4.3890  137.4750 C.ar  176  HIS176      0.0817
     86  ND1       33.6830   -3.5340  137.4070 N.ar  176  HIS176     -0.2268
     87  CD2       35.3990   -4.0990  138.6540 C.ar  176  HIS176      0.1154
     88  CE1       33.6080   -2.8100  138.5150 C.ar  176  HIS176      0.1986
     89  NE2       34.6520   -3.1020  139.2650 N.ar  176  HIS176     -0.2212
     90  N         40.4960   -0.4800  137.8320 N.3   182  HIS182     -0.1226
     91  CA        39.5360    0.3060  137.0630 C.3   182  HIS182      0.1752
     92  C         39.3980    1.6730  137.6260 C.2   182  HIS182      0.2597
     93  O         39.7350    1.9550  138.7720 O.2   182  HIS182     -0.2718
     94  CB        38.1630   -0.3720  136.9900 C.3   182  HIS182      0.0759
     95  CG        37.5630   -0.6340  138.3420 C.ar  182  HIS182      0.0818
     96  ND1       38.0100   -1.6400  139.1470 N.ar  182  HIS182     -0.2268
     97  CD2       36.5910   -0.0200  139.0380 C.ar  182  HIS182      0.1154
     98  CE1       37.3600   -1.6200  140.3070 C.ar  182  HIS182      0.1986
     99  NE2       36.4720   -0.6620  140.2490 N.ar  182  HIS182     -0.2212
    100  N         38.8780    2.5230  136.7710 N.am  183  SER183     -0.1938
    101  CA        38.7200    3.9250  137.1000 C.3   183  SER183      0.2055
    102  C         37.6190    4.4980  136.2600 C.2   183  SER183      0.2642
    103  O         37.0330    3.7940  135.4730 O.2   183  SER183     -0.2714
    104  CB        40.0140    4.7460  136.7810 C.3   183  SER183      0.2130
    105  OG        40.2150    4.8230  135.3620 O.3   183  SER183     -0.2179
    106  N         37.2750    5.7830  136.4820 N.am  184  ALA184     -0.1977
    107  CA        36.2590    6.4230  135.7110 C.3   184  ALA184      0.1597
    108  C         36.5100    7.8750  135.5470 C.2   184  ALA184      0.2287
    109  O         37.1070    8.5240  136.4110 O.2   184  ALA184     -0.2864
    110  CB        34.8520    6.1730  136.2930 C.3   184  ALA184      0.0319
    111  N         25.3100   11.2770  134.8760 N.3   193  ARG193     -0.1245
    112  CA        25.6580    9.9040  134.6690 C.3   193  ARG193      0.1563
    113  C         24.9310    9.1040  135.7580 C.2   193  ARG193      0.2260
    114  O         25.1580    9.3110  136.9550 O.2   193  ARG193     -0.2867
    115  CB        27.1780    9.7060  134.7950 C.3   193  ARG193      0.0307
    116  CG        27.5990    8.3380  134.3140 C.3   193  ARG193      0.0489
    117  CD        28.9740    7.9450  134.8110 C.3   193  ARG193      0.2205
    118  NE        28.9150    7.4820  136.2020 N.pl3 193  ARG193     -0.0865
    119  CZ        29.9090    7.0720  136.9500 C.cat 193  ARG193      0.5346
    120  NH1       31.1230    6.9230  136.4660 N.pl3 193  ARG193      0.1354
    121  NH2       29.6620    6.7070  138.2050 N.pl3 193  ARG193      0.1354
    122  N         25.6010   -0.1730  140.4990 N.3   197  SER197     -0.1217
    123  CA        26.7130   -1.1020  140.6860 C.3   197  SER197      0.1889
    124  C         26.4030   -2.1550  141.7280 C.2   197  SER197      0.2288
    125  O         26.1370   -1.8310  142.8770 O.2   197  SER197     -0.2866
    126  CB        27.9610   -0.2760  141.0560 C.3   197  SER197      0.2089
    127  OG        29.1180   -1.0730  141.0650 O.3   197  SER197     -0.2183
@<TRIPOS>BOND
     1    75    74    2
     2    74    73    1
     3    72    73    1
     4    73    76    1
     5    76    77    1
     6    70    68   ar
     7    70    71   ar
     8    61    60    2
     9   116   115    1
    10   116   117    1
    11    68    65   ar
    12    71    69   ar
    13   112   115    1
    14   112   111    1
    15   112   113    1
    16   117   118    1
    17    77    78    1
    18    60    59    1
    19   105   104    1
    20   103   102    2
    21   108   107    1
    22   108   109    2
    23    65    67   ar
    24    65    63   ar
    25    69    67   ar
    26   107   110    1
    27   107   106    1
    28   113   114    2
    29    79    78    1
    30    80    81    1
    31   118   119    2
    32    67    66   ar
    33   102   106   am
    34   102   101    1
    35    62    59    1
    36    62    63    1
    37    84    81    1
    38    84    85    1
    39    81    82    1
    40   120   119    1
    41    59    58    1
    42    63    64   ar
    43   100   101    1
    44   100    92   am
    45   104   101    1
    46    20    19    2
    47   119   121    1
    48    94    91    1
    49    94    95    1
    50    91    92    1
    51    91    90    1
    52    66    64   ar
    53    86    85   ar
    54    86    88   ar
    55    85    87   ar
    56    92    93    2
    57    23    24    1
    58    23    22    1
    59    54    53    2
    60    82    83    2
    61    21    22    1
    62    21    18    1
    63    19    18    1
    64    24    25    1
    65    95    97   ar
    66    95    96   ar
    67    88    89   ar
    68    18    17    1
    69    87    89   ar
    70    53    52    1
    71    29    28    2
    72    97    99   ar
    73    96    98   ar
    74    26    27    1
    75    12    11    2
    76    30    31    1
    77    30    27    1
    78    30    32    1
    79    28    27    1
    80    51    52    1
    81    52    55    1
    82    99    98   ar
    83    57    55    1
    84    55    56    1
    85   122   123    1
    86    11    10    1
    87   123   126    1
    88   123   124    1
    89    15    14    1
    90    36    35    2
    91    13    10    1
    92    13    14    1
    93   126   127    1
    94    33    34    1
    95    10     9    1
    96    14    16    1
    97   124   125    2
    98    41    39   ar
    99    41    42   ar
   100    35    34    1
   101    50    48   ar
   102     8     7    1
   103    39    38   ar
   104    34    37    1
   105    42    40   ar
   106     5     2    1
   107     5     6    1
   108    38    40   ar
   109    38    37    1
   110    48    49   ar
   111    48    47    1
   112     2     1    1
   113     2     3    1
   114     7     6    1
   115    43    44    1
   116    47    44    1
   117     3     4    2
   118    44    45    1
   119    45    46    2
