@<TRIPOS>MOLECULE
tmp/5epaD00.pdb
 140 133 0 0 0
SMALL
GASTEIGER

@<TRIPOS>ATOM
      1  N         15.7740   55.9050   40.0640 N.3    53  TRP53      -0.1241
      2  CA        16.6310   55.3400   41.0880 C.3    53  TRP53       0.1605
      3  C         17.8870   56.1590   40.9990 C.2    53  TRP53       0.2264
      4  O         18.6000   56.1310   39.9910 O.2    53  TRP53      -0.2867
      5  CB        16.8730   53.8820   40.8000 C.3    53  TRP53       0.0550
      6  CG        17.8400   53.1380   41.6750 C.ar   53  TRP53       0.0003
      7  CD1       18.7090   53.6480   42.6220 C.ar   53  TRP53       0.0946
      8  CD2       18.0880   51.7370   41.6220 C.ar   53  TRP53       0.0152
      9  NE1       19.4730   52.6240   43.1710 N.ar   53  TRP53      -0.2442
     10  CE2       19.1140   51.4450   42.5720 C.ar   53  TRP53       0.0810
     11  CE3       17.5380   50.6940   40.8780 C.ar   53  TRP53       0.0012
     12  CZ2       19.5630   50.1600   42.8020 C.ar   53  TRP53       0.0191
     13  CZ3       18.0110   49.3890   41.0890 C.ar   53  TRP53       0.0001
     14  CH2       19.0200   49.1400   42.0330 C.ar   53  TRP53       0.0015
     15  N         19.0810   54.3730   37.3320 N.3    62  VAL62      -0.1245
     16  CA        18.1300   53.5060   36.6300 C.3    62  VAL62       0.1561
     17  C         16.7410   54.1340   36.6110 C.2    62  VAL62       0.2260
     18  O         16.3610   54.7940   37.5690 O.2    62  VAL62      -0.2867
     19  CB        18.0210   52.1440   37.3260 C.3    62  VAL62       0.0252
     20  CG1       17.1330   51.1960   36.5620 C.3    62  VAL62       0.0019
     21  CG2       19.3770   51.4730   37.4760 C.3    62  VAL62       0.0019
     22  N         13.6920   47.6970   34.6450 N.3   104  LEU104     -0.1245
     23  CA        14.9940   48.3320   34.9460 C.3   104  LEU104      0.1561
     24  C         15.6880   48.8250   33.6860 C.2   104  LEU104      0.2260
     25  O         16.3130   48.0370   32.9620 O.2   104  LEU104     -0.2867
     26  CB        15.9270   47.3650   35.6850 C.3   104  LEU104      0.0270
     27  CG        15.3960   46.8100   37.0220 C.3   104  LEU104      0.0019
     28  CD1       16.1220   45.5140   37.3560 C.3   104  LEU104      0.0001
     29  CD2       15.5400   47.8380   38.1380 C.3   104  LEU104      0.0001
     30  N         18.1720   51.5410   31.5420 N.3   106  LYS106     -0.1245
     31  CA        19.2610   52.5440   31.5010 C.3   106  LYS106      0.1561
     32  C         19.3490   53.2010   30.1350 C.2   106  LYS106      0.2260
     33  O         19.5780   52.5340   29.1430 O.2   106  LYS106     -0.2867
     34  CB        20.6380   51.9540   31.8410 C.3   106  LYS106      0.0271
     35  CG        20.8760   51.7020   33.3210 C.3   106  LYS106      0.0035
     36  CD        22.3170   51.2440   33.5290 C.3   106  LYS106      0.0206
     37  CE        22.6230   50.8340   34.9680 C.3   106  LYS106      0.1093
     38  NZ        22.9960   51.9960   35.8140 N.3   106  LYS106     -0.1314
     39  N         25.0190   51.9530   38.4720 N.3   114  THR114     -0.1218
     40  CA        24.2030   51.5880   39.5910 C.3   114  THR114      0.1862
     41  C         25.1150   51.2720   40.7420 C.2   114  THR114      0.2287
     42  O         25.9090   50.3240   40.7010 O.2   114  THR114     -0.2866
     43  CB        23.3450   50.3450   39.3000 C.3   114  THR114      0.1770
     44  OG1       22.5580   50.5500   38.1190 O.3   114  THR114     -0.2211
     45  CG2       22.4220   50.0650   40.4510 C.3   114  THR114      0.0375
     46  N         25.7500   47.4040   45.9250 N.3   117  HIS117     -0.1241
     47  CA        24.8720   47.0780   47.0800 C.3   117  HIS117      0.1621
     48  C         24.6310   45.5780   47.1390 C.2   117  HIS117      0.2264
     49  O         24.9870   44.8540   46.2310 O.2   117  HIS117     -0.2867
     50  CB        23.5310   47.8100   46.9900 C.3   117  HIS117      0.0745
     51  CG        22.7080   47.4130   45.8030 C.ar  117  HIS117      0.0817
     52  ND1       23.0130   47.8100   44.5260 N.ar  117  HIS117     -0.2268
     53  CD2       21.6200   46.6030   45.6910 C.ar  117  HIS117      0.1154
     54  CE1       22.1160   47.3030   43.6870 C.ar  117  HIS117      0.1986
     55  NE2       21.2870   46.5130   44.3560 N.ar  117  HIS117     -0.2212
     56  N         20.9720   43.1450   47.9600 N.3   119  ASP119     -0.1239
     57  CA        19.5310   43.3700   47.8870 C.3   119  ASP119      0.1674
     58  C         18.8480   43.1890   49.2370 C.2   119  ASP119      0.2266
     59  O         17.8960   43.9040   49.5590 O.2   119  ASP119     -0.2867
     60  CB        18.9170   42.4320   46.8610 C.3   119  ASP119      0.1410
     61  CG        19.3100   42.7920   45.4040 C.2   119  ASP119      0.3668
     62  OD1       19.5660   43.9880   45.0060 O.co2 119  ASP119     -0.2456
     63  OD2       19.3400   41.7940   44.6740 O.co2 119  ASP119     -0.2456
     64  N         17.3870   36.9660   43.1650 N.3   133  THR133     -0.1218
     65  CA        16.8300   37.7700   42.0810 C.3   133  THR133      0.1862
     66  C         17.1780   37.1650   40.7210 C.2   133  THR133      0.2287
     67  O         18.3050   36.7650   40.4910 O.2   133  THR133     -0.2866
     68  CB        17.3960   39.1950   42.1210 C.3   133  THR133      0.1770
     69  OG1       16.9750   39.8280   43.3310 O.3   133  THR133     -0.2211
     70  CG2       16.9250   40.0170   40.9450 C.3   133  THR133      0.0375
     71  N         17.6360   38.4800   37.0540 N.3   135  TRP135     -0.1241
     72  CA        17.7930   39.7030   36.2350 C.3   135  TRP135      0.1605
     73  C         17.6990   39.2910   34.7870 C.2   135  TRP135      0.2264
     74  O         18.6120   38.6470   34.2370 O.2   135  TRP135     -0.2867
     75  CB        19.1380   40.3290   36.5210 C.3   135  TRP135      0.0550
     76  CG        19.3690   41.6930   36.0450 C.ar  135  TRP135      0.0003
     77  CD1       19.0700   42.8390   36.7010 C.ar  135  TRP135      0.0946
     78  CD2       20.0590   42.0850   34.8590 C.ar  135  TRP135      0.0152
     79  NE1       19.4700   43.9350   35.9600 N.ar  135  TRP135     -0.2442
     80  CE2       20.0900   43.4820   34.8330 C.ar  135  TRP135      0.0810
     81  CE3       20.6000   41.3870   33.7890 C.ar  135  TRP135      0.0012
     82  CZ2       20.6600   44.1930   33.7920 C.ar  135  TRP135      0.0191
     83  CZ3       21.1650   42.0830   32.7650 C.ar  135  TRP135      0.0001
     84  CH2       21.2080   43.4910   32.7780 C.ar  135  TRP135      0.0015
     85  N         25.7580   44.1170   34.3920 N.3   148  MET148     -0.1245
     86  CA        25.9010   43.8950   35.7940 C.3   148  MET148      0.1570
     87  C         27.3170   43.4040   36.0730 C.2   148  MET148      0.2261
     88  O         27.9080   42.7550   35.2350 O.2   148  MET148     -0.2867
     89  CB        24.9020   42.8430   36.2350 C.3   148  MET148      0.0387
     90  CG        23.4310   43.2180   36.0320 C.3   148  MET148      0.0595
     91  SD        22.8890   44.3390   37.2980 S.3   148  MET148     -0.1393
     92  CE        22.6140   43.1720   38.6210 C.3   148  MET148      0.0692
     93  N         21.0850   36.1450   41.0400 N.3   200  HIS200     -0.1241
     94  CA        21.9990   36.4280   42.1520 C.3   200  HIS200      0.1621
     95  C         21.3130   36.4060   43.5230 C.2   200  HIS200      0.2264
     96  O         20.1990   36.8880   43.6880 O.2   200  HIS200     -0.2867
     97  CB        22.7700   37.7550   41.9290 C.3   200  HIS200      0.0745
     98  CG        21.9050   38.9790   41.9840 C.ar  200  HIS200      0.0817
     99  ND1       21.3230   39.5290   40.8630 N.ar  200  HIS200     -0.2268
    100  CD2       21.5620   39.7850   43.0210 C.ar  200  HIS200      0.1154
    101  CE1       20.6620   40.6260   41.2030 C.ar  200  HIS200      0.1986
    102  NE2       20.7920   40.8060   42.5060 N.ar  200  HIS200     -0.2212
    103  N         26.7110   43.4060   44.3150 N.3   206  HIS206     -0.1226
    104  CA        26.6030   43.6340   42.8750 C.3   206  HIS206      0.1752
    105  C         26.3630   45.1070   42.5320 C.2   206  HIS206      0.2596
    106  O         26.1220   45.9460   43.3930 O.2   206  HIS206     -0.2718
    107  CB        25.4890   42.7820   42.2740 C.3   206  HIS206      0.0759
    108  CG        24.1180   43.1260   42.7990 C.ar  206  HIS206      0.0818
    109  ND1       23.6840   42.7250   44.0410 N.ar  206  HIS206     -0.2268
    110  CD2       23.0870   43.8370   42.2540 C.ar  206  HIS206      0.1154
    111  CE1       22.4190   43.1240   44.2060 C.ar  206  HIS206      0.1986
    112  NE2       22.0580   43.8790   43.1730 N.ar  206  HIS206     -0.2212
    113  N         26.4820   45.4060   41.2460 N.am  207  MET207     -0.1965
    114  CA        26.4760   46.7710   40.7740 C.3   207  MET207      0.1736
    115  C         26.2260   46.7160   39.2640 C.2   207  MET207      0.2616
    116  O         26.1360   45.6410   38.7010 O.2   207  MET207     -0.2715
    117  CB        27.8130   47.4400   41.1170 C.3   207  MET207      0.0427
    118  CG        28.9620   46.9850   40.2340 C.3   207  MET207      0.0599
    119  SD        30.5560   47.0240   41.0440 S.3   207  MET207     -0.1393
    120  CE        30.4900   45.5520   42.0360 C.3   207  MET207      0.0692
    121  N         26.1540   47.8780   38.6160 N.am  208  ALA208     -0.1977
    122  CA        26.0700   47.9080   37.1730 C.3   208  ALA208      0.1597
    123  C         26.7880   49.0960   36.5970 C.2   208  ALA208      0.2287
    124  O         26.8410   50.1490   37.2030 O.2   208  ALA208     -0.2864
    125  CB        24.6140   47.9160   36.7280 C.3   208  ALA208      0.0319
    126  N         19.1590   50.1470   27.4390 N.3   217  ARG217     -0.1245
    127  CA        19.2100   48.8290   28.0730 C.3   217  ARG217      0.1563
    128  C         17.9280   48.5650   28.8550 C.2   217  ARG217      0.2260
    129  O         17.5360   49.3940   29.6550 O.2   217  ARG217     -0.2867
    130  CB        20.3360   48.7580   29.1060 C.3   217  ARG217      0.0307
    131  CG        20.4380   47.4090   29.7670 C.3   217  ARG217      0.0489
    132  CD        21.1040   47.4790   31.1410 C.3   217  ARG217      0.2205
    133  NE        20.1090   47.6390   32.1460 N.pl3 217  ARG217     -0.0865
    134  CZ        20.3180   47.7770   33.4430 C.cat 217  ARG217      0.5346
    135  NH1       21.5320   47.7950   33.9930 N.pl3 217  ARG217      0.1354
    136  NH2       19.2400   47.9050   34.2260 N.pl3 217  ARG217      0.1354
    137  N         13.9060   42.7260   36.6440 N.3   221  GLY221     -0.1225
    138  CA        14.3990   42.0940   37.8330 C.3   221  GLY221      0.1811
    139  C         13.2480   41.4600   38.5750 C.2   221  GLY221      0.2280
    140  O         12.3230   42.1620   38.9440 O.2   221  GLY221     -0.2866
@<TRIPOS>BOND
     1   126   127    1
     2   127   128    1
     3   127   130    1
     4   128   129    2
     5   130   131    1
     6    33    32    2
     7   131   132    1
     8    32    31    1
     9   132   133    1
    10    31    30    1
    11    31    34    1
    12    34    35    1
    13   133   134    2
    14    83    84   ar
    15    83    81   ar
    16    84    82   ar
    17    25    24    2
    18    35    36    1
    19   134   135    1
    20   134   136    1
    21    36    37    1
    22    24    23    1
    23    81    78   ar
    24    82    80   ar
    25    74    73    2
    26    85    86    1
    27    22    23    1
    28    73    72    1
    29    80    78   ar
    30    80    79   ar
    31    78    76   ar
    32    23    26    1
    33    37    38    1
    34    88    87    2
    35    26    27    1
    36    86    87    1
    37    86    89    1
    38    79    77   ar
    39    90    89    1
    40    90    91    1
    41    76    75    1
    42    76    77   ar
    43    72    75    1
    44    72    71    1
    45    20    19    1
    46   123   122    1
    47   123   124    2
    48    17    16    1
    49    17    18    2
    50    16    19    1
    51    16    15    1
    52   137   138    1
    53   125   122    1
    54    27    28    1
    55    27    29    1
    56   122   121    1
    57    91    92    1
    58    19    21    1
    59   138   139    1
    60    44    43    1
    61    39    40    1
    62   139   140    2
    63   121   115   am
    64   116   115    2
    65   115   114    1
    66    43    40    1
    67    43    45    1
    68    40    41    1
    69     4     3    2
    70     1     2    1
    71   118   119    1
    72   118   117    1
    73    67    66    2
    74    42    41    2
    75    66    65    1
    76   114   117    1
    77   114   113    1
    78     5     2    1
    79     5     6    1
    80    99   101   ar
    81    99    98   ar
    82    11    13   ar
    83    11     8   ar
    84    70    68    1
    85     3     2    1
    86    93    94    1
    87   119   120    1
    88    13    14   ar
    89   101   102   ar
    90   113   105   am
    91     8     6   ar
    92     8    10   ar
    93     6     7   ar
    94    97    98    1
    95    97    94    1
    96    98   100   ar
    97    14    12   ar
    98    65    68    1
    99    65    64    1
   100    68    69    1
   101    94    95    1
   102   110   108   ar
   103   110   112   ar
   104   107   108    1
   105   107   104    1
   106   102   100   ar
   107   105   104    1
   108   105   106    2
   109    10    12   ar
   110    10     9   ar
   111     7     9   ar
   112   108   109   ar
   113   104   103    1
   114   112   111   ar
   115    95    96    2
   116    54    55   ar
   117    54    52   ar
   118   109   111   ar
   119    55    53   ar
   120    52    51   ar
   121    63    61   ar
   122    62    61   ar
   123    61    60    1
   124    53    51   ar
   125    51    50    1
   126    46    47    1
   127    49    48    2
   128    60    57    1
   129    50    47    1
   130    47    48    1
   131    57    56    1
   132    57    58    1
   133    58    59    2
