@<TRIPOS>MOLECULE
tmp/5epbA01.pdb
 112 109 0 0 0
SMALL
GASTEIGER

@<TRIPOS>ATOM
      1  N         14.8900  -25.2500    0.3080 N.3    29  ARG29      -0.1231
      2  CA        14.7240  -23.8140    0.4850 C.3    29  ARG29       0.1694
      3  C         14.8930  -23.4160    1.9460 C.2    29  ARG29       0.2591
      4  O         15.4760  -22.3700    2.2440 O.2    29  ARG29      -0.2718
      5  CB        13.3610  -23.3590   -0.0420 C.3    29  ARG29       0.0321
      6  CG        13.2180  -21.8440   -0.0080 C.3    29  ARG29       0.0489
      7  CD        11.7770  -21.3880   -0.1760 C.3    29  ARG29       0.2205
      8  NE        10.8350  -22.2660    0.5180 N.pl3  29  ARG29      -0.0865
      9  CZ        10.6570  -22.2920    1.8370 C.cat  29  ARG29       0.5346
     10  NH1       11.3690  -21.4970    2.6280 N.pl3  29  ARG29       0.1354
     11  NH2        9.7740  -23.1280    2.3710 N.pl3  29  ARG29       0.1354
     12  N         14.4160  -24.2500    2.8760 N.am   30  VAL30      -0.1980
     13  CA        14.5200  -23.9020    4.2890 C.3    30  VAL30       0.1595
     14  C         15.9590  -23.8420    4.7800 C.2    30  VAL30       0.2287
     15  O         16.2070  -23.3000    5.8610 O.2    30  VAL30      -0.2864
     16  CB        13.7090  -24.8820    5.1650 C.3    30  VAL30       0.0276
     17  CG1       12.2270  -24.8180    4.8090 C.3    30  VAL30       0.0022
     18  CG2       14.2480  -26.3130    5.0350 C.3    30  VAL30       0.0022
     19  N         18.4830  -22.3960    2.9000 N.3    32  THR32      -0.1203
     20  CA        19.2320  -21.4940    2.0250 C.3    32  THR32       0.1994
     21  C         19.7040  -20.2270    2.7180 C.2    32  THR32       0.2618
     22  O         20.6620  -19.6030    2.2430 O.2    32  THR32      -0.2717
     23  CB        18.4010  -21.1050    0.7950 C.3    32  THR32       0.1784
     24  OG1       17.1360  -20.5510    1.1960 O.3    32  THR32      -0.2211
     25  CG2       18.1890  -22.3150   -0.1160 C.3    32  THR32       0.0376
     26  N         19.0670  -19.8230    3.8080 N.am   33  LYS33      -0.1966
     27  CA        19.3850  -18.5750    4.4730 C.3    33  LYS33       0.1713
     28  C         19.4440  -18.8150    5.9750 C.2    33  LYS33       0.2458
     29  O         18.8920  -19.8060    6.4690 O.2    33  LYS33      -0.2730
     30  CB        18.3440  -17.4940    4.1510 C.3    33  LYS33       0.0311
     31  CG        18.3070  -17.0970    2.6950 C.3    33  LYS33       0.0038
     32  CD        19.5530  -16.3160    2.3100 C.3    33  LYS33       0.0206
     33  CE        19.6130  -16.0810    0.8090 C.3    33  LYS33       0.1093
     34  NZ        20.8730  -15.3950    0.3860 N.3    33  LYS33      -0.1314
     35  N         20.1130  -17.9410    6.7160 N.am   34  PRO34      -0.2716
     36  CA        20.1160  -18.0810    8.1740 C.3    34  PRO34       0.1536
     37  C         18.7040  -18.0660    8.7330 C.2    34  PRO34       0.2598
     38  O         17.7940  -17.4340    8.1910 O.2    34  PRO34      -0.2715
     39  CB        20.9120  -16.8630    8.6470 C.3    34  PRO34       0.0310
     40  CG        21.7920  -16.5180    7.4790 C.3    34  PRO34       0.0237
     41  CD        20.9750  -16.8310    6.2640 C.3    34  PRO34       0.0939
     42  N         18.5350  -18.7850    9.8360 N.am   35  VAL35      -0.1964
     43  CA        17.2690  -18.8010   10.5500 C.3    35  VAL35       0.1727
     44  C         16.9840  -17.4140   11.1160 C.2    35  VAL35       0.2616
     45  O         17.8800  -16.7400   11.6410 O.2    35  VAL35      -0.2715
     46  CB        17.3270  -19.8750   11.6490 C.3    35  VAL35       0.0290
     47  CG1       16.1140  -19.8000   12.5310 C.3    35  VAL35       0.0023
     48  CG2       17.4620  -21.2590   11.0200 C.3    35  VAL35       0.0023
     49  N         15.7360  -16.9680   10.9900 N.am   36  ASP36      -0.1971
     50  CA        15.3400  -15.6420   11.4570 C.3    36  ASP36       0.1709
     51  C         14.9410  -15.7240   12.9180 C.2    36  ASP36       0.2293
     52  O         13.9960  -16.4460   13.2350 O.2    36  ASP36      -0.2864
     53  CB        14.1700  -15.1280   10.6260 C.3    36  ASP36       0.1436
     54  CG        13.6220  -13.7980   11.1230 C.2    36  ASP36       0.3671
     55  OD1       14.3430  -13.0720   11.8410 O.co2  36  ASP36      -0.2456
     56  OD2       12.4740  -13.4640   10.7700 O.co2  36  ASP36      -0.2456
     57  N         11.1790  -15.4730   14.0100 N.3    39  GLU39      -0.1231
     58  CA        10.2170  -16.5360   13.7320 C.3    39  GLU39       0.1699
     59  C         10.2950  -17.6510   14.7710 C.2    39  GLU39       0.2592
     60  O          9.2760  -18.2570   15.1190 O.2    39  GLU39      -0.2718
     61  CB        10.4620  -17.1020   12.3350 C.3    39  GLU39       0.0402
     62  CG        10.1140  -16.1650   11.1900 C.3    39  GLU39       0.1161
     63  CD         8.7400  -16.4810   10.5770 C.2    39  GLU39       0.3649
     64  OE1        7.9550  -17.1600   11.2700 O.co2  39  GLU39      -0.2457
     65  OE2        8.4850  -16.0380    9.4360 O.co2  39  GLU39      -0.2457
     66  N         11.5010  -17.9520   15.2490 N.am   40  VAL40      -0.1980
     67  CA        11.7870  -19.0040   16.2260 C.3    40  VAL40       0.1595
     68  C         12.7930  -18.4450   17.2320 C.2    40  VAL40       0.2287
     69  O         14.0090  -18.6330   17.0650 O.2    40  VAL40      -0.2864
     70  CB        12.3290  -20.2740   15.5420 C.3    40  VAL40       0.0276
     71  CG1       11.2210  -21.0420   14.8360 C.3    40  VAL40       0.0022
     72  CG2       13.4030  -19.9300   14.5390 C.3    40  VAL40       0.0022
     73  N         15.8680  -20.5420   18.8250 N.3    43  TYR43      -0.1241
     74  CA        16.8110  -21.2600   17.9720 C.3    43  TYR43       0.1605
     75  C         18.2560  -21.0210   18.4000 C.2    43  TYR43       0.2264
     76  O         19.0410  -21.9710   18.5060 O.2    43  TYR43      -0.2867
     77  CB        16.6080  -20.8630   16.5100 C.3    43  TYR43       0.0534
     78  CG        17.3210  -21.7790   15.5390 C.ar   43  TYR43      -0.0201
     79  CD1       16.7020  -22.9220   15.0570 C.ar   43  TYR43      -0.0009
     80  CD2       18.6120  -21.5040   15.1070 C.ar   43  TYR43      -0.0009
     81  CE1       17.3440  -23.7660   14.1760 C.ar   43  TYR43       0.0417
     82  CE2       19.2610  -22.3440   14.2210 C.ar   43  TYR43       0.0417
     83  CZ        18.6210  -23.4700   13.7600 C.ar   43  TYR43       0.1957
     84  OH        19.2550  -24.3130   12.8830 O.3    43  TYR43      -0.2866
     85  N         17.0140  -29.5600   16.2460 N.3    85  TYR85      -0.1227
     86  CA        15.9880  -28.5700   16.5320 C.3    85  TYR85       0.1736
     87  C         14.5830  -29.0960   16.2890 C.2    85  TYR85       0.2595
     88  O         13.6270  -28.5390   16.8370 O.2    85  TYR85      -0.2718
     89  CB        16.2140  -27.3010   15.6980 C.3    85  TYR85       0.0548
     90  CG        15.2600  -26.1950   16.0750 C.ar   85  TYR85      -0.0200
     91  CD1       15.3580  -25.5650   17.3070 C.ar   85  TYR85      -0.0009
     92  CD2       14.2520  -25.7920   15.2080 C.ar   85  TYR85      -0.0009
     93  CE1       14.4770  -24.5620   17.6670 C.ar   85  TYR85       0.0417
     94  CE2       13.3700  -24.7880   15.5550 C.ar   85  TYR85       0.0417
     95  CZ        13.4890  -24.1750   16.7840 C.ar   85  TYR85       0.1957
     96  OH        12.6080  -23.1770   17.1290 O.3    85  TYR85      -0.2866
     97  N         14.4340  -30.1680   15.5150 N.am   86  ASN86      -0.1974
     98  CA        13.1230  -30.6900   15.1300 C.3    86  ASN86       0.1688
     99  C         13.0190  -32.1700   15.4660 C.2    86  ASN86       0.2292
    100  O         12.8890  -33.0080   14.5680 O.2    86  ASN86      -0.2864
    101  CB        12.8850  -30.4660   13.6380 C.3    86  ASN86       0.1181
    102  CG        13.0060  -29.0200   13.2460 C.2    86  ASN86       0.2629
    103  OD1       12.0790  -28.2390   13.4320 O.2    86  ASN86      -0.2716
    104  ND2       14.1510  -28.6530   12.6750 N.am   86  ASN86      -0.0877
    105  N         10.9480  -31.4480    8.0880 N.3    96  ILE96      -0.1245
    106  CA        12.2700  -30.8290    8.0500 C.3    96  ILE96       0.1561
    107  C         13.3610  -31.8800    8.2070 C.2    96  ILE96       0.2260
    108  O         14.3950  -31.8170    7.5310 O.2    96  ILE96      -0.2867
    109  CB        12.3930  -29.7170    9.1070 C.3    96  ILE96       0.0252
    110  CG1       11.2940  -28.6760    8.8940 C.3    96  ILE96       0.0019
    111  CG2       13.7830  -29.0700    9.0440 C.3    96  ILE96       0.0019
    112  CD1       11.2340  -28.1390    7.4770 C.3    96  ILE96       0.0001
@<TRIPOS>BOND
     1     7     6    1
     2     7     8    1
     3    25    23    1
     4     5     6    1
     5     5     2    1
     6     1     2    1
     7    34    33    1
     8     2     3    1
     9     8     9    2
    10    23    24    1
    11    23    20    1
    12    33    32    1
    13     9    11    1
    14     9    10    1
    15     3     4    2
    16     3    12   am
    17    20    21    1
    18    20    19    1
    19    22    21    2
    20    32    31    1
    21    31    30    1
    22    21    26   am
    23    12    13    1
    24    26    27    1
    25    30    27    1
    26    13    14    1
    27    13    16    1
    28    27    28    1
    29    14    15    2
    30    17    16    1
    31    18    16    1
    32    28    29    2
    33    28    35   am
    34    41    35    1
    35    41    40    1
    36    35    36    1
    37   112   110    1
    38    40    39    1
    39   108   107    2
    40   106   105    1
    41   106   107    1
    42   106   109    1
    43    36    39    1
    44    36    37    1
    45    38    37    2
    46    37    42   am
    47   110   109    1
    48   111   109    1
    49    65    63   ar
    50    42    43    1
    51    43    44    1
    52    43    46    1
    53    63    62    1
    54    63    64   ar
    55    53    54    1
    56    53    50    1
    57    56    54   ar
    58    49    44   am
    59    49    50    1
    60    48    46    1
    61    44    45    2
    62    54    55   ar
    63    62    61    1
    64    50    51    1
    65    46    47    1
    66    61    58    1
    67   104   102   am
    68    84    83    1
    69    51    52    2
    70   102   103    2
    71   102   101    1
    72   101    98    1
    73    58    57    1
    74    58    59    1
    75    83    81   ar
    76    83    82   ar
    77    81    79   ar
    78    82    80   ar
    79    72    70    1
    80   100    99    2
    81    59    60    2
    82    59    66   am
    83    71    70    1
    84    79    78   ar
    85    80    78   ar
    86    98    99    1
    87    98    97    1
    88    92    94   ar
    89    92    90   ar
    90    66    67    1
    91    97    87   am
    92    78    77    1
    93    70    67    1
    94    94    95   ar
    95    89    90    1
    96    89    86    1
    97    90    91   ar
    98    67    68    1
    99    85    86    1
   100    87    86    1
   101    87    88    2
   102    77    74    1
   103    95    96    1
   104    95    93   ar
   105    69    68    2
   106    91    93   ar
   107    74    75    1
   108    74    73    1
   109    75    76    2
