@<TRIPOS>MOLECULE
tmp/5epbA00.pdb
 120 113 0 0 0
SMALL
GASTEIGER

@<TRIPOS>ATOM
      1  N         14.8900  -25.2500    0.3080 N.3    29  ARG29      -0.1231
      2  CA        14.7240  -23.8140    0.4850 C.3    29  ARG29       0.1694
      3  C         14.8930  -23.4160    1.9460 C.2    29  ARG29       0.2592
      4  O         15.4760  -22.3700    2.2440 O.2    29  ARG29      -0.2718
      5  CB        13.3610  -23.3590   -0.0420 C.3    29  ARG29       0.0321
      6  CG        13.2180  -21.8440   -0.0080 C.3    29  ARG29       0.0489
      7  CD        11.7770  -21.3880   -0.1760 C.3    29  ARG29       0.2205
      8  NE        10.8350  -22.2660    0.5180 N.pl3  29  ARG29      -0.0865
      9  CZ        10.6570  -22.2920    1.8370 C.cat  29  ARG29       0.5346
     10  NH1       11.3690  -21.4970    2.6280 N.pl3  29  ARG29       0.1354
     11  NH2        9.7740  -23.1280    2.3710 N.pl3  29  ARG29       0.1354
     12  N         14.4160  -24.2500    2.8760 N.am   30  VAL30      -0.1966
     13  CA        14.5200  -23.9020    4.2890 C.3    30  VAL30       0.1727
     14  C         15.9590  -23.8420    4.7800 C.2    30  VAL30       0.2616
     15  O         16.2070  -23.3000    5.8610 O.2    30  VAL30      -0.2715
     16  CB        13.7090  -24.8820    5.1650 C.3    30  VAL30       0.0290
     17  CG1       12.2270  -24.8180    4.8090 C.3    30  VAL30       0.0023
     18  CG2       14.2480  -26.3130    5.0350 C.3    30  VAL30       0.0023
     19  N         16.9180  -24.3620    4.0120 N.am   31  PHE31      -0.1974
     20  CA        18.3230  -24.3510    4.4030 C.3    31  PHE31       0.1639
     21  C         19.1320  -23.2780    3.6780 C.2    31  PHE31       0.2290
     22  O         20.3580  -23.2390    3.8370 O.2    31  PHE31      -0.2864
     23  CB        18.9540  -25.7300    4.1620 C.3    31  PHE31       0.0560
     24  CG        18.1880  -26.8630    4.7930 C.ar   31  PHE31      -0.0200
     25  CD1       17.9740  -26.8880    6.1620 C.ar   31  PHE31      -0.0042
     26  CD2       17.6910  -27.9000    4.0190 C.ar   31  PHE31      -0.0042
     27  CE1       17.2700  -27.9260    6.7490 C.ar   31  PHE31      -0.0003
     28  CE2       16.9830  -28.9430    4.5870 C.ar   31  PHE31      -0.0003
     29  CZ        16.7680  -28.9600    5.9590 C.ar   31  PHE31      -0.0000
     30  N         19.0670  -19.8230    3.8080 N.3    33  LYS33      -0.1245
     31  CA        19.3850  -18.5750    4.4730 C.3    33  LYS33       0.1561
     32  C         19.4440  -18.8150    5.9750 C.2    33  LYS33       0.2260
     33  O         18.8920  -19.8060    6.4690 O.2    33  LYS33      -0.2867
     34  CB        18.3440  -17.4940    4.1510 C.3    33  LYS33       0.0271
     35  CG        18.3070  -17.0970    2.6950 C.3    33  LYS33       0.0035
     36  CD        19.5530  -16.3160    2.3100 C.3    33  LYS33       0.0206
     37  CE        19.6130  -16.0810    0.8090 C.3    33  LYS33       0.1093
     38  NZ        20.8730  -15.3950    0.3860 N.3    33  LYS33      -0.1314
     39  N         18.5350  -18.7850    9.8360 N.3    35  VAL35      -0.1245
     40  CA        17.2690  -18.8010   10.5500 C.3    35  VAL35       0.1561
     41  C         16.9840  -17.4140   11.1160 C.2    35  VAL35       0.2260
     42  O         17.8800  -16.7400   11.6410 O.2    35  VAL35      -0.2867
     43  CB        17.3270  -19.8750   11.6490 C.3    35  VAL35       0.0252
     44  CG1       16.1140  -19.8000   12.5310 C.3    35  VAL35       0.0019
     45  CG2       17.4620  -21.2590   11.0200 C.3    35  VAL35       0.0019
     46  N         11.5010  -17.9520   15.2490 N.3    40  VAL40      -0.1245
     47  CA        11.7870  -19.0040   16.2260 C.3    40  VAL40       0.1561
     48  C         12.7930  -18.4450   17.2320 C.2    40  VAL40       0.2260
     49  O         14.0090  -18.6330   17.0650 O.2    40  VAL40      -0.2867
     50  CB        12.3290  -20.2740   15.5420 C.3    40  VAL40       0.0252
     51  CG1       11.2210  -21.0420   14.8360 C.3    40  VAL40       0.0019
     52  CG2       13.4030  -19.9300   14.5390 C.3    40  VAL40       0.0019
     53  N         15.8680  -20.5420   18.8250 N.3    43  TYR43      -0.1241
     54  CA        16.8110  -21.2600   17.9720 C.3    43  TYR43       0.1605
     55  C         18.2560  -21.0210   18.4000 C.2    43  TYR43       0.2264
     56  O         19.0410  -21.9710   18.5060 O.2    43  TYR43      -0.2867
     57  CB        16.6080  -20.8630   16.5100 C.3    43  TYR43       0.0534
     58  CG        17.3210  -21.7790   15.5390 C.ar   43  TYR43      -0.0201
     59  CD1       16.7020  -22.9220   15.0570 C.ar   43  TYR43      -0.0009
     60  CD2       18.6120  -21.5040   15.1070 C.ar   43  TYR43      -0.0009
     61  CE1       17.3440  -23.7660   14.1760 C.ar   43  TYR43       0.0417
     62  CE2       19.2610  -22.3440   14.2210 C.ar   43  TYR43       0.0417
     63  CZ        18.6210  -23.4700   13.7600 C.ar   43  TYR43       0.1957
     64  OH        19.2550  -24.3130   12.8830 O.3    43  TYR43      -0.2866
     65  N         19.2180  -29.3200   11.9920 N.3    82  ALA82      -0.1245
     66  CA        17.8020  -29.5310   11.7180 C.3    82  ALA82       0.1562
     67  C         17.2490  -30.7150   12.5060 C.2    82  ALA82       0.2260
     68  O         16.1280  -30.6530   13.0290 O.2    82  ALA82      -0.2867
     69  CB        17.5900  -29.7430   10.2220 C.3    82  ALA82       0.0290
     70  N         17.0140  -29.5600   16.2460 N.3    85  TYR85      -0.1227
     71  CA        15.9880  -28.5700   16.5320 C.3    85  TYR85       0.1736
     72  C         14.5830  -29.0960   16.2890 C.2    85  TYR85       0.2595
     73  O         13.6270  -28.5390   16.8370 O.2    85  TYR85      -0.2718
     74  CB        16.2140  -27.3010   15.6980 C.3    85  TYR85       0.0548
     75  CG        15.2600  -26.1950   16.0750 C.ar   85  TYR85      -0.0200
     76  CD1       15.3580  -25.5650   17.3070 C.ar   85  TYR85      -0.0009
     77  CD2       14.2520  -25.7920   15.2080 C.ar   85  TYR85      -0.0009
     78  CE1       14.4770  -24.5620   17.6670 C.ar   85  TYR85       0.0417
     79  CE2       13.3700  -24.7880   15.5550 C.ar   85  TYR85       0.0417
     80  CZ        13.4890  -24.1750   16.7840 C.ar   85  TYR85       0.1957
     81  OH        12.6080  -23.1770   17.1290 O.3    85  TYR85      -0.2866
     82  N         14.4340  -30.1680   15.5150 N.am   86  ASN86      -0.1974
     83  CA        13.1230  -30.6900   15.1300 C.3    86  ASN86       0.1688
     84  C         13.0190  -32.1700   15.4660 C.2    86  ASN86       0.2292
     85  O         12.8890  -33.0080   14.5680 O.2    86  ASN86      -0.2864
     86  CB        12.8850  -30.4660   13.6380 C.3    86  ASN86       0.1181
     87  CG        13.0060  -29.0200   13.2460 C.2    86  ASN86       0.2629
     88  OD1       12.0790  -28.2390   13.4320 O.2    86  ASN86      -0.2716
     89  ND2       14.1510  -28.6530   12.6750 N.am   86  ASN86      -0.0877
     90  N          5.4070  -31.1770   11.0460 N.3    92  GLY92      -0.1225
     91  CA         6.3320  -30.1030   10.7170 C.3    92  GLY92       0.1811
     92  C          7.7680  -30.4780   11.0160 C.2    92  GLY92       0.2280
     93  O          8.6720  -30.2030   10.2200 O.2    92  GLY92      -0.2866
     94  N          8.8690  -33.3420    8.4740 N.3    95  LEU95      -0.1231
     95  CA         9.1670  -32.8290    7.1410 C.3    95  LEU95       0.1693
     96  C         10.5740  -32.2430    7.0840 C.2    95  LEU95       0.2591
     97  O         11.3370  -32.5140    6.1470 O.2    95  LEU95      -0.2718
     98  CB         8.1270  -31.7850    6.7360 C.3    95  LEU95       0.0284
     99  CG         8.3840  -31.0510    5.4160 C.3    95  LEU95       0.0019
    100  CD1        8.3550  -31.9920    4.2190 C.3    95  LEU95       0.0001
    101  CD2        7.3810  -29.9280    5.2440 C.3    95  LEU95       0.0001
    102  N         10.9480  -31.4480    8.0880 N.am   96  ILE96      -0.1980
    103  CA        12.2700  -30.8290    8.0500 C.3    96  ILE96       0.1595
    104  C         13.3610  -31.8800    8.2070 C.2    96  ILE96       0.2287
    105  O         14.3950  -31.8170    7.5310 O.2    96  ILE96      -0.2864
    106  CB        12.3930  -29.7170    9.1070 C.3    96  ILE96       0.0276
    107  CG1       11.2940  -28.6760    8.8940 C.3    96  ILE96       0.0022
    108  CG2       13.7830  -29.0700    9.0440 C.3    96  ILE96       0.0022
    109  CD1       11.2340  -28.1390    7.4770 C.3    96  ILE96       0.0001
    110  N         13.8380  -33.5110    4.8560 N.3    99  ARG99      -0.1245
    111  CA        14.5760  -32.6310    3.9550 C.3    99  ARG99       0.1563
    112  C         16.0400  -32.5400    4.3450 C.2    99  ARG99       0.2260
    113  O         16.9180  -32.4880    3.4720 O.2    99  ARG99      -0.2867
    114  CB        13.9550  -31.2400    3.9600 C.3    99  ARG99       0.0307
    115  CG        12.6060  -31.1870    3.2750 C.3    99  ARG99       0.0489
    116  CD        11.9090  -29.8820    3.5460 C.3    99  ARG99       0.2205
    117  NE        10.7260  -29.7370    2.7050 N.pl3  99  ARG99      -0.0865
    118  CZ         9.8760  -28.7190    2.7860 C.cat  99  ARG99       0.5346
    119  NH1       10.0640  -27.7660    3.6920 N.pl3  99  ARG99       0.1354
    120  NH2        8.8220  -28.6740    1.9800 N.pl3  99  ARG99       0.1354
@<TRIPOS>BOND
     1     7     6    1
     2     7     8    1
     3     5     6    1
     4     5     2    1
     5     1     2    1
     6    38    37    1
     7     2     3    1
     8     8     9    2
     9    37    36    1
    10     9    11    1
    11     9    10    1
    12     3     4    2
    13     3    12   am
    14   120   118    1
    15    36    35    1
    16    35    34    1
    17   117   118    2
    18   117   116    1
    19   118   119    1
    20    12    13    1
    21   115   116    1
    22   115   114    1
    23   113   112    2
    24    21    22    2
    25    21    20    1
    26    30    31    1
    27   111   114    1
    28   111   112    1
    29   111   110    1
    30    19    20    1
    31    19    14   am
    32    26    28   ar
    33    26    24   ar
    34    34    31    1
    35    23    20    1
    36    23    24    1
    37   100    99    1
    38    13    14    1
    39    13    16    1
    40    31    32    1
    41    28    29   ar
    42    14    15    2
    43    24    25   ar
    44    17    16    1
    45    18    16    1
    46   101    99    1
    47    99    98    1
    48    29    27   ar
    49    32    33    2
    50    97    96    2
    51    25    27   ar
    52    98    95    1
    53    96    95    1
    54    96   102   am
    55    95    94    1
    56   109   107    1
    57   105   104    2
    58   103   102    1
    59   103   104    1
    60   103   106    1
    61   107   106    1
    62   108   106    1
    63    39    40    1
    64    93    92    2
    65    69    66    1
    66    40    41    1
    67    40    43    1
    68    91    92    1
    69    91    90    1
    70    45    43    1
    71    41    42    2
    72    43    44    1
    73    66    65    1
    74    66    67    1
    75    67    68    2
    76    89    87   am
    77    64    63    1
    78    87    88    2
    79    87    86    1
    80    86    83    1
    81    63    61   ar
    82    63    62   ar
    83    61    59   ar
    84    62    60   ar
    85    52    50    1
    86    85    84    2
    87    51    50    1
    88    59    58   ar
    89    60    58   ar
    90    83    84    1
    91    83    82    1
    92    77    79   ar
    93    77    75   ar
    94    46    47    1
    95    82    72   am
    96    58    57    1
    97    50    47    1
    98    79    80   ar
    99    74    75    1
   100    74    71    1
   101    75    76   ar
   102    47    48    1
   103    70    71    1
   104    72    71    1
   105    72    73    2
   106    57    54    1
   107    80    81    1
   108    80    78   ar
   109    49    48    2
   110    76    78   ar
   111    54    55    1
   112    54    53    1
   113    55    56    2
