@<TRIPOS>MOLECULE
tmp/5ephA00.pdb
 121 114 0 0 0
SMALL
GASTEIGER

@<TRIPOS>ATOM
      1  N         -1.9070    9.2440   50.1210 N.3    41  CYS41      -0.1221
      2  CA        -2.1590    9.5720   51.5350 C.3    41  CYS41       0.1808
      3  C         -2.6780    8.4410   52.4320 C.2    41  CYS41       0.2601
      4  O         -2.6260    8.5710   53.6590 O.2    41  CYS41      -0.2717
      5  CB        -3.0470   10.8030   51.6980 C.3    41  CYS41       0.0970
      6  SG        -4.8090   10.5090   51.5720 S.3    41  CYS41      -0.0800
      7  N         -3.2100    7.3810   51.8400 N.am   42  SER42      -0.1952
      8  CA        -3.7510    6.2580   52.6080 C.3    42  SER42       0.1924
      9  C         -3.3380    4.8930   52.0460 C.2    42  SER42       0.2314
     10  O         -3.2140    3.9270   52.8200 O.2    42  SER42      -0.2863
     11  CB        -5.2600    6.2430   52.5520 C.3    42  SER42       0.2116
     12  OG        -5.8480    7.4160   53.0590 O.3    42  SER42      -0.2180
     13  N         -0.7070    2.2290   53.2160 N.3    45  LYS45      -0.1245
     14  CA        -0.8920    1.3120   54.3420 C.3    45  LYS45       0.1561
     15  C         -0.8690   -0.1450   53.9350 C.2    45  LYS45       0.2260
     16  O         -0.6090   -1.0240   54.7990 O.2    45  LYS45      -0.2867
     17  CB        -2.2140    1.6290   55.0940 C.3    45  LYS45       0.0271
     18  CG        -2.1910    3.0320   55.7010 C.3    45  LYS45       0.0035
     19  CD        -3.4890    3.4600   56.3880 C.3    45  LYS45       0.0206
     20  CE        -3.4960    4.9480   56.7700 C.3    45  LYS45       0.1093
     21  NZ        -4.8730    5.2990   57.2550 N.3    45  LYS45      -0.1314
     22  N         -7.1200   12.5170   64.2530 N.3    76  GLU76      -0.1231
     23  CA        -8.5220   12.9160   64.1600 C.3    76  GLU76       0.1699
     24  C         -9.3990   11.7690   63.6640 C.2    76  GLU76       0.2592
     25  O        -10.5070   11.6200   64.1460 O.2    76  GLU76      -0.2718
     26  CB        -8.7170   14.1290   63.2350 C.3    76  GLU76       0.0402
     27  CG        -8.1200   15.4340   63.7590 C.3    76  GLU76       0.1161
     28  CD        -6.6360   15.6140   63.5940 C.2    76  GLU76       0.3649
     29  OE1       -5.9190   14.7440   63.0120 O.co2  76  GLU76      -0.2457
     30  OE2       -6.1680   16.6700   64.0650 O.co2  76  GLU76      -0.2457
     31  N         -8.8830   11.0140   62.6780 N.am   77  TYR77      -0.1976
     32  CA        -9.5530    9.7910   62.1580 C.3    77  TYR77       0.1639
     33  C         -8.7500    8.6060   62.6630 C.2    77  TYR77       0.2290
     34  O         -7.7580    8.2080   62.0720 O.2    77  TYR77      -0.2864
     35  CB        -9.6440    9.7530   60.6480 C.3    77  TYR77       0.0560
     36  CG       -10.3930    8.5510   60.1970 C.ar   77  TYR77      -0.0198
     37  CD1      -11.7680    8.4290   60.4680 C.ar   77  TYR77      -0.0009
     38  CD2       -9.7340    7.4950   59.5960 C.ar   77  TYR77      -0.0009
     39  CE1      -12.4540    7.2710   60.1180 C.ar   77  TYR77       0.0417
     40  CE2      -10.4250    6.3550   59.2160 C.ar   77  TYR77       0.0417
     41  CZ       -11.7730    6.2550   59.4410 C.ar   77  TYR77       0.1957
     42  OH       -12.4110    5.0520   59.0690 O.3    77  TYR77      -0.2866
     43  N        -10.1610   -0.1690   58.3410 N.3   102  LEU102     -0.1231
     44  CA       -10.7620    1.0730   58.7360 C.3   102  LEU102      0.1693
     45  C         -9.9810    2.3120   58.2480 C.2   102  LEU102      0.2592
     46  O        -10.4480    3.4280   58.3310 O.2   102  LEU102     -0.2718
     47  CB       -10.8720    1.1090   60.2560 C.3   102  LEU102      0.0284
     48  CG       -11.6410   -0.0250   60.9680 C.3   102  LEU102      0.0019
     49  CD1      -11.6920    0.2370   62.4600 C.3   102  LEU102      0.0001
     50  CD2      -13.0120   -0.0350   60.3960 C.3   102  LEU102      0.0001
     51  N         -8.7690    2.1050   57.7840 N.am  103  SER103     -0.1952
     52  CA        -7.8460    3.1920   57.4890 C.3   103  SER103      0.1924
     53  C         -7.6010    4.0800   58.6860 C.2   103  SER103      0.2314
     54  O         -7.4600    5.3080   58.5300 O.2   103  SER103     -0.2863
     55  CB        -8.3010    4.0190   56.2700 C.3   103  SER103      0.2116
     56  OG        -7.1700    4.4560   55.4900 O.3   103  SER103     -0.2180
     57  N         -5.7700    6.0940   61.1860 N.3   105  ASN105     -0.1240
     58  CA        -4.4870    6.8390   61.0570 C.3   105  ASN105      0.1653
     59  C         -3.5130    6.6410   62.1890 C.2   105  ASN105      0.2266
     60  O         -2.2950    6.5840   61.9710 O.2   105  ASN105     -0.2867
     61  CB        -4.8160    8.3100   60.8660 C.3   105  ASN105      0.1155
     62  CG        -5.3470    8.6270   59.4900 C.2   105  ASN105      0.2627
     63  OD1       -6.0160    9.6310   59.2930 O.2   105  ASN105     -0.2716
     64  ND2       -4.9840    7.8430   58.5190 N.am  105  ASN105     -0.0877
     65  N          1.0220   10.2220   59.2860 N.3   139  GLU139     -0.1231
     66  CA        -0.3230   10.8210   59.3260 C.3   139  GLU139      0.1684
     67  C         -0.4200   11.9260   60.3790 C.2   139  GLU139      0.2434
     68  O          0.2250   11.7970   61.4160 O.2   139  GLU139     -0.2733
     69  CB        -1.3520    9.7560   59.6830 C.3   139  GLU139      0.0402
     70  CG        -1.4420    8.6700   58.6490 C.3   139  GLU139      0.1161
     71  CD        -2.2380    9.0930   57.4460 C.2   139  GLU139      0.3649
     72  OE1       -2.6870   10.2710   57.3670 O.co2 139  GLU139     -0.2457
     73  OE2       -2.4240    8.2350   56.5690 O.co2 139  GLU139     -0.2457
     74  N         -1.1870   13.0050   60.1630 N.am  140  PRO140     -0.2729
     75  CA        -1.8700   13.3480   58.9170 C.3   140  PRO140      0.1401
     76  C         -1.0140   14.3220   58.0480 C.2   140  PRO140      0.2269
     77  O         -1.4740   14.8030   57.0150 O.2   140  PRO140     -0.2865
     78  CB        -3.0650   14.1260   59.4370 C.3   140  PRO140      0.0296
     79  CG        -2.4550   14.9650   60.5450 C.3   140  PRO140      0.0237
     80  CD        -1.3790   14.0770   61.1730 C.3   140  PRO140      0.0939
     81  N         -0.5760   14.3430   54.1680 N.3   143  ASN143     -0.1240
     82  CA        -1.6900   14.6790   53.3080 C.3   143  ASN143      0.1653
     83  C         -1.7150   16.1900   52.9220 C.2   143  ASN143      0.2266
     84  O         -2.7730   16.8360   52.8870 O.2   143  ASN143     -0.2867
     85  CB        -2.9760   14.2170   54.0020 C.3   143  ASN143      0.1155
     86  CG        -4.1890   14.3800   53.1370 C.2   143  ASN143      0.2627
     87  OD1       -4.1030   14.3640   51.8760 O.2   143  ASN143     -0.2716
     88  ND2       -5.3510   14.5200   53.7920 N.am  143  ASN143     -0.0877
     89  N        -14.0560   -0.0070   54.0350 N.3   187  THR187     -0.1218
     90  CA       -14.1800    1.3240   53.4450 C.3   187  THR187      0.1862
     91  C        -14.3950    1.3440   51.8900 C.2   187  THR187      0.2287
     92  O        -14.5540    2.4550   51.3330 O.2   187  THR187     -0.2866
     93  CB       -12.9050    2.1160   53.7890 C.3   187  THR187      0.1770
     94  OG1      -11.8100    1.5640   53.0900 O.3   187  THR187     -0.2211
     95  CG2      -12.6330    2.1080   55.2380 C.3   187  THR187      0.0375
     96  N         -7.6650   -1.4700   49.2560 N.3   205  LYS205     -0.1231
     97  CA        -7.3490   -0.4170   50.2360 C.3   205  LYS205      0.1693
     98  C         -7.6880    0.9330   49.5600 C.2   205  LYS205      0.2593
     99  O         -7.2350    1.1730   48.4400 O.2   205  LYS205     -0.2718
    100  CB        -5.8360   -0.4790   50.6040 C.3   205  LYS205      0.0285
    101  CG        -5.4250    0.6760   51.5070 C.3   205  LYS205      0.0035
    102  CD        -5.9000    0.4130   52.9550 C.3   205  LYS205      0.0206
    103  CE        -5.9910    1.6900   53.7330 C.3   205  LYS205      0.1093
    104  NZ        -7.1780    2.5500   53.5270 N.3   205  LYS205     -0.1314
    105  N         -8.5290    1.7440   50.2010 N.am  206  THR206     -0.1939
    106  CA        -8.9620    3.0210   49.6950 C.3   206  THR206      0.2028
    107  C         -8.0780    4.1650   50.2440 C.2   206  THR206      0.2643
    108  O         -7.2140    3.9850   51.0760 O.2   206  THR206     -0.2714
    109  CB       -10.3990    3.3250   50.1020 C.3   206  THR206      0.1808
    110  OG1      -10.5110    3.2060   51.5530 O.3   206  THR206     -0.2208
    111  CG2      -11.3680    2.3970   49.4610 C.3   206  THR206      0.0379
    112  N         -8.3470    5.3470   49.7510 N.am  207  GLY207     -0.1939
    113  CA        -7.8100    6.5390   50.3500 C.3   207  GLY207      0.2014
    114  C         -8.6870    7.7110   50.0300 C.2   207  GLY207      0.2639
    115  O         -9.2860    7.8060   48.9470 O.2   207  GLY207     -0.2714
    116  N         -8.7310    8.6420   50.9650 N.am  208  SER208     -0.1949
    117  CA        -9.3370    9.9350   50.6860 C.3   208  SER208      0.1924
    118  C         -8.3060   10.9820   51.0550 C.2   208  SER208      0.2314
    119  O         -7.8270   10.9990   52.1740 O.2   208  SER208     -0.2863
    120  CB       -10.6450   10.1600   51.4520 C.3   208  SER208      0.2116
    121  OG       -11.7020    9.2500   51.0220 O.3   208  SER208     -0.2180
@<TRIPOS>BOND
     1    99    98    2
     2   115   114    2
     3    96    97    1
     4   111   109    1
     5    98   105   am
     6    98    97    1
     7   106   109    1
     8   106   105    1
     9   106   107    1
    10   112   107   am
    11   112   113    1
    12   114   113    1
    13   114   116   am
    14   109   110    1
    15     1     2    1
    16    97   100    1
    17   107   108    2
    18   100   101    1
    19   117   116    1
    20   117   118    1
    21   117   120    1
    22   121   120    1
    23   118   119    2
    24    92    91    2
    25   101   102    1
    26     2     5    1
    27     2     3    1
    28     6     5    1
    29     7     3   am
    30     7     8    1
    31    87    86    2
    32    91    90    1
    33     9     8    1
    34     9    10    2
    35     3     4    2
    36    11     8    1
    37    11    12    1
    38    84    83    2
    39    83    82    1
    40   102   103    1
    41    94    93    1
    42    86    88   am
    43    86    85    1
    44    13    14    1
    45    82    85    1
    46    82    81    1
    47    90    93    1
    48    90    89    1
    49   104   103    1
    50    93    95    1
    51    15    14    1
    52    15    16    2
    53    14    17    1
    54    17    18    1
    55    56    55    1
    56    18    19    1
    57    55    52    1
    58    19    20    1
    59    73    71   ar
    60    20    21    1
    61    77    76    2
    62    72    71   ar
    63    71    70    1
    64    52    51    1
    65    52    53    1
    66    51    45   am
    67    76    75    1
    68    45    46    2
    69    45    44    1
    70    43    44    1
    71    64    62   am
    72    54    53    2
    73    70    69    1
    74    44    47    1
    75    75    78    1
    76    75    74    1
    77    42    41    1
    78    40    41   ar
    79    40    38   ar
    80    65    66    1
    81    63    62    2
    82    66    69    1
    83    66    67    1
    84    78    79    1
    85    41    39   ar
    86    62    61    1
    87    38    36   ar
    88    39    37   ar
    89    74    67   am
    90    74    80    1
    91    36    37   ar
    92    36    35    1
    93    47    48    1
    94    67    68    2
    95    50    48    1
    96    79    80    1
    97    35    32    1
    98    61    58    1
    99    48    49    1
   100    58    57    1
   101    58    59    1
   102    60    59    2
   103    34    33    2
   104    32    33    1
   105    32    31    1
   106    31    24   am
   107    29    28   ar
   108    26    27    1
   109    26    23    1
   110    28    27    1
   111    28    30   ar
   112    24    25    2
   113    24    23    1
   114    23    22    1
