@<TRIPOS>MOLECULE
tmp/5ephB01.pdb
 87 83 0 0 0
SMALL
GASTEIGER

@<TRIPOS>ATOM
      1  N         35.1560  -24.3020   28.0730 N.3    16  LYS16      -0.1245
      2  CA        34.7980  -23.4410   29.1540 C.3    16  LYS16       0.1561
      3  C         33.2530  -23.3520   29.1450 C.2    16  LYS16       0.2260
      4  O         32.6650  -23.0700   28.1150 O.2    16  LYS16      -0.2867
      5  CB        35.3460  -22.0510   28.9460 C.3    16  LYS16       0.0271
      6  CG        35.1530  -21.1360   30.1340 C.3    16  LYS16       0.0035
      7  CD        35.8830  -19.8190   29.9480 C.3    16  LYS16       0.0206
      8  CE        35.5860  -18.8700   31.0670 C.3    16  LYS16       0.1093
      9  NZ        35.9860  -17.4750   30.6990 N.3    16  LYS16      -0.1314
     10  N         32.1560  -13.6170   32.2290 N.3    37  ARG37      -0.1231
     11  CA        31.7060  -13.0980   30.9830 C.3    37  ARG37       0.1694
     12  C         31.9490  -14.0690   29.8260 C.2    37  ARG37       0.2592
     13  O         32.9880  -14.7250   29.7500 O.2    37  ARG37      -0.2718
     14  CB        32.3780  -11.7390   30.7180 C.3    37  ARG37       0.0321
     15  CG        31.7930  -10.6800   31.6320 C.3    37  ARG37       0.0489
     16  CD        32.5390   -9.3690   31.4850 C.3    37  ARG37       0.2205
     17  NE        31.7840   -8.2670   31.9930 N.pl3  37  ARG37      -0.0865
     18  CZ        31.7760   -7.8520   33.2380 C.cat  37  ARG37       0.5346
     19  NH1       32.4520   -8.4830   34.1880 N.pl3  37  ARG37       0.1354
     20  NH2       31.0610   -6.7940   33.5270 N.pl3  37  ARG37       0.1354
     21  N         30.9950  -14.0900   28.9100 N.am   38  PHE38      -0.1962
     22  CA        31.1040  -14.8420   27.6530 C.3    38  PHE38       0.1771
     23  C         30.6400  -13.9530   26.5430 C.2    38  PHE38       0.2619
     24  O         29.7760  -13.0750   26.7680 O.2    38  PHE38      -0.2715
     25  CB        30.2390  -16.1000   27.7010 C.3    38  PHE38       0.0574
     26  CG        30.7130  -17.1370   28.6610 C.ar   38  PHE38      -0.0200
     27  CD1       30.4740  -17.0040   30.0050 C.ar   38  PHE38      -0.0042
     28  CD2       31.3710  -18.2420   28.2290 C.ar   38  PHE38      -0.0042
     29  CE1       30.8850  -17.9700   30.9060 C.ar   38  PHE38      -0.0003
     30  CE2       31.7800  -19.2040   29.1070 C.ar   38  PHE38      -0.0003
     31  CZ        31.5670  -19.0630   30.4520 C.ar   38  PHE38      -0.0000
     32  N         31.1340  -14.1930   25.3240 N.am   39  ALA39      -0.1977
     33  CA        30.7530  -13.3590   24.1730 C.3    39  ALA39       0.1597
     34  C         29.2700  -13.5780   23.8940 C.2    39  ALA39       0.2287
     35  O         28.8310  -14.7250   23.7020 O.2    39  ALA39      -0.2864
     36  CB        31.5440  -13.7060   22.9370 C.3    39  ALA39       0.0319
     37  N         43.2080   -8.6530   25.7400 N.2   140  PRO140     -0.2571
     38  CA        42.9070  -10.0370   26.1460 C.3   140  PRO140      0.2026
     39  C         41.6790  -10.1550   27.0630 C.2   140  PRO140      0.2684
     40  O         41.1480  -11.2380   27.2370 O.2   140  PRO140     -0.2709
     41  CB        44.1720  -10.4960   26.8840 C.2   140  PRO140      0.0085
     42  CG        45.1480   -9.3990   26.7870 C.2   140  PRO140      0.0180
     43  CD        44.5720   -8.2160   26.0920 C.2   140  PRO140      0.0938
     44  N         41.2370   -9.0520   27.6590 N.am  141  GLY141     -0.1935
     45  CA        40.0620   -9.0540   28.5510 C.3   141  GLY141      0.2014
     46  C         38.9160   -8.2200   28.0600 C.2   141  GLY141      0.2639
     47  O         38.1790   -7.6630   28.8480 O.2   141  GLY141     -0.2714
     48  N         38.8320   -8.0590   26.7440 N.am  142  ASP142     -0.1957
     49  CA        37.8550   -7.1950   26.1020 C.3   142  ASP142      0.1840
     50  C         36.4420   -7.6120   26.4680 C.2   142  ASP142      0.2621
     51  O         36.0370   -8.7480   26.2170 O.2   142  ASP142     -0.2715
     52  CB        37.9780   -7.3510   24.5660 C.3   142  ASP142      0.1450
     53  CG        37.2470   -6.3020   23.8060 C.2   142  ASP142      0.3671
     54  OD1       36.4140   -5.5880   24.3870 O.co2 142  ASP142     -0.2456
     55  OD2       37.5130   -6.1470   22.5510 O.co2 142  ASP142     -0.2456
     56  N         35.7080   -6.7150   27.0600 N.am  143  GLU143     -0.1977
     57  CA        34.3910   -7.0920   27.5830 C.3   143  GLU143      0.1602
     58  C         33.2880   -6.6220   26.6640 C.2   143  GLU143      0.2287
     59  O         32.0640   -6.7620   26.9710 O.2   143  GLU143     -0.2864
     60  CB        34.1750   -6.5350   28.9990 C.3   143  GLU143      0.0415
     61  CG        35.0330   -7.1910   30.0270 C.3   143  GLU143      0.1163
     62  CD        34.9540   -6.5930   31.4330 C.2   143  GLU143      0.3649
     63  OE1       34.2820   -5.5840   31.6600 O.co2 143  GLU143     -0.2457
     64  OE2       35.6760   -7.1280   32.3210 O.co2 143  GLU143     -0.2457
     65  N         29.4970   -8.7650   25.5700 N.3   146  THR146     -0.1218
     66  CA        29.4960   -9.8610   26.5150 C.3   146  THR146      0.1862
     67  C         28.3020   -9.7790   27.4480 C.2   146  THR146      0.2287
     68  O         27.6330   -8.7500   27.5870 O.2   146  THR146     -0.2866
     69  CB        30.7770   -9.9570   27.4130 C.3   146  THR146      0.1770
     70  OG1       30.9200   -8.7870   28.2610 O.3   146  THR146     -0.2211
     71  CG2       31.9990  -10.2020   26.6010 C.3   146  THR146      0.0375
     72  N         35.4200  -18.6510   18.2500 N.3   206  ASN206     -0.1240
     73  CA        36.1270  -19.4450   19.2400 C.3   206  ASN206      0.1653
     74  C         35.3300  -20.6430   19.7790 C.2   206  ASN206      0.2266
     75  O         35.4500  -21.0530   20.9490 O.2   206  ASN206     -0.2867
     76  CB        36.5920  -18.5270   20.3380 C.3   206  ASN206      0.1155
     77  CG        37.4460  -17.3720   19.8130 C.2   206  ASN206      0.2627
     78  OD1       38.4260  -17.5950   19.0930 O.2   206  ASN206     -0.2716
     79  ND2       37.0830  -16.1500   20.1540 N.am  206  ASN206     -0.0877
     80  N         32.3430  -22.5030   25.2620 N.3   230  ASN230     -0.1240
     81  CA        33.3080  -22.3220   24.2290 C.3   230  ASN230      0.1653
     82  C         34.0370  -23.6240   24.1280 C.2   230  ASN230      0.2266
     83  O         34.6660  -24.0080   25.0670 O.2   230  ASN230     -0.2867
     84  CB        34.2610  -21.1650   24.5810 C.3   230  ASN230      0.1155
     85  CG        33.6280  -19.8200   24.2880 C.2   230  ASN230      0.2627
     86  OD1       32.9640  -19.2960   25.1090 O.2   230  ASN230     -0.2716
     87  ND2       33.7810  -19.3100   23.0560 N.am  230  ASN230     -0.0877
@<TRIPOS>BOND
     1    72    73    1
     2    78    77    2
     3    73    74    1
     4    73    76    1
     5    74    75    2
     6    77    79   am
     7    77    76    1
     8    55    53   ar
     9    36    33    1
    10    87    85   am
    11    35    34    2
    12    53    54   ar
    13    53    52    1
    14    34    33    1
    15    82    81    1
    16    82    83    2
    17    33    32    1
    18    81    84    1
    19    81    80    1
    20    85    84    1
    21    85    86    2
    22    52    49    1
    23    32    23   am
    24    65    66    1
    25    37    43    2
    26    37    38    1
    27    43    42    1
    28    49    50    1
    29    49    48    1
    30    38    41    1
    31    38    39    1
    32    51    50    2
    33    50    56   am
    34    66    69    1
    35    66    67    1
    36    23    24    2
    37    23    22    1
    38    71    69    1
    39    58    59    2
    40    58    57    1
    41    48    46   am
    42    42    41    2
    43    56    57    1
    44    39    40    2
    45    39    44   am
    46    69    70    1
    47    67    68    2
    48    57    60    1
    49    22    25    1
    50    22    21    1
    51    44    45    1
    52    25    26    1
    53    46    45    1
    54    46    47    2
    55     1     2    1
    56     4     3    2
    57    28    26   ar
    58    28    30   ar
    59    26    27   ar
    60    21    12   am
    61     5     2    1
    62     5     6    1
    63    60    61    1
    64    30    31   ar
    65     3     2    1
    66    13    12    2
    67    12    11    1
    68     7     6    1
    69     7     8    1
    70    27    29   ar
    71    61    62    1
    72    31    29   ar
    73     9     8    1
    74    14    11    1
    75    14    15    1
    76    11    10    1
    77    62    63   ar
    78    62    64   ar
    79    16    15    1
    80    16    17    1
    81    17    18    2
    82    18    20    1
    83    18    19    1
