@<TRIPOS>MOLECULE
tmp/5epoC01.pdb
 182 174 0 0 0
SMALL
GASTEIGER

@<TRIPOS>ATOM
      1  N        -26.2860   44.2330   33.3510 N.3    91  GLY91      -0.1210
      2  CA       -25.8310   43.1030   34.1430 C.3    91  GLY91       0.1956
      3  C        -25.1910   43.6050   35.4150 C.2    91  GLY91       0.2612
      4  O        -24.8920   44.7900   35.5370 O.2    91  GLY91      -0.2717
      5  N        -25.0370   42.7060   36.3810 N.am   92  GLY92      -0.1942
      6  CA       -24.4010   43.0570   37.6250 C.3    92  GLY92       0.2014
      7  C        -24.6420   42.0690   38.7330 C.2    92  GLY92       0.2640
      8  O        -25.0530   40.9120   38.5100 O.2    92  GLY92      -0.2714
      9  N        -24.3820   42.5320   39.9450 N.am   93  THR93      -0.1936
     10  CA       -24.5430   41.7130   41.1240 C.3    93  THR93       0.2028
     11  C        -24.5780   42.5520   42.3780 C.2    93  THR93       0.2642
     12  O        -24.3540   43.7720   42.3260 O.2    93  THR93      -0.2714
     13  CB       -23.4300   40.6670   41.2010 C.3    93  THR93       0.1808
     14  OG1      -23.6790   39.7690   42.2870 O.3    93  THR93      -0.2208
     15  CG2      -22.0800   41.3120   41.3810 C.3    93  THR93       0.0379
     16  N        -24.8040   41.9020   43.4930 N.am   94  ASN94      -0.1957
     17  CA       -24.8500   42.5470   44.8010 C.3    94  ASN94       0.1819
     18  C        -23.6060   42.1600   45.6060 C.2    94  ASN94       0.2621
     19  O        -23.5220   41.0500   46.1340 O.2    94  ASN94      -0.2715
     20  CB       -26.1210   42.0760   45.5110 C.3    94  ASN94       0.1195
     21  CG       -26.3700   42.8120   46.8220 C.2    94  ASN94       0.2630
     22  OD1      -25.4360   43.1750   47.5320 O.2    94  ASN94      -0.2716
     23  ND2      -27.6500   43.0470   47.1440 N.am   94  ASN94      -0.0877
     24  N        -22.6220   43.0520   45.6940 N.am   95  VAL95      -0.1977
     25  CA       -21.3730   42.6510   46.3200 C.3    95  VAL95       0.1596
     26  C        -21.5380   42.3540   47.8080 C.2    95  VAL95       0.2287
     27  O        -20.7440   41.5990   48.3630 O.2    95  VAL95      -0.2864
     28  CB       -20.2180   43.6790   46.1490 C.3    95  VAL95       0.0276
     29  CG1      -19.7620   43.7420   44.6950 C.3    95  VAL95       0.0022
     30  CG2      -20.6020   45.0410   46.6650 C.3    95  VAL95       0.0022
     31  N        -32.2450   35.6270   42.6310 N.3   111  ARG111     -0.1245
     32  CA       -32.7000   36.9070   42.0840 C.3   111  ARG111      0.1563
     33  C        -31.7390   37.3750   40.9990 C.2   111  ARG111      0.2260
     34  O        -32.1750   37.7230   39.9270 O.2   111  ARG111     -0.2867
     35  CB       -32.8850   37.9620   43.1480 C.3   111  ARG111      0.0307
     36  CG       -33.5950   39.2290   42.6360 C.3   111  ARG111      0.0489
     37  CD       -33.4390   40.4660   43.5350 C.3   111  ARG111      0.2205
     38  NE       -32.0490   40.7650   43.7540 N.pl3 111  ARG111     -0.0865
     39  CZ       -31.2610   41.4720   42.9440 C.cat 111  ARG111      0.5346
     40  NH1      -31.7120   42.0610   41.8370 N.pl3 111  ARG111      0.1354
     41  NH2      -29.9980   41.6130   43.2740 N.pl3 111  ARG111      0.1354
     42  N        -18.8840   38.3730   30.8970 N.3   144  THR144     -0.1203
     43  CA       -17.7520   38.7570   31.6990 C.3   144  THR144      0.1994
     44  C        -16.7420   37.5960   31.6540 C.2   144  THR144      0.2618
     45  O        -17.1220   36.4690   31.4950 O.2   144  THR144     -0.2717
     46  CB       -18.1150   39.0300   33.2210 C.3   144  THR144      0.1784
     47  OG1      -16.9430   39.1150   34.0040 O.3   144  THR144     -0.2211
     48  CG2      -19.0310   37.9450   33.7680 C.3   144  THR144      0.0376
     49  N        -15.4820   37.9100   31.8580 N.am  145  ILE145     -0.1965
     50  CA       -14.4600   36.8940   31.9010 C.3   145  ILE145      0.1727
     51  C        -14.6860   35.9070   33.0450 C.2   145  ILE145      0.2616
     52  O        -14.2510   34.7470   32.9780 O.2   145  ILE145     -0.2715
     53  CB       -13.0280   37.4990   31.9680 C.3   145  ILE145      0.0290
     54  CG1      -11.9670   36.4670   31.6280 C.3   145  ILE145      0.0022
     55  CG2      -12.7330   38.1080   33.3200 C.3   145  ILE145      0.0023
     56  CD1      -12.0230   36.0790   30.1720 C.3   145  ILE145      0.0001
     57  N        -15.3900   36.3540   34.0660 N.am  146  GLY146     -0.1955
     58  CA       -15.7620   35.5090   35.2070 C.3   146  GLY146      0.1869
     59  C        -16.6780   34.3350   34.8690 C.2   146  GLY146      0.2309
     60  O        -16.7800   33.3950   35.6390 O.2   146  GLY146     -0.2863
     61  N        -14.1280   31.7440   34.2510 N.3   149  VAL149     -0.1245
     62  CA       -13.1010   31.6780   35.2660 C.3   149  VAL149      0.1561
     63  C        -13.7410   31.5840   36.6490 C.2   149  VAL149      0.2260
     64  O        -14.0670   32.5990   37.2680 O.2   149  VAL149     -0.2867
     65  CB       -12.1380   32.9090   35.2050 C.3   149  VAL149      0.0252
     66  CG1      -11.0340   32.8080   36.2200 C.3   149  VAL149      0.0019
     67  CG2      -11.5940   33.1060   33.8080 C.3   149  VAL149      0.0019
     68  N        -14.4480   31.4930   40.4830 N.3   151  ASP151     -0.1239
     69  CA       -13.8640   32.4050   41.4580 C.3   151  ASP151      0.1674
     70  C        -14.2230   31.9450   42.8630 C.2   151  ASP151      0.2266
     71  O        -14.8860   30.9570   43.0290 O.2   151  ASP151     -0.2867
     72  CB       -14.3510   33.8440   41.1810 C.3   151  ASP151      0.1410
     73  CG       -13.2440   34.8890   41.4180 C.2   151  ASP151      0.3668
     74  OD1      -12.6230   34.8790   42.4860 O.co2 151  ASP151     -0.2456
     75  OD2      -13.0060   35.7140   40.5450 O.co2 151  ASP151     -0.2456
     76  N        -18.6830   36.0790   44.4680 N.3   154  ARG154     -0.1245
     77  CA       -19.5960   36.4980   43.4170 C.3   154  ARG154      0.1563
     78  C        -20.0340   35.2840   42.5940 C.2   154  ARG154      0.2260
     79  O        -20.0170   35.3120   41.3580 O.2   154  ARG154     -0.2867
     80  CB       -18.9490   37.5480   42.5280 C.3   154  ARG154      0.0307
     81  CG       -18.5100   38.8170   43.2680 C.3   154  ARG154      0.0489
     82  CD       -17.5310   39.6190   42.4100 C.3   154  ARG154      0.2205
     83  NE       -16.3440   38.8600   42.0590 N.pl3 154  ARG154     -0.0865
     84  CZ       -15.2760   38.7140   42.8360 C.cat 154  ARG154      0.5346
     85  NH1      -15.2430   39.2710   44.0400 N.pl3 154  ARG154      0.1354
     86  NH2      -14.2340   37.9370   42.4370 N.pl3 154  ARG154      0.1354
     87  N        -22.9120   35.8880   40.1960 N.3   157  TYR157     -0.1227
     88  CA       -22.4210   36.6350   39.0510 C.3   157  TYR157      0.1736
     89  C        -21.7880   35.6930   38.0570 C.2   157  TYR157      0.2595
     90  O        -22.0980   35.7250   36.8630 O.2   157  TYR157     -0.2718
     91  CB       -21.4330   37.7010   39.4940 C.3   157  TYR157      0.0548
     92  CG       -21.0260   38.6630   38.4090 C.ar  157  TYR157     -0.0200
     93  CD1      -21.9350   39.5190   37.8260 C.ar  157  TYR157     -0.0009
     94  CD2      -19.6860   38.7440   38.0080 C.ar  157  TYR157     -0.0009
     95  CE1      -21.5570   40.4010   36.8430 C.ar  157  TYR157      0.0417
     96  CE2      -19.2880   39.6250   37.0220 C.ar  157  TYR157      0.0417
     97  CZ       -20.2180   40.4720   36.4560 C.ar  157  TYR157      0.1957
     98  OH       -19.8100   41.3580   35.4810 O.3   157  TYR157     -0.2866
     99  N        -20.8870   34.8730   38.5380 N.am  158  CYS158     -0.1970
    100  CA       -20.1980   33.8890   37.7120 C.3   158  CYS158      0.1712
    101  C        -21.1810   32.9260   37.0470 C.2   158  CYS158      0.2296
    102  O        -21.1920   32.7860   35.8100 O.2   158  CYS158     -0.2864
    103  CB       -19.1820   33.1130   38.5510 C.3   158  CYS158      0.0983
    104  SG       -17.7290   34.0630   39.0280 S.3   158  CYS158     -0.0798
    105  N        -15.8980   40.9840   29.0720 N.3   187  PRO187     -0.2102
    106  CA       -14.8560   41.9160   29.5200 C.3   187  PRO187      0.1504
    107  C        -14.1380   41.4490   30.7610 C.2   187  PRO187      0.2576
    108  O        -14.7310   40.7760   31.5870 O.2   187  PRO187     -0.2718
    109  CB       -15.6290   43.1960   29.8530 C.3   187  PRO187      0.0282
    110  CG       -17.0190   42.9730   29.3540 C.3   187  PRO187      0.0208
    111  CD       -17.2470   41.4830   29.3670 C.3   187  PRO187      0.0893
    112  N        -12.8480   41.7800   30.8740 N.am  188  GLY188     -0.1943
    113  CA       -12.1670   41.6640   32.1340 C.3   188  GLY188      0.2014
    114  C        -12.2850   42.9590   32.8950 C.2   188  GLY188      0.2638
    115  O        -13.3360   43.6210   32.8440 O.2   188  GLY188     -0.2714
    116  N        -11.1950   43.3570   33.5750 N.am  189  LEU189     -0.1977
    117  CA       -11.2370   44.5560   34.3960 C.3   189  LEU189      0.1596
    118  C        -11.2050   45.7840   33.5330 C.2   189  LEU189      0.2287
    119  O        -10.1860   46.0650   32.8830 O.2   189  LEU189     -0.2864
    120  CB       -10.0560   44.5770   35.3620 C.3   189  LEU189      0.0297
    121  CG        -9.9110   45.8740   36.1930 C.3   189  LEU189      0.0022
    122  CD1      -11.1300   46.0820   37.0570 C.3   189  LEU189      0.0001
    123  CD2       -8.6790   45.7390   37.0590 C.3   189  LEU189      0.0001
    124  N        -18.4290   50.9310   37.6150 N.3   194  ALA194     -0.1231
    125  CA       -18.7990   49.6940   38.2620 C.3   194  ALA194      0.1694
    126  C        -17.6040   49.0360   38.9540 C.2   194  ALA194      0.2591
    127  O        -17.6720   48.7360   40.1340 O.2   194  ALA194     -0.2718
    128  CB       -19.4370   48.7710   37.2540 C.3   194  ALA194      0.0304
    129  N        -16.5110   48.8480   38.2330 N.am  195  ALA195     -0.1980
    130  CA       -15.3100   48.2470   38.7990 C.3   195  ALA195      0.1597
    131  C        -14.6040   49.1700   39.7700 C.2   195  ALA195      0.2287
    132  O        -14.1570   48.7410   40.8330 O.2   195  ALA195     -0.2864
    133  CB       -14.3490   47.8320   37.7080 C.3   195  ALA195      0.0319
    134  N        -17.0090   49.7500   43.0250 N.3   198  ASN198     -0.1225
    135  CA       -17.4430   48.5740   43.7890 C.3   198  ASN198      0.1785
    136  C        -16.3260   47.6460   44.2420 C.2   198  ASN198      0.2597
    137  O        -16.5110   46.8730   45.1500 O.2   198  ASN198     -0.2718
    138  CB       -18.4570   47.7640   43.0120 C.3   198  ASN198      0.1169
    139  CG       -19.7690   48.4920   42.8400 C.2   198  ASN198      0.2627
    140  OD1      -20.5210   48.5960   43.8040 O.2   198  ASN198     -0.2716
    141  ND2      -20.0460   49.0070   41.6140 N.am  198  ASN198     -0.0877
    142  N        -15.1720   47.7280   43.6110 N.am  199  MET199     -0.1979
    143  CA       -14.0240   46.9050   43.9810 C.3   199  MET199      0.1605
    144  C        -12.9260   47.7780   44.5710 C.2   199  MET199      0.2287
    145  O        -12.6820   48.8870   44.1080 O.2   199  MET199     -0.2864
    146  CB       -13.4980   46.1520   42.7520 C.3   199  MET199      0.0413
    147  CG       -14.5640   45.3940   41.9770 C.3   199  MET199      0.0598
    148  SD       -15.6070   44.3460   42.9980 S.3   199  MET199     -0.1393
    149  CE       -14.4860   42.9730   43.3210 C.3   199  MET199      0.0692
    150  N         -7.9410   45.0170   45.5350 N.3   203  PHE203     -0.1241
    151  CA        -8.4350   43.9450   44.6900 C.3   203  PHE203      0.1605
    152  C         -8.0550   44.1830   43.2310 C.2   203  PHE203      0.2264
    153  O         -7.5820   43.2780   42.5520 O.2   203  PHE203     -0.2867
    154  CB        -9.9640   43.7940   44.8040 C.3   203  PHE203      0.0534
    155  CG       -10.5230   42.7670   43.8770 C.ar  203  PHE203     -0.0203
    156  CD1      -10.7870   43.0830   42.5290 C.ar  203  PHE203     -0.0042
    157  CD2      -10.7400   41.4790   44.2970 C.ar  203  PHE203     -0.0042
    158  CE1      -11.2790   42.1400   41.6690 C.ar  203  PHE203     -0.0003
    159  CE2      -11.2470   40.5190   43.4300 C.ar  203  PHE203     -0.0003
    160  CZ       -11.5170   40.8520   42.1240 C.ar  203  PHE203     -0.0000
    161  N         -5.7130   42.0700   40.8100 N.3   207  PHE207     -0.1241
    162  CA        -6.2610   41.5730   39.5540 C.3   207  PHE207      0.1605
    163  C         -5.3420   41.9510   38.4050 C.2   207  PHE207      0.2264
    164  O         -4.9480   41.0850   37.6160 O.2   207  PHE207     -0.2867
    165  CB        -7.6740   42.0780   39.3470 C.3   207  PHE207      0.0534
    166  CG        -8.4150   41.3960   38.2080 C.ar  207  PHE207     -0.0203
    167  CD1       -8.2140   41.7870   36.8860 C.ar  207  PHE207     -0.0042
    168  CD2       -9.3290   40.3770   38.4680 C.ar  207  PHE207     -0.0042
    169  CE1       -8.9020   41.1920   35.8570 C.ar  207  PHE207     -0.0003
    170  CE2      -10.0270   39.7650   37.4420 C.ar  207  PHE207     -0.0003
    171  CZ        -9.8200   40.1690   36.1340 C.ar  207  PHE207     -0.0000
    172  N         -6.2100   37.7290   30.8020 N.3   248  PHE248     -0.1241
    173  CA        -6.4620   37.2760   32.1610 C.3   248  PHE248      0.1605
    174  C         -6.9510   35.8220   32.1820 C.2   248  PHE248      0.2264
    175  O         -7.9320   35.5060   31.5160 O.2   248  PHE248     -0.2867
    176  CB        -7.5100   38.1600   32.8410 C.3   248  PHE248      0.0534
    177  CG        -7.8280   37.7210   34.2600 C.ar  248  PHE248     -0.0203
    178  CD1       -7.0200   38.0650   35.3070 C.ar  248  PHE248     -0.0042
    179  CD2       -8.9600   36.9590   34.5200 C.ar  248  PHE248     -0.0042
    180  CE1       -7.3290   37.6660   36.6050 C.ar  248  PHE248     -0.0003
    181  CE2       -9.2730   36.5630   35.8090 C.ar  248  PHE248     -0.0003
    182  CZ        -8.4790   36.9150   36.8440 C.ar  248  PHE248     -0.0000
@<TRIPOS>BOND
     1   105   111    1
     2   105   106    1
     3   110   111    1
     4   110   109    1
     5   106   109    1
     6   106   107    1
     7    56    54    1
     8   107   112   am
     9   107   108    2
    10   172   173    1
    11   112   113    1
    12    42    43    1
    13    45    44    2
    14   175   174    2
    15    54    53    1
    16    44    43    1
    17    44    49   am
    18    43    46    1
    19    49    50    1
    20    50    53    1
    21    50    51    1
    22    53    55    1
    23   113   114    1
    24   173   174    1
    25   173   176    1
    26   176   177    1
    27   115   114    2
    28   119   118    2
    29   114   116   am
    30    52    51    2
    31    51    57   am
    32    46    48    1
    33    46    47    1
    34     1     2    1
    35   118   117    1
    36   116   117    1
    37    67    65    1
    38    57    58    1
    39     2     3    1
    40    61    62    1
    41   177   179   ar
    42   177   178   ar
    43   117   120    1
    44   179   181   ar
    45    59    58    1
    46    59    60    2
    47    65    62    1
    48    65    66    1
    49    62    63    1
    50   178   180   ar
    51   120   121    1
    52     3     4    2
    53     3     5   am
    54    98    97    1
    55   181   182   ar
    56   102   101    2
    57   169   171   ar
    58   169   167   ar
    59   171   170   ar
    60   121   122    1
    61   121   123    1
    62     5     6    1
    63    97    95   ar
    64    97    96   ar
    65   180   182   ar
    66    63    64    2
    67    95    93   ar
    68    90    89    2
    69   167   166   ar
    70    96    94   ar
    71   101   100    1
    72   128   125    1
    73   170   168   ar
    74   124   125    1
    75   164   163    2
    76     6     7    1
    77   133   130    1
    78   100    99    1
    79   100   103    1
    80    93    92   ar
    81    94    92   ar
    82    89    99   am
    83    89    88    1
    84   166   168   ar
    85   166   165    1
    86   129   130    1
    87   129   126   am
    88   125   126    1
    89   163   162    1
    90    92    91    1
    91     8     7    2
    92   103   104    1
    93     7     9   am
    94   130   131    1
    95   126   127    2
    96    88    91    1
    97    88    87    1
    98   165   162    1
    99   162   161    1
   100   131   132    2
   101    34    33    2
   102     9    10    1
   103    68    69    1
   104    75    73   ar
   105    33    32    1
   106    10    13    1
   107    10    11    1
   108    72    73    1
   109    72    69    1
   110    13    15    1
   111    13    14    1
   112    79    78    2
   113    73    74   ar
   114    69    70    1
   115   141   139   am
   116   158   160   ar
   117   158   156   ar
   118    40    39    1
   119   147   146    1
   120   147   148    1
   121    83    82    1
   122    83    84    2
   123    32    31    1
   124    32    35    1
   125   160   159   ar
   126    12    11    2
   127    11    16   am
   128    82    81    1
   129    86    84    1
   130    80    81    1
   131    80    77    1
   132   156   155   ar
   133   153   152    2
   134    78    77    1
   135    36    35    1
   136    36    37    1
   137   146   143    1
   138    84    85    1
   139   139   138    1
   140   139   140    2
   141    70    71    2
   142    39    41    1
   143    39    38    2
   144   148   149    1
   145   138   135    1
   146   134   135    1
   147   152   151    1
   148    77    76    1
   149   159   157   ar
   150    16    17    1
   151    37    38    1
   152   142   143    1
   153   142   136   am
   154   135   136    1
   155   155   157   ar
   156   155   154    1
   157   143   144    1
   158   145   144    2
   159   136   137    2
   160   151   154    1
   161   151   150    1
   162    29    28    1
   163    17    20    1
   164    17    18    1
   165    20    21    1
   166    18    24   am
   167    18    19    2
   168    24    25    1
   169    28    25    1
   170    28    30    1
   171    25    26    1
   172    21    23   am
   173    21    22    2
   174    26    27    2
