@<TRIPOS>MOLECULE
tmp/5eprA00.pdb
 98 96 0 0 0
SMALL
GASTEIGER

@<TRIPOS>ATOM
      1  N         19.2150    7.7990   -5.2300 N.3    25  ILE25      -0.1231
      2  CA        18.3200    6.6480   -5.2980 C.3    25  ILE25       0.1692
      3  C         19.0950    5.3550   -5.4710 C.2    25  ILE25       0.2592
      4  O         18.5180    4.2760   -5.3060 O.2    25  ILE25      -0.2718
      5  CB        17.2550    6.7980   -6.3980 C.3    25  ILE25       0.0266
      6  CG1       17.8040    6.4280   -7.7600 C.3    25  ILE25       0.0019
      7  CG2       16.6860    8.2230   -6.4060 C.3    25  ILE25       0.0020
      8  CD1       16.7130    6.1160   -8.7390 C.3    25  ILE25       0.0001
      9  N         20.3920    5.4430   -5.7550 N.am   26  PHE26      -0.1976
     10  CA        21.2600    4.2850   -5.9070 C.3    26  PHE26       0.1639
     11  C         22.3010    4.1910   -4.8010 C.2    26  PHE26       0.2290
     12  O         23.2330    3.3750   -4.8960 O.2    26  PHE26      -0.2864
     13  CB        21.9440    4.3320   -7.2690 C.3    26  PHE26       0.0560
     14  CG        20.9930    4.4140   -8.4130 C.ar   26  PHE26      -0.0200
     15  CD1       20.1220    3.3690   -8.6880 C.ar   26  PHE26      -0.0042
     16  CD2       20.9550    5.5470   -9.2090 C.ar   26  PHE26      -0.0042
     17  CE1       19.2400    3.4400   -9.7570 C.ar   26  PHE26      -0.0003
     18  CE2       20.0650    5.6310  -10.2710 C.ar   26  PHE26      -0.0003
     19  CZ        19.2200    4.5650  -10.5510 C.ar   26  PHE26      -0.0000
     20  N         18.1700   -1.5530   -2.7660 N.3    30  VAL30      -0.1231
     21  CA        16.7190   -1.3630   -2.9080 C.3    30  VAL30       0.1678
     22  C         16.0140   -2.0330   -1.7320 C.2    30  VAL30       0.2434
     23  O         16.2570   -3.2250   -1.4660 O.2    30  VAL30      -0.2733
     24  CB        16.2200   -1.9430   -4.2470 C.3    30  VAL30       0.0265
     25  CG1       14.7310   -1.6840   -4.4130 C.3    30  VAL30       0.0020
     26  CG2       16.9980   -1.3570   -5.4250 C.3    30  VAL30       0.0020
     27  N         15.1370   -1.3310   -0.9970 N.am   31  PRO31      -0.2729
     28  CA        14.4900   -1.9470    0.1730 C.3    31  PRO31       0.1401
     29  C         13.5290   -3.0680   -0.1910 C.2    31  PRO31       0.2269
     30  O         12.4320   -2.8060   -0.6980 O.2    31  PRO31      -0.2865
     31  CB        13.7360   -0.7750    0.8220 C.3    31  PRO31       0.0296
     32  CG        14.3450    0.4580    0.2530 C.3    31  PRO31       0.0237
     33  CD        14.7810    0.0900   -1.1360 C.3    31  PRO31       0.0939
     34  N          9.7760   -2.6360    0.8720 N.3    34  GLU34      -0.1231
     35  CA         8.8310   -1.9070    0.0370 C.3    34  GLU34       0.1699
     36  C          8.6260   -2.5490   -1.3250 C.2    34  GLU34       0.2592
     37  O          7.6000   -2.2960   -1.9690 O.2    34  GLU34      -0.2718
     38  CB         9.3110   -0.4680   -0.1630 C.3    34  GLU34       0.0402
     39  CG         9.6810    0.2440    1.1200 C.3    34  GLU34       0.1161
     40  CD        10.3510    1.5760    0.8590 C.2    34  GLU34       0.3649
     41  OE1       11.0440    2.0790    1.7700 O.co2  34  GLU34      -0.2457
     42  OE2       10.1890    2.1160   -0.2580 O.co2  34  GLU34      -0.2457
     43  N          9.5760   -3.3620   -1.7740 N.am   35  VAL35      -0.1980
     44  CA         9.5370   -3.9880   -3.0910 C.3    35  VAL35       0.1595
     45  C          9.6800   -5.4960   -2.9040 C.2    35  VAL35       0.2287
     46  O         10.7150   -6.0650   -3.2780 O.2    35  VAL35      -0.2864
     47  CB        10.6450   -3.4230   -3.9950 C.3    35  VAL35       0.0276
     48  CG1       10.4350   -3.8390   -5.4210 C.3    35  VAL35       0.0022
     49  CG2       10.6950   -1.9070   -3.8950 C.3    35  VAL35       0.0022
     50  N         11.0970   -7.8200   -5.6910 N.3    38  TYR38      -0.1241
     51  CA        12.2520   -7.3160   -6.4300 C.3    38  TYR38       0.1605
     52  C         13.2160   -8.4310   -6.8200 C.2    38  TYR38       0.2264
     53  O         13.8210   -8.3850   -7.8970 O.2    38  TYR38      -0.2867
     54  CB        12.9700   -6.2560   -5.6000 C.3    38  TYR38       0.0534
     55  CG        14.0680   -5.5360   -6.3480 C.ar   38  TYR38      -0.0201
     56  CD1       13.7810   -4.4580   -7.1790 C.ar   38  TYR38      -0.0009
     57  CD2       15.3930   -5.9300   -6.2210 C.ar   38  TYR38      -0.0009
     58  CE1       14.7910   -3.7920   -7.8660 C.ar   38  TYR38       0.0417
     59  CE2       16.4070   -5.2710   -6.9030 C.ar   38  TYR38       0.0417
     60  CZ        16.0980   -4.2050   -7.7210 C.ar   38  TYR38       0.1957
     61  OH        17.1040   -3.5470   -8.3990 O.3    38  TYR38      -0.2866
     62  N         17.8920   -1.3820  -12.6710 N.3    77  CYS77      -0.1235
     63  CA        16.8490   -0.3640  -12.5800 C.3    77  CYS77       0.1677
     64  C         16.0350   -0.2850  -13.8660 C.2    77  CYS77       0.2270
     65  O         14.8050   -0.1200  -13.8260 O.2    77  CYS77      -0.2867
     66  CB        17.4900    0.9810  -12.2560 C.3    77  CYS77       0.0956
     67  SG        16.3160    2.2770  -11.8210 S.3    77  CYS77      -0.0801
     68  N         13.7270   -3.5690  -13.7900 N.3    80  TYR80      -0.1227
     69  CA        12.6150   -3.7100  -12.8500 C.3    80  TYR80       0.1736
     70  C         11.5000   -2.7050  -13.1150 C.2    80  TYR80       0.2595
     71  O         10.3200   -3.0260  -12.9240 O.2    80  TYR80      -0.2718
     72  CB        13.1030   -3.5720  -11.4050 C.3    80  TYR80       0.0548
     73  CG        11.9710   -3.8000  -10.4290 C.ar   80  TYR80      -0.0200
     74  CD1       11.5270   -5.0870  -10.1460 C.ar   80  TYR80      -0.0009
     75  CD2       11.3080   -2.7310   -9.8380 C.ar   80  TYR80      -0.0009
     76  CE1       10.4750   -5.3070   -9.2780 C.ar   80  TYR80       0.0417
     77  CE2       10.2450   -2.9420   -8.9640 C.ar   80  TYR80       0.0417
     78  CZ         9.8370   -4.2310   -8.6940 C.ar   80  TYR80       0.1957
     79  OH         8.7820   -4.4480   -7.8350 O.3    80  TYR80      -0.2866
     80  N         11.8450   -1.4930  -13.5400 N.am   81  ASN81      -0.1974
     81  CA        10.9130   -0.3690  -13.5580 C.3    81  ASN81       0.1688
     82  C         10.3790   -0.0970  -14.9570 C.2    81  ASN81       0.2292
     83  O         11.1110   -0.1990  -15.9490 O.2    81  ASN81      -0.2864
     84  CB        11.5890    0.8890  -13.0220 C.3    81  ASN81       0.1181
     85  CG        11.9740    0.7560  -11.5730 C.2    81  ASN81       0.2629
     86  OD1       11.1180    0.8040  -10.6910 O.2    81  ASN81      -0.2716
     87  ND2       13.2630    0.5780  -11.3150 N.am   81  ASN81      -0.0877
     88  N         12.2990    6.4490  -11.8970 N.3    87  PHE87      -0.1241
     89  CA        13.3970    5.5030  -11.6910 C.3    87  PHE87       0.1605
     90  C         14.0380    5.0870  -13.0120 C.2    87  PHE87       0.2264
     91  O         15.2690    5.0450  -13.1390 O.2    87  PHE87      -0.2867
     92  CB        12.8930    4.2540  -10.9570 C.3    87  PHE87       0.0534
     93  CG        12.6050    4.4630   -9.4950 C.ar   87  PHE87      -0.0203
     94  CD1       13.3660    5.3320   -8.7330 C.ar   87  PHE87      -0.0042
     95  CD2       11.5730    3.7690   -8.8790 C.ar   87  PHE87      -0.0042
     96  CE1       13.1010    5.5110   -7.3820 C.ar   87  PHE87      -0.0003
     97  CE2       11.3030    3.9420   -7.5340 C.ar   87  PHE87      -0.0003
     98  CZ        12.0680    4.8140   -6.7830 C.ar   87  PHE87      -0.0000
@<TRIPOS>BOND
     1    83    82    2
     2    82    81    1
     3    64    65    2
     4    64    63    1
     5    68    69    1
     6    81    80    1
     7    81    84    1
     8    80    70   am
     9    91    90    2
    10    70    71    2
    11    70    69    1
    12    84    85    1
    13    90    89    1
    14    69    72    1
    15    62    63    1
    16    63    66    1
    17    66    67    1
    18    88    89    1
    19    89    92    1
    20    85    87   am
    21    85    86    2
    22    72    73    1
    23    92    93    1
    24    19    18   ar
    25    19    17   ar
    26    73    74   ar
    27    73    75   ar
    28    18    16   ar
    29    74    76   ar
    30    75    77   ar
    31    17    15   ar
    32    93    95   ar
    33    93    94   ar
    34    76    78   ar
    35    16    14   ar
    36    77    78   ar
    37    95    97   ar
    38     8     6    1
    39    94    96   ar
    40    78    79    1
    41    15    14   ar
    42    14    13    1
    43    61    60    1
    44    53    52    2
    45    58    60   ar
    46    58    56   ar
    47     6     5    1
    48    60    59   ar
    49    97    98   ar
    50    96    98   ar
    51    13    10    1
    52    56    55   ar
    53    59    57   ar
    54    52    51    1
    55    51    50    1
    56    51    54    1
    57     7     5    1
    58     5     2    1
    59    55    57   ar
    60    55    54    1
    61    10     9    1
    62    10    11    1
    63     9     3   am
    64     3     4    2
    65     3     2    1
    66    26    24    1
    67    48    47    1
    68     2     1    1
    69    12    11    2
    70    25    24    1
    71    24    21    1
    72    47    49    1
    73    47    44    1
    74    46    45    2
    75    44    45    1
    76    44    43    1
    77    21    20    1
    78    21    22    1
    79    37    36    2
    80    43    36   am
    81    22    23    2
    82    22    27   am
    83    36    35    1
    84    33    27    1
    85    33    32    1
    86    27    28    1
    87    30    29    2
    88    42    40   ar
    89    29    28    1
    90    38    35    1
    91    38    39    1
    92    35    34    1
    93    28    31    1
    94    32    31    1
    95    40    39    1
    96    40    41   ar
