@<TRIPOS>MOLECULE
tmp/5epsA00.pdb
 98 96 0 0 0
SMALL
GASTEIGER

@<TRIPOS>ATOM
      1  N         18.9360    7.6160   -5.1490 N.3    26  ILE26      -0.1231
      2  CA        18.0700    6.4520   -5.2710 C.3    26  ILE26       0.1692
      3  C         18.8740    5.1590   -5.3530 C.2    26  ILE26       0.2592
      4  O         18.3190    4.0780   -5.1230 O.2    26  ILE26      -0.2718
      5  CB        16.9890    6.6040   -6.3530 C.3    26  ILE26       0.0266
      6  CG1       17.4770    6.0840   -7.6850 C.3    26  ILE26       0.0019
      7  CG2       16.5480    8.0620   -6.4840 C.3    26  ILE26       0.0020
      8  CD1       16.4030    5.3800   -8.4380 C.3    26  ILE26       0.0001
      9  N         20.1780    5.2500   -5.6160 N.am   27  PHE27      -0.1976
     10  CA        21.0470    4.0900   -5.7510 C.3    27  PHE27       0.1639
     11  C         22.0770    4.0090   -4.6370 C.2    27  PHE27       0.2290
     12  O         23.0050    3.1920   -4.7180 O.2    27  PHE27      -0.2864
     13  CB        21.7380    4.1230   -7.1150 C.3    27  PHE27       0.0560
     14  CG        20.7790    4.2350   -8.2690 C.ar   27  PHE27      -0.0200
     15  CD1       19.8910    3.2090   -8.5360 C.ar   27  PHE27      -0.0042
     16  CD2       20.7580    5.3690   -9.0700 C.ar   27  PHE27      -0.0042
     17  CE1       18.9980    3.3060   -9.5900 C.ar   27  PHE27      -0.0003
     18  CE2       19.8630    5.4740  -10.1360 C.ar   27  PHE27      -0.0003
     19  CZ        18.9930    4.4340  -10.3960 C.ar   27  PHE27      -0.0000
     20  N         17.9020   -1.5610   -2.7290 N.3    31  VAL31      -0.1231
     21  CA        16.4490   -1.3880   -2.8400 C.3    31  VAL31       0.1678
     22  C         15.7810   -2.1100   -1.6720 C.2    31  VAL31       0.2434
     23  O         16.0450   -3.3100   -1.4520 O.2    31  VAL31      -0.2733
     24  CB        15.9480   -1.9410   -4.1900 C.3    31  VAL31       0.0265
     25  CG1       14.4370   -1.8220   -4.2910 C.3    31  VAL31       0.0020
     26  CG2       16.6210   -1.2060   -5.3440 C.3    31  VAL31       0.0020
     27  N         14.9240   -1.4430   -0.8980 N.am   32  PRO32      -0.2729
     28  CA        14.3760   -2.0660    0.3180 C.3    32  PRO32       0.1401
     29  C         13.3930   -3.1900    0.0240 C.2    32  PRO32       0.2269
     30  O         12.2820   -2.9420   -0.4570 O.2    32  PRO32      -0.2865
     31  CB        13.6970   -0.8920    1.0330 C.3    32  PRO32       0.0296
     32  CG        13.3690    0.0770   -0.0600 C.3    32  PRO32       0.0237
     33  CD        14.4810   -0.0500   -1.0670 C.3    32  PRO32       0.0939
     34  N          9.8890   -2.9420    1.2950 N.3    35  GLU35      -0.1231
     35  CA         9.0610   -1.9870    0.5730 C.3    35  GLU35       0.1699
     36  C          8.7850   -2.4170   -0.8640 C.2    35  GLU35       0.2592
     37  O          7.7820   -1.9910   -1.4510 O.2    35  GLU35      -0.2718
     38  CB         9.7510   -0.6180    0.6020 C.3    35  GLU35       0.0402
     39  CG         9.0950    0.4810   -0.2060 C.3    35  GLU35       0.1161
     40  CD         9.8540    1.7880   -0.1000 C.2    35  GLU35       0.3649
     41  OE1       10.6630    1.9260    0.8420 O.co2  35  GLU35      -0.2457
     42  OE2        9.6470    2.6730   -0.9560 O.co2  35  GLU35      -0.2457
     43  N          9.6430   -3.2550   -1.4360 N.am   36  VAL36      -0.1980
     44  CA         9.4620   -3.7850   -2.7850 C.3    36  VAL36       0.1595
     45  C          9.5230   -5.3050   -2.6860 C.2    36  VAL36       0.2287
     46  O         10.5200   -5.9110   -3.1030 O.2    36  VAL36      -0.2864
     47  CB        10.5450   -3.2480   -3.7340 C.3    36  VAL36       0.0276
     48  CG1       10.1860   -3.5490   -5.1680 C.3    36  VAL36       0.0022
     49  CG2       10.7310   -1.7580   -3.5370 C.3    36  VAL36       0.0022
     50  N         10.8110   -7.5890   -5.5400 N.3    39  TYR39      -0.1241
     51  CA        11.9770   -7.1120   -6.2760 C.3    39  TYR39       0.1605
     52  C         12.8910   -8.2560   -6.7020 C.2    39  TYR39       0.2264
     53  O         13.4620   -8.2220   -7.7970 O.2    39  TYR39      -0.2867
     54  CB        12.7390   -6.0920   -5.4370 C.3    39  TYR39       0.0534
     55  CG        13.8780   -5.4310   -6.1800 C.ar   39  TYR39      -0.0201
     56  CD1       13.6350   -4.4570   -7.1390 C.ar   39  TYR39      -0.0009
     57  CD2       15.1950   -5.7820   -5.9210 C.ar   39  TYR39      -0.0009
     58  CE1       14.6810   -3.8420   -7.8220 C.ar   39  TYR39       0.0417
     59  CE2       16.2470   -5.1760   -6.5930 C.ar   39  TYR39       0.0417
     60  CZ        15.9840   -4.2110   -7.5450 C.ar   39  TYR39       0.1957
     61  OH        17.0330   -3.6020   -8.2150 O.3    39  TYR39      -0.2866
     62  N         17.7350   -1.4230  -12.5270 N.3    78  CYS78      -0.1235
     63  CA        16.7040   -0.4000  -12.4380 C.3    78  CYS78       0.1677
     64  C         15.9200   -0.3120  -13.7380 C.2    78  CYS78       0.2270
     65  O         14.6890   -0.1850  -13.7160 O.2    78  CYS78      -0.2867
     66  CB        17.3740    0.9210  -12.0980 C.3    78  CYS78       0.0956
     67  SG        16.2440    2.2350  -11.7290 S.3    78  CYS78      -0.0801
     68  N         13.5970   -3.5590  -13.6370 N.3    81  TYR81      -0.1227
     69  CA        12.4880   -3.6530  -12.6880 C.3    81  TYR81       0.1736
     70  C         11.3850   -2.6410  -12.9700 C.2    81  TYR81       0.2595
     71  O         10.2020   -2.9490  -12.7910 O.2    81  TYR81      -0.2718
     72  CB        12.9780   -3.4910  -11.2480 C.3    81  TYR81       0.0548
     73  CG        11.8320   -3.6380  -10.2740 C.ar   81  TYR81      -0.0200
     74  CD1       11.3510   -4.8980   -9.9380 C.ar   81  TYR81      -0.0009
     75  CD2       11.1970   -2.5280   -9.7410 C.ar   81  TYR81      -0.0009
     76  CE1       10.2890   -5.0490   -9.0800 C.ar   81  TYR81       0.0417
     77  CE2       10.1220   -2.6680   -8.8790 C.ar   81  TYR81       0.0417
     78  CZ         9.6730   -3.9300   -8.5550 C.ar   81  TYR81       0.1957
     79  OH         8.6050   -4.0760   -7.6990 O.3    81  TYR81      -0.2866
     80  N         11.7460   -1.4290  -13.3670 N.am   82  ASN82      -0.1974
     81  CA        10.8120   -0.3120  -13.3810 C.3    82  ASN82       0.1688
     82  C         10.2720   -0.0630  -14.7780 C.2    82  ASN82       0.2292
     83  O         10.9980   -0.1960  -15.7690 O.2    82  ASN82      -0.2864
     84  CB        11.4940    0.9490  -12.8670 C.3    82  ASN82       0.1181
     85  CG        11.9500    0.7990  -11.4470 C.2    82  ASN82       0.2629
     86  OD1       11.1540    0.9010  -10.5190 O.2    82  ASN82      -0.2716
     87  ND2       13.2300    0.5200  -11.2640 N.am   82  ASN82      -0.0877
     88  N         12.2210    6.4490  -11.7340 N.3    88  PHE88      -0.1241
     89  CA        13.3120    5.4970  -11.5190 C.3    88  PHE88       0.1605
     90  C         13.9490    5.0510  -12.8360 C.2    88  PHE88       0.2264
     91  O         15.1790    5.0150  -12.9640 O.2    88  PHE88      -0.2867
     92  CB        12.8110    4.2780  -10.7410 C.3    88  PHE88       0.0534
     93  CG        12.5450    4.5460   -9.2890 C.ar   88  PHE88      -0.0203
     94  CD1       13.1080    5.6360   -8.6540 C.ar   88  PHE88      -0.0042
     95  CD2       11.7200    3.7070   -8.5590 C.ar   88  PHE88      -0.0042
     96  CE1       12.8490    5.8900   -7.3020 C.ar   88  PHE88      -0.0003
     97  CE2       11.4630    3.9500   -7.2140 C.ar   88  PHE88      -0.0003
     98  CZ        12.0350    5.0390   -6.5870 C.ar   88  PHE88      -0.0000
@<TRIPOS>BOND
     1    83    82    2
     2    82    81    1
     3    64    65    2
     4    64    63    1
     5    68    69    1
     6    81    80    1
     7    81    84    1
     8    80    70   am
     9    70    71    2
    10    70    69    1
    11    91    90    2
    12    84    85    1
    13    90    89    1
    14    69    72    1
    15    62    63    1
    16    63    66    1
    17    66    67    1
    18    88    89    1
    19    89    92    1
    20    85    87   am
    21    85    86    2
    22    72    73    1
    23    92    93    1
    24    19    18   ar
    25    19    17   ar
    26    73    74   ar
    27    73    75   ar
    28    18    16   ar
    29    74    76   ar
    30    75    77   ar
    31    17    15   ar
    32    93    94   ar
    33    93    95   ar
    34    76    78   ar
    35    16    14   ar
    36    77    78   ar
    37    94    96   ar
    38    95    97   ar
    39    78    79    1
    40    15    14   ar
    41     8     6    1
    42    14    13    1
    43    61    60    1
    44    58    60   ar
    45    58    56   ar
    46    53    52    2
    47     6     5    1
    48    60    59   ar
    49    96    98   ar
    50    97    98   ar
    51    56    55   ar
    52    13    10    1
    53    52    51    1
    54    59    57   ar
    55     7     5    1
    56     5     2    1
    57    51    50    1
    58    51    54    1
    59    55    57   ar
    60    55    54    1
    61    10     9    1
    62    10    11    1
    63     9     3   am
    64     3     2    1
    65     3     4    2
    66    26    24    1
    67     2     1    1
    68    48    47    1
    69    12    11    2
    70    25    24    1
    71    24    21    1
    72    47    49    1
    73    47    44    1
    74    46    45    2
    75    21    20    1
    76    21    22    1
    77    44    45    1
    78    44    43    1
    79    22    23    2
    80    22    27   am
    81    37    36    2
    82    43    36   am
    83    33    27    1
    84    33    32    1
    85    42    40   ar
    86    27    28    1
    87    36    35    1
    88    30    29    2
    89    39    40    1
    90    39    38    1
    91    40    41   ar
    92    32    31    1
    93    29    28    1
    94    28    31    1
    95    35    38    1
    96    35    34    1
