@<TRIPOS>MOLECULE
tmp/5epvA00.pdb
 201 193 0 0 0
SMALL
GASTEIGER

@<TRIPOS>ATOM
      1  N         20.9780   -9.1550  -12.4830 N.3    40  GLN40      -0.1245
      2  CA        20.8180   -8.7390  -11.0940 C.3    40  GLN40       0.1566
      3  C         21.9550   -7.8770  -10.5590 C.2    40  GLN40       0.2260
      4  O         21.7570   -7.2070   -9.5500 O.2    40  GLN40      -0.2867
      5  CB        20.5960   -9.9990  -10.2390 C.3    40  GLN40       0.0367
      6  CG        19.8060   -9.7540   -8.9720 C.3    40  GLN40       0.0905
      7  CD        18.3100   -9.7790   -9.0400 C.2    40  GLN40       0.2608
      8  OE1       17.6280   -9.5800  -10.0680 O.2    40  GLN40      -0.2717
      9  NE2       17.7790   -9.8600   -7.8650 N.am   40  GLN40      -0.0878
     10  N         23.7200   -3.2820  -13.4100 N.3    43  ARG43      -0.1245
     11  CA        22.6050   -2.3730  -13.5800 C.3    43  ARG43       0.1563
     12  C         23.0370   -0.9880  -13.1170 C.2    43  ARG43       0.2260
     13  O         24.0520   -0.8940  -12.4200 O.2    43  ARG43      -0.2867
     14  CB        21.3720   -2.8830  -12.7980 C.3    43  ARG43       0.0307
     15  CG        21.6590   -3.3860  -11.3890 C.3    43  ARG43       0.0489
     16  CD        20.3950   -3.6440  -10.5970 C.3    43  ARG43       0.2205
     17  NE        19.5460   -4.6600  -11.2150 N.pl3  43  ARG43      -0.0865
     18  CZ        18.5160   -5.2500  -10.6100 C.cat  43  ARG43       0.5346
     19  NH1       18.2100   -4.9450   -9.3520 N.pl3  43  ARG43       0.1354
     20  NH2       17.7920   -6.1620  -11.2540 N.pl3  43  ARG43       0.1354
     21  N         24.4160    3.5230   -7.9050 N.3    46  TYR46      -0.1241
     22  CA        25.0520    4.5120   -7.0350 C.3    46  TYR46       0.1605
     23  C         26.5740    4.2700   -7.1230 C.2    46  TYR46       0.2264
     24  O         27.3500    5.2340   -7.2340 O.2    46  TYR46      -0.2867
     25  CB        24.5540    4.2800   -5.5760 C.3    46  TYR46       0.0534
     26  CG        24.1790    2.8310   -5.2860 C.ar   46  TYR46      -0.0201
     27  CD1       25.1110    1.9390   -4.7580 C.ar   46  TYR46      -0.0009
     28  CD2       22.9100    2.3420   -5.5940 C.ar   46  TYR46      -0.0009
     29  CE1       24.7950    0.5940   -4.5540 C.ar   46  TYR46       0.0417
     30  CE2       22.5890    0.9960   -5.4160 C.ar   46  TYR46       0.0417
     31  CZ        23.5300    0.1260   -4.8820 C.ar   46  TYR46       0.1957
     32  OH        23.2000   -1.1980   -4.6750 O.3    46  TYR46      -0.2866
     33  N         31.4220   -6.9940   -7.8540 N.3    54  LEU54      -0.1245
     34  CA        30.4130   -7.9120   -7.3620 C.3    54  LEU54       0.1561
     35  C         30.0870   -8.9300   -8.4220 C.2    54  LEU54       0.2260
     36  O         29.9270  -10.0950   -8.0920 O.2    54  LEU54      -0.2867
     37  CB        29.1590   -7.1350   -6.9650 C.3    54  LEU54       0.0270
     38  CG        28.6220   -7.2690   -5.5430 C.3    54  LEU54       0.0019
     39  CD1       29.6470   -7.1150   -4.4900 C.3    54  LEU54       0.0001
     40  CD2       27.6020   -6.2530   -5.2830 C.3    54  LEU54       0.0001
     41  N         30.6990  -12.8240   -7.7820 N.3    58  ARG58      -0.1245
     42  CA        29.5410  -13.7260   -7.8400 C.3    58  ARG58       0.1563
     43  C         29.7740  -14.8290   -8.8410 C.2    58  ARG58       0.2260
     44  O         29.4300  -16.0010   -8.5960 O.2    58  ARG58      -0.2867
     45  CB        28.2400  -12.9600   -8.0880 C.3    58  ARG58       0.0307
     46  CG        27.7430  -12.2490   -6.8530 C.3    58  ARG58       0.0489
     47  CD        26.7710  -11.1200   -7.2160 C.3    58  ARG58       0.2205
     48  NE        26.3350  -10.3390   -6.0370 N.pl3  58  ARG58      -0.0865
     49  CZ        25.4390   -9.3430   -6.0360 C.cat  58  ARG58       0.5346
     50  NH1       24.8370   -8.9740   -7.1630 N.pl3  58  ARG58       0.1354
     51  NH2       25.1160   -8.7370   -4.9050 N.pl3  58  ARG58       0.1354
     52  N         26.8110  -14.0820   -0.8300 N.3   121  GLU121     -0.1196
     53  CA        25.9580  -12.9260   -0.7930 C.3   121  GLU121      0.1783
     54  C         25.6810  -12.4860    0.6660 C.2   121  GLU121      0.2306
     55  O         25.6480  -11.2930    0.9420 O.2   121  GLU121     -0.2863
     56  CB        24.6570  -13.2520   -1.5510 C.2   121  GLU121      0.0071
     57  CG        23.7740  -12.0900   -1.9530 C.2   121  GLU121      0.0834
     58  CD        24.2820  -10.6620   -1.9000 C.2   121  GLU121      0.3877
     59  OE1       23.5800   -9.8170   -1.3010 O.co2 121  GLU121     -0.2406
     60  OE2       25.3150  -10.3670   -2.5450 O.co2 121  GLU121     -0.2406
     61  N         26.7780   -8.9340    2.2840 N.3   125  ASN125     -0.1225
     62  CA        25.8100   -8.1370    3.0770 C.3   125  ASN125      0.1785
     63  C         26.2900   -7.8640    4.4890 C.2   125  ASN125      0.2597
     64  O         26.0600   -6.7720    4.9910 O.2   125  ASN125     -0.2718
     65  CB        24.4520   -8.7970    3.1320 C.3   125  ASN125      0.1169
     66  CG        23.6660   -8.7120    1.8600 C.2   125  ASN125      0.2627
     67  OD1       23.8690   -7.8240    1.0340 O.2   125  ASN125     -0.2716
     68  ND2       22.7760   -9.6770    1.6410 N.am  125  ASN125     -0.0877
     69  N         26.9630   -8.8340    5.1310 N.am  126  ALA126     -0.1979
     70  CA        27.4940   -8.6250    6.4950 C.3   126  ALA126      0.1597
     71  C         28.6240   -7.5700    6.4590 C.2   126  ALA126      0.2287
     72  O         28.6790   -6.7030    7.3180 O.2   126  ALA126     -0.2864
     73  CB        27.9800   -9.9390    7.1080 C.3   126  ALA126      0.0319
     74  N         28.9280   -5.0260    4.2650 N.3   128  LYS128     -0.1231
     75  CA        28.3170   -3.7130    4.0260 C.3   128  LYS128      0.1693
     76  C         27.4790   -3.2210    5.1830 C.2   128  LYS128      0.2592
     77  O         27.5050   -2.0300    5.4810 O.2   128  LYS128     -0.2718
     78  CB        27.4090   -3.7300    2.7780 C.3   128  LYS128      0.0285
     79  CG        28.1040   -3.9290    1.4570 C.3   128  LYS128      0.0035
     80  CD        27.1100   -3.8410    0.2940 C.3   128  LYS128      0.0206
     81  CE        26.2550   -5.0640    0.0460 C.3   128  LYS128      0.1093
     82  NZ        25.3270   -4.8110   -1.0720 N.3   128  LYS128     -0.1314
     83  N         26.6700   -4.1070    5.7840 N.am  129  TYR129     -0.1962
     84  CA        25.7160   -3.6900    6.8110 C.3   129  TYR129      0.1771
     85  C         25.8040   -4.3310    8.1690 C.2   129  TYR129      0.2620
     86  O         25.3700   -3.7210    9.1270 O.2   129  TYR129     -0.2715
     87  CB        24.2670   -3.8450    6.2910 C.3   129  TYR129      0.0574
     88  CG        24.0570   -3.5290    4.8230 C.ar  129  TYR129     -0.0198
     89  CD1       23.8780   -2.2160    4.3880 C.ar  129  TYR129     -0.0009
     90  CD2       23.8970   -4.5500    3.8880 C.ar  129  TYR129     -0.0009
     91  CE1       23.6260   -1.9250    3.0460 C.ar  129  TYR129      0.0417
     92  CE2       23.6480   -4.2710    2.5470 C.ar  129  TYR129      0.0417
     93  CZ        23.5050   -2.9570    2.1310 C.ar  129  TYR129      0.1957
     94  OH        23.1930   -2.6940    0.8180 O.3   129  TYR129     -0.2866
     95  N         26.2270   -5.5780    8.2390 N.am  130  GLY130     -0.1954
     96  CA        26.1950   -6.3220    9.4880 C.3   130  GLY130      0.1869
     97  C         27.4940   -6.5900   10.1930 C.2   130  GLY130      0.2309
     98  O         28.3840   -5.7320   10.2560 O.2   130  GLY130     -0.2863
     99  N         24.1910  -13.3190   12.9780 N.3   160  GLU160     -0.1245
    100  CA        25.1260  -12.2270   13.1550 C.3   160  GLU160      0.1567
    101  C         24.9560  -11.6790   14.5800 C.2   160  GLU160      0.2260
    102  O         23.8290  -11.5760   15.0900 O.2   160  GLU160     -0.2867
    103  CB        24.9230  -11.1430   12.0880 C.3   160  GLU160      0.0388
    104  CG        25.3070  -11.6410   10.7000 C.3   160  GLU160      0.1160
    105  CD        25.1200  -10.6790    9.5500 C.2   160  GLU160      0.3649
    106  OE1       25.1710   -9.4490    9.7680 O.co2 160  GLU160     -0.2457
    107  OE2       24.9500  -11.1620    8.4120 O.co2 160  GLU160     -0.2457
    108  N         20.8920   -3.0980   13.6550 N.3   166  VAL166     -0.1231
    109  CA        20.1640   -3.4830   12.4600 C.3   166  VAL166      0.1692
    110  C         18.8310   -2.7280   12.3650 C.2   166  VAL166      0.2592
    111  O         17.9480   -2.8640   13.2310 O.2   166  VAL166     -0.2718
    112  CB        19.9860   -5.0250   12.3500 C.3   166  VAL166      0.0266
    113  CG1       19.1230   -5.4030   11.1590 C.3   166  VAL166      0.0020
    114  CG2       21.3310   -5.7440   12.2900 C.3   166  VAL166      0.0020
    115  N         18.6890   -1.9570   11.2690 N.am  167  MET167     -0.1965
    116  CA        17.4820   -1.2310   10.9140 C.3   167  MET167      0.1736
    117  C         16.7240   -2.1450    9.9740 C.2   167  MET167      0.2616
    118  O         17.3130   -3.0700    9.4190 O.2   167  MET167     -0.2715
    119  CB        17.8490    0.0770   10.2020 C.3   167  MET167      0.0427
    120  CG        17.8250    1.3060   11.1180 C.3   167  MET167      0.0599
    121  SD        19.0450    1.3550   12.4740 S.3   167  MET167     -0.1393
    122  CE        20.5860    1.4610   11.5440 C.3   167  MET167      0.0692
    123  N         15.4270   -1.9130    9.7990 N.am  168  GLN168     -0.1964
    124  CA        14.6160   -2.6900    8.8670 C.3   168  GLN168      0.1718
    125  C         15.0980   -2.3700    7.4210 C.2   168  GLN168      0.2458
    126  O         15.5550   -1.2450    7.1640 O.2   168  GLN168     -0.2730
    127  CB        13.1240   -2.3470    9.0500 C.3   168  GLN168      0.0407
    128  CG        12.3450   -3.3850    9.8630 C.3   168  GLN168      0.0908
    129  CD        11.5610   -4.3650    9.0100 C.2   168  GLN168      0.2608
    130  OE1       11.7320   -5.5930    9.1100 O.2   168  GLN168     -0.2717
    131  NE2       10.6390   -3.8540    8.1910 N.am  168  GLN168     -0.0878
    132  N         15.0950   -3.3580    6.4950 N.am  169  PRO169     -0.2716
    133  CA        15.5640   -3.0750    5.1330 C.3   169  PRO169      0.1536
    134  C         14.5920   -2.1940    4.3460 C.2   169  PRO169      0.2598
    135  O         13.3590   -2.3860    4.3920 O.2   169  PRO169     -0.2715
    136  CB        15.7000   -4.4610    4.5230 C.3   169  PRO169      0.0310
    137  CG        14.6890   -5.2740    5.2120 C.3   169  PRO169      0.0237
    138  CD        14.6170   -4.7500    6.6160 C.3   169  PRO169      0.0939
    139  N         15.1500   -1.1840    3.6730 N.am  170  ALA170     -0.1964
    140  CA        14.3390   -0.2850    2.8560 C.3   170  ALA170      0.1728
    141  C         14.3160   -0.8420    1.4240 C.2   170  ALA170      0.2616
    142  O         13.2280   -0.9870    0.8420 O.2   170  ALA170     -0.2715
    143  CB        14.9080    1.1230    2.8880 C.3   170  ALA170      0.0334
    144  N         15.5130   -1.2380    0.8980 N.am  171  ARG171     -0.1977
    145  CA        15.6480   -1.8320   -0.4350 C.3   171  ARG171      0.1597
    146  C         15.7120   -3.3770   -0.4010 C.2   171  ARG171      0.2287
    147  O         15.9790   -3.9650    0.6540 O.2   171  ARG171     -0.2864
    148  CB        16.8510   -1.2280   -1.1960 C.3   171  ARG171      0.0334
    149  CG        18.2030   -1.8550   -0.8460 C.3   171  ARG171      0.0492
    150  CD        19.1080   -1.9560   -2.0590 C.3   171  ARG171      0.2205
    151  NE        19.7650   -0.6820   -2.3530 N.pl3 171  ARG171     -0.0865
    152  CZ        20.9540   -0.3140   -1.8840 C.cat 171  ARG171      0.5346
    153  NH1       21.6490   -1.1290   -1.1000 N.pl3 171  ARG171      0.1354
    154  NH2       21.4580    0.8710   -2.1970 N.pl3 171  ARG171      0.1354
    155  N         17.4510   -6.4600   -2.8490 N.3   173  GLY173     -0.1210
    156  CA        18.3530   -6.7420   -3.9470 C.3   173  GLY173      0.1956
    157  C         18.5720   -8.2090   -4.2140 C.2   173  GLY173      0.2612
    158  O         17.7310   -9.0630   -3.9040 O.2   173  GLY173     -0.2717
    159  N         19.7240   -8.4900   -4.8090 N.am  174  PHE174     -0.1962
    160  CA        20.1690   -9.8170   -5.1610 C.3   174  PHE174      0.1771
    161  C         20.1700  -10.7580   -3.9530 C.2   174  PHE174      0.2620
    162  O         19.8050  -11.9090   -4.0980 O.2   174  PHE174     -0.2715
    163  CB        21.5480   -9.7480   -5.8430 C.3   174  PHE174      0.0574
    164  CG        22.1890  -11.0930   -6.1490 C.ar  174  PHE174     -0.0200
    165  CD1       21.7700  -11.8550   -7.2430 C.ar  174  PHE174     -0.0042
    166  CD2       23.2160  -11.5890   -5.3520 C.ar  174  PHE174     -0.0042
    167  CE1       22.3860  -13.0750   -7.5520 C.ar  174  PHE174     -0.0003
    168  CE2       23.8410  -12.8070   -5.6670 C.ar  174  PHE174     -0.0003
    169  CZ        23.4080  -13.5510   -6.7570 C.ar  174  PHE174     -0.0000
    170  N         20.5890  -10.2550   -2.7960 N.am  175  GLY175     -0.1940
    171  CA        20.6040  -10.9800   -1.5350 C.3   175  GLY175      0.2014
    172  C         19.2470  -11.5490   -1.2040 C.2   175  GLY175      0.2638
    173  O         19.0890  -12.7730   -1.2150 O.2   175  GLY175     -0.2714
    174  N         18.2460  -10.6690   -1.0100 N.am  176  GLN176     -0.1977
    175  CA        16.8550  -11.0680   -0.7010 C.3   176  GLN176      0.1601
    176  C         16.2640  -11.9940   -1.7540 C.2   176  GLN176      0.2287
    177  O         15.7400  -13.0490   -1.4130 O.2   176  GLN176     -0.2864
    178  CB        15.9430   -9.8480   -0.4280 C.3   176  GLN176      0.0394
    179  CG        16.3510   -8.9750    0.7930 C.3   176  GLN176      0.0908
    180  CD        16.5650   -9.7250    2.0930 C.2   176  GLN176      0.2608
    181  OE1       15.6200  -10.0580    2.8160 O.2   176  GLN176     -0.2717
    182  NE2       17.8280   -9.9650    2.4300 N.am  176  GLN176     -0.0878
    183  N         15.5110   -9.2390   10.8500 N.3   195  PHE195     -0.1241
    184  CA        16.4150   -8.1030   10.9650 C.3   195  PHE195      0.1605
    185  C         16.3910   -7.5920   12.3960 C.2   195  PHE195      0.2264
    186  O         16.0590   -6.4200   12.6250 O.2   195  PHE195     -0.2867
    187  CB        16.0090   -6.9960    9.9530 C.3   195  PHE195      0.0534
    188  CG        16.2590   -7.3740    8.5140 C.ar  195  PHE195     -0.0203
    189  CD1       17.4670   -7.0620    7.8980 C.ar  195  PHE195     -0.0042
    190  CD2       15.3010   -8.0750    7.7850 C.ar  195  PHE195     -0.0042
    191  CE1       17.7170   -7.4350    6.5650 C.ar  195  PHE195     -0.0003
    192  CE2       15.5410   -8.4300    6.4500 C.ar  195  PHE195     -0.0003
    193  CZ        16.7550   -8.1140    5.8470 C.ar  195  PHE195     -0.0000
    194  N         21.2760   -9.7110   12.1700 N.3   200  LEU200     -0.1245
    195  CA        20.4990  -10.4890   11.2250 C.3   200  LEU200      0.1561
    196  C         20.5490  -11.9640   11.6040 C.2   200  LEU200      0.2260
    197  O         21.6160  -12.5030   11.9180 O.2   200  LEU200     -0.2867
    198  CB        21.0240  -10.2610    9.8010 C.3   200  LEU200      0.0270
    199  CG        20.3460  -11.0140    8.6700 C.3   200  LEU200      0.0019
    200  CD1       18.9660  -10.4440    8.3750 C.3   200  LEU200      0.0001
    201  CD2       21.2170  -11.0060    7.4540 C.3   200  LEU200      0.0001
@<TRIPOS>BOND
     1    11    10    1
     2    11    12    1
     3    11    14    1
     4    12    13    2
     5    14    15    1
     6     1     2    1
     7    15    16    1
     8    20    18    1
     9    17    18    2
    10    17    16    1
    11     2     3    1
    12     2     5    1
    13    18    19    1
    14     3     4    2
    15     5     6    1
    16     8     7    2
    17     7     6    1
    18     7     9   am
    19    43    44    2
    20    43    42    1
    21    35    36    2
    22    35    34    1
    23    45    42    1
    24    45    46    1
    25    21    22    1
    26    33    34    1
    27    42    41    1
    28   167   165   ar
    29   167   169   ar
    30    34    37    1
    31   165   164   ar
    32    24    23    2
    33    47    46    1
    34    47    48    1
    35    50    49    1
    36    23    22    1
    37    22    25    1
    38    37    38    1
    39   169   168   ar
    40   164   163    1
    41   164   166   ar
    42    48    49    2
    43    49    51    1
    44   163   160    1
    45   168   166   ar
    46    28    30   ar
    47    28    26   ar
    48    25    26    1
    49    38    40    1
    50    38    39    1
    51    30    31   ar
    52    26    27   ar
    53   160   159    1
    54   160   161    1
    55    31    32    1
    56    31    29   ar
    57   159   157   am
    58    27    29   ar
    59   157   156    1
    60   157   158    2
    61   162   161    2
    62   161   170   am
    63   156   155    1
    64   170   171    1
    65    60    58   ar
    66   151   150    1
    67   151   152    2
    68   154   152    1
    69   150   149    1
    70    57    58    1
    71    57    56    2
    72    58    59   ar
    73   152   153    1
    74   176   177    2
    75   176   175    1
    76    56    53    1
    77   171   172    1
    78   173   172    2
    79   172   174   am
    80   148   149    1
    81   148   145    1
    82    82    81    1
    83   174   175    1
    84    52    53    1
    85    53    54    1
    86   175   178    1
    87   145   146    1
    88   145   144    1
    89   178   179    1
    90   146   147    2
    91    81    80    1
    92    80    79    1
    93    54    55    2
    94   179   180    1
    95    94    93    1
    96   142   141    2
    97   144   141   am
    98    67    66    2
    99   141   140    1
   100    79    78    1
   101    68    66   am
   102    66    65    1
   103   180   182   am
   104   180   181    2
   105    93    92   ar
   106    93    91   ar
   107    61    62    1
   108    92    90   ar
   109    78    75    1
   110   140   143    1
   111   140   139    1
   112    91    89   ar
   113    62    65    1
   114    62    63    1
   115   139   134   am
   116    90    88   ar
   117    75    74    1
   118    75    76    1
   119   134   135    2
   120   134   133    1
   121    89    88   ar
   122    63    64    2
   123    63    69   am
   124   136   133    1
   125   136   137    1
   126    88    87    1
   127    69    70    1
   128   133   132    1
   129    76    77    2
   130    76    83   am
   131   137   138    1
   132    83    84    1
   133   193   192   ar
   134   193   191   ar
   135    87    84    1
   136   192   190   ar
   137    71    70    1
   138    71    72    2
   139   132   138    1
   140   132   125   am
   141    70    73    1
   142   191   189   ar
   143    84    85    1
   144   126   125    2
   145   125   124    1
   146   201   199    1
   147   190   188   ar
   148   189   188   ar
   149    85    95   am
   150    85    86    2
   151   131   129   am
   152    95    96    1
   153   200   199    1
   154   107   105   ar
   155   188   187    1
   156   199   198    1
   157   124   127    1
   158   124   123    1
   159   129   130    2
   160   129   128    1
   161   127   128    1
   162   118   117    2
   163    96    97    1
   164   105   106   ar
   165   105   104    1
   166   123   117   am
   167   198   195    1
   168   187   184    1
   169   117   116    1
   170    97    98    2
   171   119   116    1
   172   119   120    1
   173   104   103    1
   174   183   184    1
   175   116   115    1
   176   184   185    1
   177   120   121    1
   178   113   112    1
   179   195   196    1
   180   195   194    1
   181   115   110   am
   182   122   121    1
   183   196   197    2
   184   103   100    1
   185   114   112    1
   186   112   109    1
   187   110   109    1
   188   110   111    2
   189   185   186    2
   190   109   108    1
   191    99   100    1
   192   100   101    1
   193   101   102    2
