@<TRIPOS>MOLECULE
tmp/5eq1A00.pdb
 114 113 0 0 0
SMALL
GASTEIGER

@<TRIPOS>ATOM
      1  N         15.5170  -12.7330    5.2400 N.3    25  ILE25      -0.1231
      2  CA        14.0680  -12.5910    5.1460 C.3    25  ILE25       0.1692
      3  C         13.3900  -13.9450    5.0280 C.2    25  ILE25       0.2592
      4  O         12.1750  -14.0400    5.2450 O.2    25  ILE25      -0.2718
      5  CB        13.6780  -11.6370    4.0000 C.3    25  ILE25       0.0266
      6  CG1       13.3930  -12.3790    2.7180 C.3    25  ILE25       0.0019
      7  CG2       14.7730  -10.6090    3.7400 C.3    25  ILE25       0.0020
      8  CD1       12.9790  -11.4470    1.6170 C.3    25  ILE25       0.0001
      9  N         14.1520  -15.0040    4.7480 N.am   26  PHE26      -0.1976
     10  CA        13.6140  -16.3550    4.6280 C.3    26  PHE26       0.1639
     11  C         14.0810  -17.2720    5.7530 C.2    26  PHE26       0.2290
     12  O         13.9380  -18.4910    5.6500 O.2    26  PHE26      -0.2864
     13  CB        14.0040  -16.9400    3.2740 C.3    26  PHE26       0.0560
     14  CG        13.6750  -16.0480    2.1240 C.ar   26  PHE26      -0.0200
     15  CD1       12.3580  -15.7670    1.8170 C.ar   26  PHE26      -0.0042
     16  CD2       14.6840  -15.4560    1.3740 C.ar   26  PHE26      -0.0042
     17  CE1       12.0410  -14.9430    0.7660 C.ar   26  PHE26      -0.0003
     18  CE2       14.3750  -14.6200    0.3210 C.ar   26  PHE26      -0.0003
     19  CZ        13.0410  -14.3740    0.0080 C.ar   26  PHE26      -0.0000
     20  N         12.9750  -17.6540    8.8740 N.3    28  GLU28      -0.1231
     21  CA        11.9180  -18.1470    9.7410 C.3    28  GLU28       0.1684
     22  C         10.5950  -18.0460    8.9990 C.2    28  GLU28       0.2434
     23  O         10.5000  -17.3440    7.9870 O.2    28  GLU28      -0.2733
     24  CB        11.8800  -17.3410   11.0480 C.3    28  GLU28       0.0402
     25  CG        13.1710  -17.4410   11.8430 C.3    28  GLU28       0.1161
     26  CD        13.1330  -16.6510   13.1350 C.2    28  GLU28       0.3649
     27  OE1       12.2570  -15.7720   13.2770 O.co2  28  GLU28      -0.2457
     28  OE2       13.9820  -16.9150   14.0120 O.co2  28  GLU28      -0.2457
     29  N          9.5580  -18.7460    9.4630 N.am   29  PRO29      -0.2718
     30  CA         8.2560  -18.6530    8.7910 C.3    29  PRO29       0.1535
     31  C          7.8040  -17.2070    8.6610 C.2    29  PRO29       0.2598
     32  O          8.0290  -16.3860    9.5550 O.2    29  PRO29      -0.2715
     33  CB         7.3240  -19.4490    9.7130 C.3    29  PRO29       0.0310
     34  CG         8.2180  -20.4450   10.3750 C.3    29  PRO29       0.0237
     35  CD         9.5600  -19.7670   10.5300 C.3    29  PRO29       0.0939
     36  N          7.1890  -16.8920    7.5240 N.am   30  VAL30      -0.1964
     37  CA         6.5510  -15.5910    7.3330 C.3    30  VAL30       0.1712
     38  C          5.5920  -15.3890    8.5000 C.2    30  VAL30       0.2458
     39  O          4.7380  -16.2530    8.7460 O.2    30  VAL30      -0.2730
     40  CB         5.8340  -15.5150    5.9750 C.3    30  VAL30       0.0289
     41  CG1        4.9860  -14.2660    5.8890 C.3    30  VAL30       0.0023
     42  CG2        6.8470  -15.5580    4.8250 C.3    30  VAL30       0.0023
     43  N          5.7190  -14.3010    9.2740 N.am   31  PRO31      -0.2727
     44  CA         4.8710  -14.1400   10.4680 C.3    31  PRO31       0.1402
     45  C          3.4070  -13.9040   10.1300 C.2    31  PRO31       0.2269
     46  O          3.0200  -12.7930    9.7570 O.2    31  PRO31      -0.2865
     47  CB         5.4880  -12.9270   11.1800 C.3    31  PRO31       0.0296
     48  CG         6.1910  -12.1710   10.0960 C.3    31  PRO31       0.0237
     49  CD         6.6990  -13.2090    9.1320 C.3    31  PRO31       0.0939
     50  N          1.5300  -10.8300   11.1530 N.3    34  GLU34      -0.1231
     51  CA         1.7630   -9.5710   10.4550 C.3    34  GLU34       0.1699
     52  C          1.1770   -9.5420    9.0490 C.2    34  GLU34       0.2592
     53  O          0.9600   -8.4530    8.5030 O.2    34  GLU34      -0.2718
     54  CB         3.2650   -9.2820   10.3660 C.3    34  GLU34       0.0402
     55  CG         3.9520   -9.0750   11.7020 C.3    34  GLU34       0.1161
     56  CD         5.4430   -8.8300   11.5510 C.2    34  GLU34       0.3649
     57  OE1        6.1920   -9.0960   12.5170 O.co2  34  GLU34      -0.2457
     58  OE2        5.8670   -8.3760   10.4650 O.co2  34  GLU34      -0.2457
     59  N          0.9340  -10.7010    8.4480 N.am   35  VAL35      -0.1980
     60  CA         0.3370  -10.7750    7.1170 C.3    35  VAL35       0.1595
     61  C         -0.8360  -11.7450    7.1860 C.2    35  VAL35       0.2287
     62  O         -0.7110  -12.9120    6.7820 O.2    35  VAL35      -0.2864
     63  CB         1.3730  -11.1910    6.0610 C.3    35  VAL35       0.0276
     64  CG1        1.8150   -9.9800    5.2610 C.3    35  VAL35       0.0022
     65  CG2        2.5680  -11.8170    6.7320 C.3    35  VAL35       0.0022
     66  N         -1.8840  -14.0200    4.1570 N.3    38  TYR38      -0.1241
     67  CA        -0.8310  -14.7690    3.4770 C.3    38  TYR38       0.1605
     68  C         -1.3080  -16.1530    3.0530 C.2    38  TYR38       0.2264
     69  O         -1.0170  -16.6050    1.9390 O.2    38  TYR38      -0.2867
     70  CB         0.3860  -14.8720    4.3920 C.3    38  TYR38       0.0534
     71  CG         1.6210  -15.4540    3.7360 C.ar   38  TYR38      -0.0201
     72  CD1        2.4450  -14.6600    2.9420 C.ar   38  TYR38      -0.0009
     73  CD2        1.9770  -16.7890    3.9200 C.ar   38  TYR38      -0.0009
     74  CE1        3.5880  -15.1860    2.3420 C.ar   38  TYR38       0.0417
     75  CE2        3.1250  -17.3190    3.3250 C.ar   38  TYR38       0.0417
     76  CZ         3.9220  -16.5120    2.5340 C.ar   38  TYR38       0.1957
     77  OH         5.0670  -17.0200    1.9340 O.3    38  TYR38      -0.2866
     78  N          7.3630  -16.3460   -2.2500 N.3    77  CYS77      -0.1235
     79  CA         7.6960  -14.9330   -2.1000 C.3    77  CYS77       0.1677
     80  C          7.3860  -14.1610   -3.3850 C.2    77  CYS77       0.2270
     81  O          6.8460  -13.0380   -3.3360 O.2    77  CYS77      -0.2867
     82  CB         9.1670  -14.8100   -1.7010 C.3    77  CYS77       0.0956
     83  SG         9.6780  -13.1420   -1.3420 S.3    77  CYS77      -0.0801
     84  N          3.4920  -13.8360   -3.4550 N.3    80  TYR80      -0.1227
     85  CA         2.7960  -12.9820   -2.5010 C.3    80  TYR80       0.1736
     86  C          3.0980  -11.5030   -2.7240 C.2    80  TYR80       0.2595
     87  O          2.2150  -10.6530   -2.5460 O.2    80  TYR80      -0.2718
     88  CB         3.1470  -13.3790   -1.0680 C.3    80  TYR80       0.0548
     89  CG         2.3710  -12.5530   -0.0760 C.ar   80  TYR80      -0.0200
     90  CD1        1.0090  -12.7570    0.0950 C.ar   80  TYR80      -0.0009
     91  CD2        2.9850  -11.5500    0.6630 C.ar   80  TYR80      -0.0009
     92  CE1        0.2790  -11.9960    0.9890 C.ar   80  TYR80       0.0417
     93  CE2        2.2580  -10.7800    1.5600 C.ar   80  TYR80       0.0417
     94  CZ         0.9110  -11.0150    1.7160 C.ar   80  TYR80       0.1957
     95  OH         0.1850  -10.2520    2.6020 O.3    80  TYR80      -0.2866
     96  N          4.3280  -11.1720   -3.1060 N.am   81  ASN81      -0.1974
     97  CA         4.8010   -9.7930   -3.1010 C.3    81  ASN81       0.1688
     98  C          4.7960   -9.1870   -4.4930 C.2    81  ASN81       0.2292
     99  O          5.0340   -9.8700   -5.4900 O.2    81  ASN81      -0.2864
    100  CB         6.2120   -9.7140   -2.5190 C.3    81  ASN81       0.1181
    101  CG         6.2460  -10.1620   -1.0820 C.2    81  ASN81       0.2629
    102  OD1        5.8810   -9.4020   -0.1870 O.2    81  ASN81      -0.2716
    103  ND2        6.6250  -11.4230   -0.8540 N.am   81  ASN81      -0.0877
    104  N         11.2310   -7.5560   -1.0860 N.3    87  PHE87      -0.1241
    105  CA        10.9870   -8.9820   -0.8910 C.3    87  PHE87       0.1605
    106  C         10.9970   -9.7310   -2.2210 C.2    87  PHE87       0.2264
    107  O         11.6580  -10.7660   -2.3580 O.2    87  PHE87      -0.2867
    108  CB         9.6490   -9.2060   -0.1790 C.3    87  PHE87       0.0534
    109  CG         9.6780   -8.9010    1.2920 C.ar   87  PHE87      -0.0203
    110  CD1       10.8800   -8.7340    1.9570 C.ar   87  PHE87      -0.0042
    111  CD2        8.4990   -8.7790    2.0090 C.ar   87  PHE87      -0.0042
    112  CE1       10.9060   -8.4520    3.3140 C.ar   87  PHE87      -0.0003
    113  CE2        8.5200   -8.4960    3.3700 C.ar   87  PHE87      -0.0003
    114  CZ         9.7240   -8.3370    4.0180 C.ar   87  PHE87      -0.0000
@<TRIPOS>BOND
     1    99    98    2
     2    98    97    1
     3    84    85    1
     4    80    81    2
     5    80    79    1
     6    96    97    1
     7    96    86   am
     8    97   100    1
     9    86    87    2
    10    86    85    1
    11   100   101    1
    12    85    88    1
    13   107   106    2
    14    78    79    1
    15   106   105    1
    16    79    82    1
    17    82    83    1
    18   104   105    1
    19   101   103   am
    20   101   102    2
    21    88    89    1
    22   105   108    1
    23   108   109    1
    24    89    90   ar
    25    89    91   ar
    26    19    18   ar
    27    19    17   ar
    28    90    92   ar
    29    18    16   ar
    30    91    93   ar
    31    17    15   ar
    32    92    94   ar
    33   109   110   ar
    34   109   111   ar
    35    16    14   ar
    36    93    94   ar
    37     8     6    1
    38    94    95    1
    39    15    14   ar
    40    77    76    1
    41    69    68    2
    42   110   112   ar
    43   111   113   ar
    44    14    13    1
    45    74    76   ar
    46    74    72   ar
    47    76    75   ar
    48     6     5    1
    49    72    71   ar
    50    68    67    1
    51    13    10    1
    52   112   114   ar
    53    75    73   ar
    54   113   114   ar
    55    67    66    1
    56    67    70    1
    57    71    73   ar
    58    71    70    1
    59     7     5    1
    60     5     2    1
    61    10     9    1
    62    10    11    1
    63     9     3   am
    64    42    40    1
    65     3     2    1
    66     3     4    2
    67     2     1    1
    68    64    63    1
    69    12    11    2
    70    41    40    1
    71    40    37    1
    72    63    65    1
    73    63    60    1
    74    62    61    2
    75    60    61    1
    76    60    59    1
    77    37    36    1
    78    37    38    1
    79    36    31   am
    80    23    22    2
    81    59    52   am
    82    38    39    2
    83    38    43   am
    84    53    52    2
    85    31    30    1
    86    31    32    2
    87    30    29    1
    88    30    33    1
    89    20    21    1
    90    22    29   am
    91    22    21    1
    92    52    51    1
    93    49    43    1
    94    49    48    1
    95    43    44    1
    96    29    35    1
    97    33    34    1
    98    21    24    1
    99    46    45    2
   100    48    47    1
   101    45    44    1
   102    54    51    1
   103    54    55    1
   104    34    35    1
   105    51    50    1
   106    58    56   ar
   107    44    47    1
   108    24    25    1
   109    56    55    1
   110    56    57   ar
   111    25    26    1
   112    26    27   ar
   113    26    28   ar
