@<TRIPOS>MOLECULE
tmp/5eq6A00.pdb
 184 171 0 0 0
SMALL
GASTEIGER

@<TRIPOS>ATOM
      1  N        -28.7020   -3.5130  -17.5010 N.3    21  SER21      -0.1202
      2  CA       -29.0940   -4.6200  -16.6420 C.3    21  SER21       0.2020
      3  C        -28.6400   -5.9540  -17.2260 C.2    21  SER21       0.2619
      4  O        -27.7540   -5.9960  -18.0790 O.2    21  SER21      -0.2717
      5  CB       -30.6060   -4.6220  -16.4300 C.3    21  SER21       0.2103
      6  OG       -31.2970   -4.7300  -17.6650 O.3    21  SER21      -0.2182
      7  N        -29.2530   -7.0390  -16.7670 N.am   22  SER22      -0.1937
      8  CA       -28.8250   -8.3790  -17.1540 C.3    22  SER22       0.2055
      9  C        -29.4970   -8.8710  -18.4330 C.2    22  SER22       0.2644
     10  O        -28.9730   -9.7500  -19.1180 O.2    22  SER22      -0.2714
     11  CB       -29.0970   -9.3710  -16.0200 C.3    22  SER22       0.2130
     12  OG       -30.4850   -9.6220  -15.8780 O.3    22  SER22      -0.2179
     13  N        -30.6570   -8.3060  -18.7540 N.am   23  THR23      -0.1936
     14  CA       -31.4360   -8.7800  -19.8940 C.3    23  THR23       0.2028
     15  C        -31.6690   -7.7050  -20.9540 C.2    23  THR23       0.2642
     16  O        -32.0390   -8.0160  -22.0870 O.2    23  THR23      -0.2714
     17  CB       -32.8070   -9.3330  -19.4430 C.3    23  THR23       0.1808
     18  OG1      -33.5130   -8.3330  -18.6980 O.3    23  THR23      -0.2208
     19  CG2      -32.6270  -10.5690  -18.5750 C.3    23  THR23       0.0379
     20  N        -31.4460   -6.4440  -20.5960 N.am   24  SER24      -0.1949
     21  CA       -31.6980   -5.3560  -21.5330 C.3    24  SER24       0.1924
     22  C        -30.9080   -4.0880  -21.2250 C.2    24  SER24       0.2314
     23  O        -30.3570   -3.9250  -20.1360 O.2    24  SER24      -0.2863
     24  CB       -33.1930   -5.0260  -21.5620 C.3    24  SER24       0.2116
     25  OG       -33.6280   -4.5050  -20.3170 O.3    24  SER24      -0.2180
     26  N        -31.5080    0.1180  -21.3980 N.3    26  LYS26      -0.1245
     27  CA       -32.5370    1.1420  -21.5330 C.3    26  LYS26       0.1561
     28  C        -31.9490    2.5470  -21.5510 C.2    26  LYS26       0.2260
     29  O        -31.0400    2.8640  -20.7840 O.2    26  LYS26      -0.2867
     30  CB       -33.5530    1.0230  -20.4010 C.3    26  LYS26       0.0271
     31  CG       -34.0550   -0.3860  -20.1780 C.3    26  LYS26       0.0035
     32  CD       -35.0380   -0.4330  -19.0290 C.3    26  LYS26       0.0206
     33  CE       -35.2360   -1.8550  -18.5580 C.3    26  LYS26       0.1093
     34  NZ       -33.9830   -2.4300  -17.9900 N.3    26  LYS26      -0.1314
     35  N        -24.6560   -8.7470  -11.9860 N.3    55  LYS55      -0.1245
     36  CA       -24.4790   -7.3200  -12.2130 C.3    55  LYS55       0.1561
     37  C        -23.1070   -7.0680  -12.8320 C.2    55  LYS55       0.2260
     38  O        -22.4540   -6.0640  -12.5470 O.2    55  LYS55      -0.2867
     39  CB       -24.6440   -6.5400  -10.9090 C.3    55  LYS55       0.0271
     40  CG       -26.0910   -6.3970  -10.4540 C.3    55  LYS55       0.0035
     41  CD       -26.8670   -5.4580  -11.3710 C.3    55  LYS55       0.0206
     42  CE       -28.3430   -5.3960  -11.0060 C.3    55  LYS55       0.1093
     43  NZ       -29.0700   -6.6390  -11.3780 N.3    55  LYS55      -0.1314
     44  N        -39.4470   -3.8350   -7.2560 N.3   202  ASP202     -0.1239
     45  CA       -38.9750   -3.9250   -8.6290 C.3   202  ASP202      0.1674
     46  C        -38.8890   -5.3840   -9.0660 C.2   202  ASP202      0.2266
     47  O        -37.9470   -6.0890   -8.7060 O.2   202  ASP202     -0.2867
     48  CB       -37.6100   -3.2460   -8.7680 C.3   202  ASP202      0.1410
     49  CG       -37.2620   -2.9220  -10.2070 C.2   202  ASP202      0.3668
     50  OD1      -37.8160   -3.5660  -11.1200 O.co2 202  ASP202     -0.2456
     51  OD2      -36.4280   -2.0170  -10.4280 O.co2 202  ASP202     -0.2456
     52  N        -38.0740   -7.7160  -11.8450 N.3   204  GLY204     -0.1210
     53  CA       -37.4100   -7.7940  -13.1310 C.3   204  GLY204      0.1956
     54  C        -37.6010   -9.1320  -13.8120 C.2   204  GLY204      0.2612
     55  O        -38.5870   -9.8260  -13.5760 O.2   204  GLY204     -0.2717
     56  N        -36.6460   -9.4880  -14.6640 N.am  205  ALA205     -0.1965
     57  CA       -36.6820  -10.7560  -15.3780 C.3   205  ALA205      0.1728
     58  C        -36.0340  -11.8570  -14.5480 C.2   205  ALA205      0.2617
     59  O        -36.5860  -12.9440  -14.3960 O.2   205  ALA205     -0.2715
     60  CB       -35.9850  -10.6300  -16.7220 C.3   205  ALA205      0.0334
     61  N        -34.8550  -11.5640  -14.0090 N.am  206  THR206     -0.1937
     62  CA       -34.1040  -12.5390  -13.2270 C.3   206  THR206      0.2028
     63  C        -33.8350  -12.0320  -11.8140 C.2   206  THR206      0.2642
     64  O        -33.1780  -12.7040  -11.0170 O.2   206  THR206     -0.2714
     65  CB       -32.7560  -12.8840  -13.9000 C.3   206  THR206      0.1808
     66  OG1      -31.8770  -11.7550  -13.8240 O.3   206  THR206     -0.2208
     67  CG2      -32.9650  -13.2640  -15.3590 C.3   206  THR206      0.0379
     68  N        -34.3510  -10.8470  -11.5030 N.am  207  MET207     -0.1976
     69  CA       -34.0380  -10.1970  -10.2380 C.3   207  MET207      0.1605
     70  C        -35.2280   -9.4280   -9.6770 C.2   207  MET207      0.2287
     71  O        -35.9020   -8.6960  -10.4000 O.2   207  MET207     -0.2864
     72  CB       -32.8470   -9.2510  -10.4160 C.3   207  MET207      0.0413
     73  CG       -32.3140   -8.6530   -9.1240 C.3   207  MET207      0.0598
     74  SD       -31.4880   -9.8810   -8.0970 S.3   207  MET207     -0.1393
     75  CE       -30.3670  -10.6060   -9.2900 C.3   207  MET207      0.0692
     76  N        -39.4630  -12.2160  -13.8120 N.3   228  GLY228     -0.1210
     77  CA       -40.4430  -12.4040  -14.8650 C.3   228  GLY228      0.1956
     78  C        -40.0320  -13.4320  -15.9000 C.2   228  GLY228      0.2611
     79  O        -40.8580  -13.8700  -16.7030 O.2   228  GLY228     -0.2717
     80  N        -38.7590  -13.8170  -15.8880 N.am  229  ARG229     -0.1979
     81  CA       -38.2790  -14.8580  -16.7890 C.3   229  ARG229      0.1597
     82  C        -38.9330  -16.1900  -16.4390 C.2   229  ARG229      0.2287
     83  O        -39.1750  -17.0190  -17.3150 O.2   229  ARG229     -0.2864
     84  CB       -36.7520  -14.9710  -16.7330 C.3   229  ARG229      0.0334
     85  CG       -36.1770  -16.1240  -17.5450 C.3   229  ARG229      0.0492
     86  CD       -34.6810  -15.9610  -17.7630 C.3   229  ARG229      0.2205
     87  NE       -34.3870  -15.0550  -18.8710 N.pl3 229  ARG229     -0.0865
     88  CZ       -33.1730  -14.5990  -19.1620 C.cat 229  ARG229      0.5346
     89  NH1      -32.1350  -14.9560  -18.4190 N.pl3 229  ARG229      0.1354
     90  NH2      -32.9970  -13.7810  -20.1900 N.pl3 229  ARG229      0.1354
     91  N        -41.9180  -16.6030  -15.7320 N.3   231  LEU231     -0.1231
     92  CA       -43.1400  -16.6180  -16.5220 C.3   231  LEU231      0.1693
     93  C        -42.8270  -16.9290  -17.9820 C.2   231  LEU231      0.2592
     94  O        -43.5130  -17.7310  -18.6120 O.2   231  LEU231     -0.2718
     95  CB       -43.8790  -15.2810  -16.4110 C.3   231  LEU231      0.0284
     96  CG       -45.2190  -15.2030  -17.1510 C.3   231  LEU231      0.0019
     97  CD1      -46.1060  -16.3860  -16.7840 C.3   231  LEU231      0.0001
     98  CD2      -45.9300  -13.8900  -16.8560 C.3   231  LEU231      0.0001
     99  N        -41.7830  -16.2970  -18.5110 N.am  232  THR232     -0.1953
    100  CA       -41.4000  -16.4840  -19.9080 C.3   232  THR232      0.1897
    101  C        -40.9260  -17.9080  -20.1760 C.2   232  THR232      0.2313
    102  O        -41.1890  -18.4640  -21.2410 O.2   232  THR232     -0.2863
    103  CB       -40.2830  -15.5110  -20.3350 C.3   232  THR232      0.1794
    104  OG1      -39.0460  -15.9010  -19.7250 O.3   232  THR232     -0.2208
    105  CG2      -40.6260  -14.0850  -19.9360 C.3   232  THR232      0.0378
    106  N        -41.7850  -13.7670  -24.9300 N.3   247  GLY247     -0.1225
    107  CA       -41.7910  -12.4140  -24.4060 C.3   247  GLY247      0.1811
    108  C        -42.8060  -11.5170  -25.0880 C.2   247  GLY247      0.2280
    109  O        -43.4510  -10.6910  -24.4420 O.2   247  GLY247     -0.2866
    110  N        -46.2160  -12.3910  -24.0790 N.3   250  LYS250     -0.1231
    111  CA       -46.3810  -12.0030  -22.6860 C.3   250  LYS250      0.1693
    112  C        -47.0950  -10.6580  -22.5860 C.2   250  LYS250      0.2591
    113  O        -47.9090  -10.4380  -21.6900 O.2   250  LYS250     -0.2718
    114  CB       -45.0170  -11.9420  -21.9980 C.3   250  LYS250      0.0285
    115  CG       -45.0430  -11.8760  -20.4820 C.3   250  LYS250      0.0035
    116  CD       -43.6180  -11.9390  -19.9490 C.3   250  LYS250      0.0206
    117  CE       -43.5550  -11.7940  -18.4400 C.3   250  LYS250      0.1093
    118  NZ       -42.1500  -11.7700  -17.9410 N.3   250  LYS250     -0.1314
    119  N        -46.7870   -9.7640  -23.5220 N.am  251  LYS251     -0.1980
    120  CA       -47.3810   -8.4320  -23.5430 C.3   251  LYS251      0.1596
    121  C        -48.5670   -8.3470  -24.5030 C.2   251  LYS251      0.2287
    122  O        -49.6450   -7.8850  -24.1290 O.2   251  LYS251     -0.2864
    123  CB       -46.3290   -7.3870  -23.9230 C.3   251  LYS251      0.0298
    124  CG       -45.0950   -7.2400  -23.0390 C.3   251  LYS251      0.0038
    125  CD       -45.6020   -6.7660  -21.7260 C.3   251  LYS251      0.0206
    126  CE       -44.3030   -6.8690  -20.8880 C.3   251  LYS251      0.1093
    127  NZ       -44.6960   -7.2390  -19.5190 N.3   251  LYS251     -0.1314
    128  N        -40.5450   -2.4210  -12.4770 N.3   298  GLY298     -0.1210
    129  CA       -40.0920   -3.4660  -13.3750 C.3   298  GLY298      0.1956
    130  C        -41.1820   -3.7780  -14.3800 C.2   298  GLY298      0.2612
    131  O        -42.3580   -3.5230  -14.1270 O.2   298  GLY298     -0.2717
    132  N        -40.7940   -4.3270  -15.5250 N.am  299  GLY299     -0.1942
    133  CA       -41.7420   -4.6290  -16.5830 C.3   299  GLY299      0.2014
    134  C        -42.7970   -5.6440  -16.1810 C.2   299  GLY299      0.2639
    135  O        -43.8950   -5.6580  -16.7370 O.2   299  GLY299     -0.2714
    136  N        -42.4640   -6.4990  -15.2180 N.am  300  THR300     -0.1950
    137  CA       -43.3950   -7.5160  -14.7330 C.3   300  THR300      0.1897
    138  C        -44.5670   -6.8640  -13.9950 C.2   300  THR300      0.2313
    139  O        -45.6260   -7.4670  -13.8280 O.2   300  THR300     -0.2863
    140  CB       -42.6860   -8.5300  -13.8050 C.3   300  THR300      0.1794
    141  OG1      -41.4810   -8.9900  -14.4290 O.3   300  THR300     -0.2208
    142  CG2      -43.5800   -9.7310  -13.5040 C.3   300  THR300      0.0378
    143  N        -46.2800   -4.6950  -15.1930 N.3   302  SER302     -0.1202
    144  CA       -47.2380   -4.3540  -16.2390 C.3   302  SER302      0.2020
    145  C        -48.2880   -5.4470  -16.4160 C.2   302  SER302      0.2619
    146  O        -49.1710   -5.3340  -17.2660 O.2   302  SER302     -0.2717
    147  CB       -46.5200   -4.1040  -17.5670 C.3   302  SER302      0.2103
    148  OG       -45.5790   -3.0510  -17.4550 O.3   302  SER302     -0.2182
    149  N        -48.1810   -6.5090  -15.6200 N.am  303  ILE303     -0.1965
    150  CA       -49.1620   -7.5900  -15.6550 C.3   303  ILE303      0.1727
    151  C        -50.5430   -7.0610  -15.2770 C.2   303  ILE303      0.2616
    152  O        -50.7090   -6.4170  -14.2410 O.2   303  ILE303     -0.2715
    153  CB       -48.7750   -8.7480  -14.7120 C.3   303  ILE303      0.0290
    154  CG1      -47.5460   -9.4820  -15.2480 C.3   303  ILE303      0.0022
    155  CG2      -49.9290   -9.7280  -14.5660 C.3   303  ILE303      0.0023
    156  CD1      -47.1020  -10.6460  -14.3890 C.3   303  ILE303      0.0001
    157  N        -51.5230   -7.3250  -16.1360 N.am  304  GLN304     -0.1977
    158  CA       -52.8770   -6.8010  -15.9670 C.3   304  GLN304      0.1601
    159  C        -53.5240   -7.2190  -14.6470 C.2   304  GLN304      0.2287
    160  O        -53.5700   -8.4020  -14.3110 O.2   304  GLN304     -0.2864
    161  CB       -53.7620   -7.2480  -17.1330 C.3   304  GLN304      0.0394
    162  CG       -53.2300   -6.9140  -18.5100 C.3   304  GLN304      0.0908
    163  CD       -52.9060   -5.4460  -18.7000 C.2   304  GLN304      0.2608
    164  OE1      -53.7650   -4.5850  -18.4590 O.2   304  GLN304     -0.2717
    165  NE2      -51.6870   -5.1610  -19.1080 N.am  304  GLN304     -0.0878
    166  N        -46.3840    1.3230  -21.8330 N.3   340  SER340     -0.1202
    167  CA       -46.2020   -0.1040  -21.5900 C.3   340  SER340      0.2020
    168  C        -44.8190   -0.4100  -21.0230 C.2   340  SER340      0.2618
    169  O        -44.5980   -1.4720  -20.4450 O.2   340  SER340     -0.2717
    170  CB       -46.4240   -0.8960  -22.8800 C.3   340  SER340      0.2103
    171  OG       -45.4270   -0.5950  -23.8410 O.3   340  SER340     -0.2182
    172  N        -43.8900    0.5240  -21.1950 N.am  341  ASP341     -0.1973
    173  CA       -42.5340    0.3580  -20.6810 C.3   341  ASP341      0.1709
    174  C        -42.2650    1.2910  -19.5090 C.2   341  ASP341      0.2293
    175  O        -41.1530    1.3350  -18.9860 O.2   341  ASP341     -0.2864
    176  CB       -41.5020    0.6010  -21.7860 C.3   341  ASP341      0.1436
    177  CG       -41.4280   -0.5420  -22.7800 C.2   341  ASP341      0.3671
    178  OD1      -41.6890   -1.6980  -22.3860 O.co2 341  ASP341     -0.2456
    179  OD2      -41.1050   -0.2850  -23.9580 O.co2 341  ASP341     -0.2456
    180  N        -40.7630    0.0060  -16.0950 N.3   344  ALA344     -0.1245
    181  CA       -39.4370   -0.5910  -16.2320 C.3   344  ALA344      0.1562
    182  C        -38.3420    0.4680  -16.3290 C.2   344  ALA344      0.2260
    183  O        -37.1550    0.1440  -16.3640 O.2   344  ALA344     -0.2867
    184  CB       -39.3930   -1.5000  -17.4510 C.3   344  ALA344      0.0290
@<TRIPOS>BOND
     1   108   109    2
     2   108   107    1
     3   106   107    1
     4   121   122    2
     5   121   120    1
     6   110   111    1
     7   179   177   ar
     8   123   120    1
     9   123   124    1
    10   171   170    1
    11   120   119    1
    12   119   112   am
    13   124   125    1
    14   170   167    1
    15   177   178   ar
    16   177   176    1
    17   111   112    1
    18   111   114    1
    19   112   113    2
    20    16    15    2
    21   114   115    1
    22   166   167    1
    23   176   173    1
    24   125   126    1
    25   167   168    1
    26    24    21    1
    27    24    25    1
    28    28    27    1
    29    28    29    2
    30    27    26    1
    31    27    30    1
    32    21    22    1
    33    21    20    1
    34   102   101    2
    35    22    23    2
    36   172   168   am
    37   172   173    1
    38   168   169    2
    39    15    20   am
    40    15    14    1
    41   126   127    1
    42   173   174    1
    43   115   116    1
    44    30    31    1
    45   103   105    1
    46   103   100    1
    47   103   104    1
    48    90    88    1
    49    31    32    1
    50   101   100    1
    51   116   117    1
    52   100    99    1
    53    14    17    1
    54    14    13    1
    55   174   175    2
    56    17    18    1
    57    17    19    1
    58    88    87    2
    59    88    89    1
    60    10     9    2
    61   165   163   am
    62    32    33    1
    63    87    86    1
    64    13     9   am
    65   163   162    1
    66   163   164    2
    67    94    93    2
    68    33    34    1
    69    99    93   am
    70   162   161    1
    71   117   118    1
    72     9     8    1
    73     4     3    2
    74    93    92    1
    75    86    85    1
    76     6     5    1
    77   147   148    1
    78   147   144    1
    79    85    84    1
    80     1     2    1
    81   184   181    1
    82    83    82    2
    83   146   145    2
    84     3     7   am
    85     3     2    1
    86     8     7    1
    87     8    11    1
    88    96    98    1
    89    96    97    1
    90    96    95    1
    91   161   158    1
    92    81    84    1
    93    81    82    1
    94    81    80    1
    95   135   134    2
    96    60    57    1
    97    79    78    2
    98     2     5    1
    99   133   134    1
   100   133   132    1
   101    92    95    1
   102    92    91    1
   103   145   144    1
   104   145   149   am
   105   183   182    2
   106   182   181    1
   107   144   143    1
   108   181   180    1
   109   134   136   am
   110   157   158    1
   111   157   151   am
   112    11    12    1
   113   158   159    1
   114    78    80   am
   115    78    77    1
   116   150   149    1
   117   150   151    1
   118   150   153    1
   119   132   130   am
   120    57    56    1
   121    57    58    1
   122    67    65    1
   123   151   152    2
   124   154   153    1
   125   154   156    1
   126   136   137    1
   127    77    76    1
   128   137   138    1
   129   137   140    1
   130   153   155    1
   131    56    54   am
   132   159   160    2
   133    58    59    2
   134    58    61   am
   135   141   140    1
   136   130   131    2
   137   130   129    1
   138    61    62    1
   139   138   139    2
   140    65    66    1
   141    65    62    1
   142    54    55    2
   143    54    53    1
   144   140   142    1
   145   129   128    1
   146    62    63    1
   147    53    52    1
   148    37    38    2
   149    37    36    1
   150    36    35    1
   151    36    39    1
   152    63    68   am
   153    63    64    2
   154    68    69    1
   155    43    42    1
   156    41    42    1
   157    41    40    1
   158    50    49   ar
   159    39    40    1
   160    51    49   ar
   161    72    69    1
   162    72    73    1
   163    71    70    2
   164    69    70    1
   165    49    48    1
   166    75    74    1
   167    73    74    1
   168    46    47    2
   169    46    45    1
   170    48    45    1
   171    45    44    1
