@<TRIPOS>MOLECULE
tmp/5eq8A00.pdb
 99 93 0 0 0
SMALL
GASTEIGER

@<TRIPOS>ATOM
      1  N         10.1270   24.2010    9.2280 N.3    82  ASP82      -0.1225
      2  CA        11.5100   24.6220    9.3000 C.3    82  ASP82       0.1805
      3  C         12.1260   24.2520    7.9610 C.2    82  ASP82       0.2598
      4  O         12.2020   23.1100    7.5790 O.2    82  ASP82      -0.2718
      5  CB        12.2390   23.9330   10.4440 C.3    82  ASP82       0.1424
      6  CG        13.7060   24.3220   10.4610 C.2    82  ASP82       0.3668
      7  OD1       14.0090   25.5240   10.4330 O.co2  82  ASP82      -0.2456
      8  OD2       14.5850   23.3990   10.4780 O.co2  82  ASP82      -0.2456
      9  N         12.5850   25.2430    7.2450 N.am   83  GLY83      -0.1942
     10  CA        13.0360   25.0820    5.8720 C.3    83  GLY83       0.2014
     11  C         12.0210   25.5830    4.8800 C.2    83  GLY83       0.2639
     12  O         11.6780   24.8920    3.9360 O.2    83  GLY83      -0.2714
     13  N         11.5720   26.8190    5.0510 N.am   84  THR84      -0.1950
     14  CA        10.5780   27.3450    4.1220 C.3    84  THR84       0.1897
     15  C         11.1210   27.5470    2.7090 C.2    84  THR84       0.2313
     16  O         10.3630   27.4050    1.7630 O.2    84  THR84      -0.2863
     17  CB         9.9830   28.6600    4.6210 C.3    84  THR84       0.1794
     18  OG1       11.0390   29.6200    4.7890 O.3    84  THR84      -0.2208
     19  CG2        9.2550   28.4640    5.8950 C.3    84  THR84       0.0378
     20  N         25.6240   22.3900    6.8450 N.3   149  THR149     -0.1203
     21  CA        25.0060   23.6430    7.2990 C.3   149  THR149      0.1994
     22  C         23.9880   24.0270    6.2310 C.2   149  THR149      0.2619
     23  O         24.0880   23.6300    5.0760 O.2   149  THR149     -0.2717
     24  CB        26.0370   24.7640    7.5360 C.3   149  THR149      0.1784
     25  OG1       25.4710   25.8180    8.3080 O.3   149  THR149     -0.2211
     26  CG2       26.5970   25.3130    6.2790 C.3   149  THR149      0.0376
     27  N         22.9790   24.8200    6.5760 N.am  150  THR150     -0.1938
     28  CA        21.9350   25.1620    5.6250 C.3   150  THR150      0.2028
     29  C         22.4670   25.9280    4.4300 C.2   150  THR150      0.2642
     30  O         22.1700   25.4920    3.2580 O.2   150  THR150     -0.2714
     31  CB        20.7380   25.8690    6.2620 C.3   150  THR150      0.1808
     32  OG1       20.0520   24.9550    7.1330 O.3   150  THR150     -0.2208
     33  CG2       19.7470   26.3540    5.2290 C.3   150  THR150      0.0379
     34  N         23.2140   27.0070    4.6740 N.am  151  SER151     -0.1949
     35  CA        23.6550   27.8520    3.5850 C.3   151  SER151      0.1924
     36  C         24.9450   28.5360    3.9470 C.2   151  SER151      0.2314
     37  O         25.0990   28.9970    5.0960 O.2   151  SER151     -0.2863
     38  CB        22.5740   28.9210    3.2990 C.3   151  SER151      0.2116
     39  OG        23.0550   29.9120    2.4220 O.3   151  SER151     -0.2180
     40  N         24.2980   32.2600    5.5430 N.3   154  LEU154     -0.1245
     41  CA        23.6200   32.4440    6.8220 C.3   154  LEU154      0.1561
     42  C         24.6070   32.5610    8.0010 C.2   154  LEU154      0.2260
     43  O         24.3640   32.0790    9.0950 O.2   154  LEU154     -0.2867
     44  CB        22.5920   31.3550    7.0180 C.3   154  LEU154      0.0270
     45  CG        21.3880   31.3860    6.0790 C.3   154  LEU154      0.0019
     46  CD1       20.5420   30.1660    6.3290 C.3   154  LEU154      0.0001
     47  CD2       20.5890   32.6750    6.2230 C.3   154  LEU154      0.0001
     48  N         18.4930   22.3940    6.5420 N.3   178  ASP178     -0.1239
     49  CA        17.7550   22.8100    7.7340 C.3   178  ASP178      0.1674
     50  C         17.8090   21.6780    8.7760 C.2   178  ASP178      0.2266
     51  O         18.8640   21.0440    9.0010 O.2   178  ASP178     -0.2867
     52  CB        16.3120   23.2400    7.3630 C.3   178  ASP178      0.1410
     53  CG        16.3350   24.3830    6.3820 C.2   178  ASP178      0.3668
     54  OD1       16.4620   25.5590    6.8220 O.co2 178  ASP178     -0.2456
     55  OD2       16.2360   24.0950    5.1740 O.co2 178  ASP178     -0.2456
     56  N         25.6270   25.8090   12.6740 N.3   195  GLU195     -0.1231
     57  CA        24.7780   26.8610   12.1430 C.3   195  GLU195      0.1699
     58  C         24.7630   28.0920   13.0710 C.2   195  GLU195      0.2593
     59  O         25.0220   27.9660   14.2710 O.2   195  GLU195     -0.2718
     60  CB        23.3430   26.3660   11.9300 C.3   195  GLU195      0.0402
     61  CG        23.3170   25.2580   10.8800 C.3   195  GLU195      0.1161
     62  CD        21.9010   24.8820   10.3930 C.2   195  GLU195      0.3649
     63  OE1       21.0180   24.6730   11.2680 O.co2 195  GLU195     -0.2457
     64  OE2       21.7130   24.8270    9.1790 O.co2 195  GLU195     -0.2457
     65  N         24.4450   29.2240   12.4500 N.am  196  SER196     -0.1938
     66  CA        24.3350   30.4870   13.1670 C.3   196  SER196      0.2055
     67  C         23.0000   31.1270   12.8680 C.2   196  SER196      0.2644
     68  O         22.6610   31.2600   11.7190 O.2   196  SER196     -0.2714
     69  CB        25.4880   31.4040   12.7610 C.3   196  SER196      0.2130
     70  OG        25.3920   32.6660   13.3970 O.3   196  SER196     -0.2179
     71  N         22.3160   31.5870   13.8800 N.am  197  GLY197     -0.1939
     72  CA        21.0650   32.3560   13.6760 C.3   197  GLY197      0.2014
     73  C         19.8140   31.5160   13.6790 C.2   197  GLY197      0.2639
     74  O         18.8380   31.8160   12.9670 O.2   197  GLY197     -0.2714
     75  N         19.7660   30.4710   14.5310 N.am  198  LEU198     -0.1963
     76  CA        18.5430   29.6700   14.6940 C.3   198  LEU198      0.1728
     77  C         17.6950   30.1850   15.8270 C.2   198  LEU198      0.2616
     78  O         18.1440   30.3650   16.9220 O.2   198  LEU198     -0.2715
     79  CB        18.8820   28.2050   14.9910 C.3   198  LEU198      0.0311
     80  CG        19.4090   27.3270   13.9090 C.3   198  LEU198      0.0022
     81  CD1       19.4660   25.8510   14.3780 C.3   198  LEU198      0.0001
     82  CD2       18.5860   27.3200   12.6990 C.3   198  LEU198      0.0001
     83  N         16.4050   30.3260   15.5420 N.am  199  LYS199     -0.1977
     84  CA        15.4410   30.6980   16.5240 C.3   199  LYS199      0.1596
     85  C         15.1410   29.4470   17.4060 C.2   199  LYS199      0.2287
     86  O         15.2920   28.2880   16.9700 O.2   199  LYS199     -0.2864
     87  CB        14.1220   31.0990   15.8190 C.3   199  LYS199      0.0298
     88  CG        14.2410   32.2240   14.8350 C.3   199  LYS199      0.0038
     89  CD        14.0440   33.4380   15.6280 C.3   199  LYS199      0.0206
     90  CE        13.9120   34.6180   14.6780 C.3   199  LYS199      0.1093
     91  NZ        13.5850   35.8270   15.4900 N.3   199  LYS199     -0.1314
     92  N         13.3290   26.4540   16.1080 N.3   202  ASP202     -0.1239
     93  CA        14.0940   25.6500   15.1490 C.3   202  ASP202      0.1674
     94  C         15.2580   24.8560   15.7440 C.2   202  ASP202      0.2266
     95  O         15.9310   24.1640   14.9920 O.2   202  ASP202     -0.2867
     96  CB        14.5530   26.5060   13.9840 C.3   202  ASP202      0.1410
     97  CG        13.3380   26.9920   13.1790 C.2   202  ASP202      0.3668
     98  OD1       12.3150   26.1940   13.1670 O.co2 202  ASP202     -0.2456
     99  OD2       13.3610   28.0930   12.6500 O.co2 202  ASP202     -0.2456
@<TRIPOS>BOND
     1    16    15    2
     2    39    38    1
     3    15    14    1
     4    30    29    2
     5    38    35    1
     6    35    36    1
     7    35    34    1
     8    12    11    2
     9    36    37    2
    10    14    17    1
    11    14    13    1
    12    29    34   am
    13    29    28    1
    14    17    18    1
    15    17    19    1
    16    11    13   am
    17    11    10    1
    18    23    22    2
    19    55    53   ar
    20    33    31    1
    21    40    41    1
    22    28    31    1
    23    28    27    1
    24    10     9    1
    25    45    47    1
    26    45    46    1
    27    45    44    1
    28    22    27   am
    29    22    21    1
    30    31    32    1
    31    26    24    1
    32    53    54   ar
    33    53    52    1
    34    48    49    1
    35    41    44    1
    36    41    42    1
    37    20    21    1
    38     9     3   am
    39    21    24    1
    40    52    49    1
    41    24    25    1
    42     4     3    2
    43    49    50    1
    44     3     2    1
    45    42    43    2
    46    50    51    2
    47    64    62   ar
    48     1     2    1
    49     2     5    1
    50    62    61    1
    51    62    63   ar
    52     7     6   ar
    53     5     6    1
    54     6     8   ar
    55    61    60    1
    56    68    67    2
    57    60    57    1
    58    57    56    1
    59    57    58    1
    60    65    58   am
    61    65    66    1
    62    99    97   ar
    63    82    80    1
    64    69    66    1
    65    69    70    1
    66    67    66    1
    67    67    71   am
    68    74    73    2
    69    58    59    2
    70    98    97   ar
    71    97    96    1
    72    72    73    1
    73    72    71    1
    74    73    75   am
    75    80    81    1
    76    80    79    1
    77    96    93    1
    78    75    76    1
    79    90    91    1
    80    90    89    1
    81    76    79    1
    82    76    77    1
    83    88    89    1
    84    88    87    1
    85    95    94    2
    86    93    94    1
    87    93    92    1
    88    83    77   am
    89    83    84    1
    90    87    84    1
    91    77    78    2
    92    84    85    1
    93    86    85    2
