@<TRIPOS>MOLECULE
tmp/5eq9B00.pdb
 109 102 0 0 0
SMALL
GASTEIGER

@<TRIPOS>ATOM
      1  N        -16.2160   57.6220    3.2020 N.3    80  ASP80      -0.1239
      2  CA       -14.9020   57.3430    3.8360 C.3    80  ASP80       0.1674
      3  C        -13.8280   57.9200    2.9320 C.2    80  ASP80       0.2266
      4  O        -13.5360   57.3320    1.8980 O.2    80  ASP80      -0.2867
      5  CB       -14.6280   55.8530    4.0990 C.3    80  ASP80       0.1410
      6  CG       -13.3040   55.6830    4.9740 C.2    80  ASP80       0.3668
      7  OD1      -12.6650   56.7100    5.2380 O.co2  80  ASP80      -0.2456
      8  OD2      -12.9640   54.6370    5.3380 O.co2  80  ASP80      -0.2456
      9  N        -10.5780   58.1490    3.1130 N.3    82  ILE82      -0.1231
     10  CA        -9.3860   57.3350    2.9650 C.3    82  ILE82       0.1692
     11  C         -9.6270   55.9790    3.6310 C.2    82  ILE82       0.2592
     12  O         -9.4570   55.8000    4.8530 O.2    82  ILE82      -0.2718
     13  CB        -8.1240   58.0160    3.5090 C.3    82  ILE82       0.0266
     14  CG1       -7.9120   59.4030    2.8960 C.3    82  ILE82       0.0019
     15  CG2       -6.9160   57.1060    3.2910 C.3    82  ILE82       0.0020
     16  CD1       -6.7620   60.1970    3.4560 C.3    82  ILE82       0.0001
     17  N        -10.0870   54.9970    2.8310 N.am   83  ASP83      -0.1960
     18  CA       -10.1850   53.6140    3.2320 C.3    83  ASP83       0.1840
     19  C         -8.8450   52.9460    2.8940 C.2    83  ASP83       0.2623
     20  O         -8.4810   52.8880    1.7150 O.2    83  ASP83      -0.2715
     21  CB       -11.3170   52.9150    2.5560 C.3    83  ASP83       0.1450
     22  CG       -11.4400   51.4600    3.0050 C.2    83  ASP83       0.3671
     23  OD1      -11.6390   51.2280    4.2360 O.co2  83  ASP83      -0.2456
     24  OD2      -11.2970   50.5520    2.1590 O.co2  83  ASP83      -0.2456
     25  N         -8.1420   52.4740    3.8990 N.am   84  GLY84      -0.1940
     26  CA        -6.7640   52.0090    3.6990 C.3    84  GLY84       0.2014
     27  C         -5.7700   53.0650    4.2510 C.2    84  GLY84       0.2640
     28  O         -4.8200   53.4610    3.5870 O.2    84  GLY84      -0.2714
     29  N         -5.9760   53.4930    5.4930 N.am   85  THR85      -0.1936
     30  CA        -5.1110   54.4830    6.1200 C.3    85  THR85       0.2028
     31  C         -3.6390   54.0320    6.2050 C.2    85  THR85       0.2642
     32  O         -2.7510   54.8970    6.0210 O.2    85  THR85      -0.2714
     33  CB        -5.6270   54.8830    7.5120 C.3    85  THR85       0.1808
     34  OG1       -5.5990   53.7230    8.3770 O.3    85  THR85      -0.2208
     35  CG2       -7.0100   55.5230    7.3990 C.3    85  THR85       0.0379
     36  N         -3.4260   52.7470    6.4340 N.am   86  LYS86      -0.1977
     37  CA        -2.0310   52.2590    6.5730 C.3    86  LYS86       0.1596
     38  C         -1.3380   52.3060    5.2280 C.2    86  LYS86       0.2287
     39  O         -0.1650   52.6800    5.1640 O.2    86  LYS86      -0.2864
     40  CB        -1.9540   50.8650    7.1700 C.3    86  LYS86       0.0298
     41  CG        -2.6260   50.7240    8.5080 C.3    86  LYS86       0.0038
     42  CD        -2.1800   51.6260    9.5790 C.3    86  LYS86       0.0206
     43  CE        -2.8660   51.1900   10.8900 C.3    86  LYS86       0.1093
     44  NZ        -3.3270   52.3020   11.6970 N.3    86  LYS86      -0.1314
     45  N         -7.7060   39.5620    1.5310 N.3   151  THR151     -0.1203
     46  CA        -8.1790   40.2320    2.7320 C.3   151  THR151      0.1994
     47  C         -7.1330   41.2730    3.1460 C.2   151  THR151      0.2618
     48  O         -5.9720   41.1320    2.7670 O.2   151  THR151     -0.2717
     49  CB        -8.4300   39.2160    3.8590 C.3   151  THR151      0.1784
     50  OG1       -9.2100   39.7730    4.9290 O.3   151  THR151     -0.2211
     51  CG2       -7.1420   38.6300    4.4470 C.3   151  THR151      0.0376
     52  N         -7.5240   42.2890    3.8940 N.am  152  THR152     -0.1952
     53  CA        -6.5570   43.3760    4.1630 C.3   152  THR152      0.1897
     54  C         -5.3490   42.8540    4.9460 C.2   152  THR152      0.2313
     55  O         -4.1930   43.1360    4.5500 O.2   152  THR152     -0.2863
     56  CB        -7.2380   44.5460    4.8740 C.3   152  THR152      0.1794
     57  OG1       -8.0890   45.2020    3.9700 O.3   152  THR152     -0.2208
     58  CG2       -6.2290   45.5470    5.3840 C.3   152  THR152      0.0378
     59  N         -6.4270   41.0800   11.2730 N.3   156  LEU156     -0.1245
     60  CA        -7.7360   41.7230   11.4800 C.3   156  LEU156      0.1561
     61  C         -8.8420   40.6750   11.6210 C.2   156  LEU156      0.2260
     62  O         -9.9790   40.8750   11.1510 O.2   156  LEU156     -0.2867
     63  CB        -8.0090   42.7160   10.3790 C.3   156  LEU156      0.0270
     64  CG        -7.0410   43.9200   10.3410 C.3   156  LEU156      0.0019
     65  CD1       -7.2760   44.8160    9.1490 C.3   156  LEU156      0.0001
     66  CD2       -7.1530   44.7290   11.6360 C.3   156  LEU156      0.0001
     67  N         -7.4160   46.6020    1.2190 N.3   180  ASP180     -0.1239
     68  CA        -8.6360   47.3220    1.6180 C.3   180  ASP180      0.1674
     69  C         -9.7010   47.2600    0.4800 C.2   180  ASP180      0.2266
     70  O         -9.8980   46.2120   -0.1670 O.2   180  ASP180     -0.2867
     71  CB        -8.3340   48.7520    2.1240 C.3   180  ASP180      0.1410
     72  CG        -7.3130   48.7400    3.2710 C.2   180  ASP180      0.3668
     73  OD1       -6.0770   48.7730    2.9410 O.co2 180  ASP180     -0.2456
     74  OD2       -7.7520   48.7100    4.4280 O.co2 180  ASP180     -0.2456
     75  N        -13.5940   39.5800    4.9760 N.3   197  GLU197     -0.1231
     76  CA       -13.0940   40.5020    5.9940 C.3   197  GLU197      0.1699
     77  C        -14.0120   40.5050    7.1960 C.2   197  GLU197      0.2593
     78  O        -15.2160   40.1930    7.0990 O.2   197  GLU197     -0.2718
     79  CB       -12.8790   41.9190    5.4450 C.3   197  GLU197      0.0402
     80  CG       -11.7800   41.9600    4.3780 C.3   197  GLU197      0.1161
     81  CD       -11.3500   43.3370    3.9560 C.2   197  GLU197      0.3649
     82  OE1      -12.2290   44.2120    3.7630 O.co2 197  GLU197     -0.2457
     83  OE2      -10.1250   43.5130    3.7770 O.co2 197  GLU197     -0.2457
     84  N        -13.4630   40.8420    8.3750 N.am  198  SER198     -0.1938
     85  CA       -14.1760   40.9170    9.6260 C.3   198  SER198      0.2055
     86  C        -13.9260   42.2810   10.2650 C.2   198  SER198      0.2644
     87  O        -12.7480   42.7270   10.3460 O.2   198  SER198     -0.2714
     88  CB       -13.6660   39.8080   10.5410 C.3   198  SER198      0.2130
     89  OG       -14.3040   39.8530   11.7870 O.3   198  SER198     -0.2179
     90  N        -14.9680   42.8800   10.8010 N.am  199  GLY199     -0.1939
     91  CA       -14.8060   44.0990   11.5330 C.3   199  GLY199      0.2014
     92  C        -14.8890   45.4060   10.7750 C.2   199  GLY199      0.2638
     93  O        -14.3810   46.4400   11.2190 O.2   199  GLY199     -0.2714
     94  N        -15.5110   45.3340    9.6070 N.am  200  LEU200     -0.1977
     95  CA       -15.7050   46.5740    8.8140 C.3   200  LEU200      0.1596
     96  C        -16.8510   47.4460    9.3850 C.2   200  LEU200      0.2287
     97  O        -17.9150   46.8950    9.7690 O.2   200  LEU200     -0.2864
     98  CB       -15.9980   46.2660    7.3520 C.3   200  LEU200      0.0297
     99  CG       -14.9080   45.5640    6.5910 C.3   200  LEU200      0.0022
    100  CD1      -15.3660   45.4040    5.1350 C.3   200  LEU200      0.0001
    101  CD2      -13.6450   46.3490    6.6060 C.3   200  LEU200      0.0001
    102  N        -16.9870   51.6890    5.4290 N.3   204  ASP204     -0.1239
    103  CA       -16.0010   50.8540    4.7540 C.3   204  ASP204      0.1674
    104  C        -16.6270   49.8600    3.7540 C.2   204  ASP204      0.2266
    105  O        -15.9110   49.3040    2.9910 O.2   204  ASP204     -0.2867
    106  CB       -15.1900   49.9060    5.7400 C.3   204  ASP204      0.1410
    107  CG       -14.3950   50.6050    6.9280 C.2   204  ASP204      0.3668
    108  OD1      -13.7340   51.6310    6.7300 O.co2 204  ASP204     -0.2456
    109  OD2      -14.3950   49.9920    8.0390 O.co2 204  ASP204     -0.2456
@<TRIPOS>BOND
     1    70    69    2
     2    69    68    1
     3    67    68    1
     4    45    46    1
     5    68    71    1
     6    20    19    2
     7     4     3    2
     8    71    72    1
     9    24    22   ar
    10    21    22    1
    11    21    18    1
    12    46    47    1
    13    46    49    1
    14    48    47    2
    15    17    18    1
    16    17    11   am
    17    19    18    1
    18    19    25   am
    19    14    16    1
    20    14    13    1
    21     3     2    1
    22    73    72   ar
    23    10     9    1
    24    10    13    1
    25    10    11    1
    26   105   104    2
    27    22    23   ar
    28    47    52   am
    29     1     2    1
    30    72    74   ar
    31    15    13    1
    32    28    27    2
    33    11    12    2
    34    26    25    1
    35    26    27    1
    36   104   103    1
    37    82    81   ar
    38    83    81   ar
    39     2     5    1
    40    49    51    1
    41    49    50    1
    42    52    53    1
    43    81    80    1
    44    57    56    1
    45     5     6    1
    46    53    56    1
    47    53    54    1
    48    27    29   am
    49    80    79    1
    50    55    54    2
    51   103   102    1
    52   103   106    1
    53    56    58    1
    54     6     7   ar
    55     6     8   ar
    56    75    76    1
    57   100    99    1
    58    39    38    2
    59    38    37    1
    60    79    76    1
    61    29    30    1
    62   106   107    1
    63    76    77    1
    64    32    31    2
    65    30    31    1
    66    30    33    1
    67    31    36   am
    68    36    37    1
    69    37    40    1
    70    99   101    1
    71    99    98    1
    72   108   107   ar
    73   107   109   ar
    74    78    77    2
    75    40    41    1
    76    77    84   am
    77    98    95    1
    78    35    33    1
    79    33    34    1
    80    84    85    1
    81    41    42    1
    82    95    96    1
    83    95    94    1
    84    65    64    1
    85    96    97    2
    86    42    43    1
    87    94    92   am
    88    85    86    1
    89    85    88    1
    90    86    87    2
    91    86    90   am
    92    64    63    1
    93    64    66    1
    94    63    60    1
    95    88    89    1
    96    92    93    2
    97    92    91    1
    98    90    91    1
    99    43    44    1
   100    62    61    2
   101    59    60    1
   102    60    61    1
