@<TRIPOS>MOLECULE
tmp/5eqcA05.pdb
 105 101 0 0 0
SMALL
GASTEIGER

@<TRIPOS>ATOM
      1  N        144.1080  125.0820   -2.6450 N.3   120  THR120     -0.1203
      2  CA       143.6660  123.7050   -2.6510 C.3   120  THR120      0.1994
      3  C        143.5000  123.1740   -1.2580 C.2   120  THR120      0.2618
      4  O        143.9470  123.7710   -0.2440 O.2   120  THR120     -0.2717
      5  CB       144.6560  122.8000   -3.4040 C.3   120  THR120      0.1784
      6  OG1      145.9190  122.7650   -2.7230 O.3   120  THR120     -0.2211
      7  CG2      144.8610  123.2980   -4.8150 C.3   120  THR120      0.0376
      8  N        142.8310  122.0260   -1.1920 N.am  121  GLY121     -0.1942
      9  CA       142.6350  121.3310    0.0850 C.3   121  GLY121      0.2014
     10  C        143.9240  120.9700    0.7580 C.2   121  GLY121      0.2638
     11  O        144.0710  121.1040    1.9520 O.2   121  GLY121     -0.2714
     12  N        144.8140  120.3990   -0.0210 N.am  122  ALA122     -0.1977
     13  CA       146.1610  120.0760    0.4140 C.3   122  ALA122      0.1597
     14  C        146.8570  121.3400    1.0110 C.2   122  ALA122      0.2287
     15  O        147.4220  121.2720    2.0960 O.2   122  ALA122     -0.2864
     16  CB       146.9740  119.5560   -0.7790 C.3   122  ALA122      0.0319
     17  N        142.5400  111.2100    4.5490 N.3   156  TYR156     -0.1227
     18  CA       142.9740  111.7590    3.2820 C.3   156  TYR156      0.1736
     19  C        142.8770  113.2770    3.4110 C.2   156  TYR156      0.2595
     20  O        141.8080  113.7990    3.7950 O.2   156  TYR156     -0.2718
     21  CB       142.0700  111.3410    2.1380 C.3   156  TYR156      0.0548
     22  CG       142.5950  111.8520    0.8060 C.ar  156  TYR156     -0.0200
     23  CD1      143.5620  111.1150    0.1170 C.ar  156  TYR156     -0.0009
     24  CD2      142.1900  113.1010    0.2610 C.ar  156  TYR156     -0.0009
     25  CE1      144.0850  111.5760   -1.0960 C.ar  156  TYR156      0.0417
     26  CE2      142.7230  113.5760   -0.9470 C.ar  156  TYR156      0.0417
     27  CZ       143.6600  112.8030   -1.6200 C.ar  156  TYR156      0.1957
     28  OH       144.1950  113.1770   -2.8120 O.3   156  TYR156     -0.2866
     29  N        143.9790  113.9690    3.1940 N.am  157  TRP157     -0.1962
     30  CA       143.9250  115.4170    3.1540 C.3   157  TRP157      0.1771
     31  C        144.7420  116.0330    2.0200 C.2   157  TRP157      0.2620
     32  O        144.6920  117.2200    1.8060 O.2   157  TRP157     -0.2715
     33  CB       144.3110  115.9590    4.5340 C.3   157  TRP157      0.0590
     34  CG       145.7310  115.7530    5.0290 C.ar  157  TRP157      0.0006
     35  CD1      146.2030  114.7680    5.8580 C.ar  157  TRP157      0.0946
     36  CD2      146.8580  116.6200    4.7670 C.ar  157  TRP157      0.0152
     37  NE1      147.5430  114.9470    6.1090 N.ar  157  TRP157     -0.2442
     38  CE2      147.9680  116.0880    5.4720 C.ar  157  TRP157      0.0810
     39  CE3      147.0260  117.7810    3.9990 C.ar  157  TRP157      0.0012
     40  CZ2      149.2280  116.6780    5.4350 C.ar  157  TRP157      0.0191
     41  CZ3      148.2890  118.3850    3.9720 C.ar  157  TRP157      0.0001
     42  CH2      149.3810  117.8140    4.6720 C.ar  157  TRP157      0.0015
     43  N        145.4440  115.2370    1.2380 N.am  158  GLY158     -0.1954
     44  CA       146.2460  115.7690    0.1420 C.3   158  GLY158      0.1869
     45  C        147.2950  114.8050   -0.3310 C.2   158  GLY158      0.2309
     46  O        147.3540  113.6660    0.1020 O.2   158  GLY158     -0.2863
     47  N        138.4070  114.3030   10.2840 N.3   209  GLU209     -0.1245
     48  CA       137.2820  114.4730    9.3870 C.3   209  GLU209      0.1567
     49  C        135.9970  114.1060   10.1230 C.2   209  GLU209      0.2260
     50  O        135.9760  113.1050   10.7790 O.2   209  GLU209     -0.2867
     51  CB       137.4420  113.5280    8.1810 C.3   209  GLU209      0.0388
     52  CG       138.5710  113.8610    7.2190 C.3   209  GLU209      0.1160
     53  CD       138.9290  112.7150    6.2080 C.2   209  GLU209      0.3649
     54  OE1      138.2760  112.5480    5.0810 O.co2 209  GLU209     -0.2457
     55  OE2      139.9500  112.0510    6.5170 O.co2 209  GLU209     -0.2457
     56  N        137.4210  109.8010    1.4760 N.3   214  GLU214     -0.1245
     57  CA       138.2680  108.8760    0.7150 C.3   214  GLU214      0.1567
     58  C        138.4860  107.5530    1.4190 C.2   214  GLU214      0.2260
     59  O        138.5480  106.5190    0.7770 O.2   214  GLU214     -0.2867
     60  CB       139.6480  109.4910    0.3470 C.3   214  GLU214      0.0388
     61  CG       139.7050  110.0900   -1.0440 C.3   214  GLU214      0.1160
     62  CD       140.2060  109.1210   -2.1100 C.2   214  GLU214      0.3649
     63  OE1      139.3370  108.4380   -2.7520 O.co2 214  GLU214     -0.2457
     64  OE2      141.4630  109.0630   -2.3410 O.co2 214  GLU214     -0.2457
     65  N        138.5280  118.9940    9.3590 N.3   242  ASP242     -0.1239
     66  CA       138.5740  119.1030    7.9030 C.3   242  ASP242      0.1674
     67  C        137.1620  118.9130    7.3560 C.2   242  ASP242      0.2266
     68  O        136.6590  117.8020    7.3370 O.2   242  ASP242     -0.2867
     69  CB       139.4780  117.9920    7.3700 C.3   242  ASP242      0.1410
     70  CG       139.6420  118.0200    5.8790 C.2   242  ASP242      0.3668
     71  OD1      138.9640  118.8330    5.2120 O.co2 242  ASP242     -0.2456
     72  OD2      140.5120  117.2400    5.3620 O.co2 242  ASP242     -0.2456
     73  N        136.4800  119.9480    4.1500 N.3   244  ILE244     -0.1231
     74  CA       136.6450  120.1520    2.7010 C.3   244  ILE244      0.1692
     75  C        135.6550  119.3280    1.8550 C.2   244  ILE244      0.2592
     76  O        135.1600  119.8080    0.8490 O.2   244  ILE244     -0.2718
     77  CB       138.1350  119.9150    2.2940 C.3   244  ILE244      0.0266
     78  CG1      138.9790  121.0390    2.8930 C.3   244  ILE244      0.0019
     79  CG2      138.3410  119.8690    0.8030 C.3   244  ILE244      0.0020
     80  CD1      140.4310  120.7030    3.0720 C.3   244  ILE244      0.0001
     81  N        135.3610  118.1110    2.3000 N.am  245  GLN245     -0.1966
     82  CA       134.3630  117.2270    1.7040 C.3   245  GLN245      0.1733
     83  C        132.9910  117.2520    2.4030 C.2   245  GLN245      0.2617
     84  O        131.9310  117.2370    1.7390 O.2   245  GLN245     -0.2715
     85  CB       134.9520  115.7970    1.6290 C.3   245  GLN245      0.0408
     86  CG       134.0250  114.8210    0.9370 C.3   245  GLN245      0.0908
     87  CD       134.6250  113.4530    0.4590 C.2   245  GLN245      0.2608
     88  OE1      133.8380  112.5130    0.1590 O.2   245  GLN245     -0.2717
     89  NE2      136.0100  113.3440    0.3460 N.am  245  GLN245     -0.0878
     90  N        133.0040  117.2710    3.7300 N.am  246  THR246     -0.1951
     91  CA       131.7720  117.2250    4.4940 C.3   246  THR246      0.1897
     92  C        131.0630  118.5520    4.7120 C.2   246  THR246      0.2313
     93  O        129.9310  118.5640    5.0940 O.2   246  THR246     -0.2863
     94  CB       131.9880  116.6250    5.8810 C.3   246  THR246      0.1794
     95  OG1      132.8620  117.4620    6.6400 O.3   246  THR246     -0.2208
     96  CG2      132.5300  115.1840    5.7590 C.3   246  THR246      0.0378
     97  N        136.7750  122.9380   -1.9380 N.3   271  LYS271     -0.1245
     98  CA       135.9350  122.2610   -2.8850 C.3   271  LYS271      0.1561
     99  C        134.6830  123.0820   -3.2630 C.2   271  LYS271      0.2260
    100  O        134.7880  123.9800   -4.1070 O.2   271  LYS271     -0.2867
    101  CB       135.5990  120.8560   -2.4060 C.3   271  LYS271      0.0271
    102  CG       136.7330  119.8710   -2.6050 C.3   271  LYS271      0.0035
    103  CD       136.3030  118.4700   -2.2900 C.3   271  LYS271      0.0206
    104  CE       137.4870  117.5750   -2.6110 C.3   271  LYS271      0.1093
    105  NZ       137.2040  116.2170   -2.2500 N.3   271  LYS271     -0.1314
@<TRIPOS>BOND
     1     7     5    1
     2   100    99    2
     3     5     6    1
     4     5     2    1
     5    99    98    1
     6    98   101    1
     7    98    97    1
     8    28    27    1
     9    63    62   ar
    10     2     1    1
    11     2     3    1
    12   104   103    1
    13   104   105    1
    14   102   101    1
    15   102   103    1
    16    64    62   ar
    17    62    61    1
    18    27    25   ar
    19    27    26   ar
    20     3     8   am
    21     3     4    2
    22     8     9    1
    23    25    23   ar
    24    61    60    1
    25    26    24   ar
    26    16    13    1
    27    45    46    2
    28    45    44    1
    29    12    13    1
    30    12    10   am
    31     9    10    1
    32    23    22   ar
    33    44    43    1
    34    88    87    2
    35    24    22   ar
    36    89    87   am
    37    60    57    1
    38    13    14    1
    39    87    86    1
    40    57    58    1
    41    57    56    1
    42    10    11    2
    43    59    58    2
    44    79    77    1
    45    22    21    1
    46    76    75    2
    47    86    85    1
    48    14    15    2
    49    43    31   am
    50    85    82    1
    51    82    81    1
    52    82    83    1
    53    84    83    2
    54    32    31    2
    55    75    81   am
    56    75    74    1
    57    31    30    1
    58    21    18    1
    59    77    74    1
    60    77    78    1
    61    83    90   am
    62    74    73    1
    63    78    80    1
    64    30    29    1
    65    30    33    1
    66    29    19   am
    67    18    19    1
    68    18    17    1
    69    19    20    2
    70    90    91    1
    71    41    39   ar
    72    41    42   ar
    73    39    36   ar
    74    91    92    1
    75    91    94    1
    76    33    34    1
    77    42    40   ar
    78    92    93    2
    79    36    34   ar
    80    36    38   ar
    81    34    35   ar
    82    54    53   ar
    83    71    70   ar
    84    72    70   ar
    85    40    38   ar
    86    38    37   ar
    87    96    94    1
    88    35    37   ar
    89    70    69    1
    90    94    95    1
    91    53    55   ar
    92    53    52    1
    93    52    51    1
    94    68    67    2
    95    67    66    1
    96    69    66    1
    97    66    65    1
    98    51    48    1
    99    48    49    1
   100    48    47    1
   101    49    50    2
