@<TRIPOS>MOLECULE
tmp/5eqcA01.pdb
 86 83 0 0 0
SMALL
GASTEIGER

@<TRIPOS>ATOM
      1  N        131.2820  106.8760    8.7750 N.3   219  VAL219     -0.1231
      2  CA       130.5410  107.7650    9.6050 C.3   219  VAL219      0.1678
      3  C        130.8130  107.3470   11.0540 C.2   219  VAL219      0.2434
      4  O        130.5500  106.2150   11.4030 O.2   219  VAL219     -0.2733
      5  CB       129.0400  107.6030    9.3090 C.3   219  VAL219      0.0265
      6  CG1      128.2190  108.5240   10.2210 C.3   219  VAL219      0.0020
      7  CG2      128.7590  107.8120    7.8060 C.3   219  VAL219      0.0020
      8  N        131.3610  108.2300   11.8900 N.am  220  PRO220     -0.2729
      9  CA       131.6110  107.7750   13.2550 C.3   220  PRO220      0.1401
     10  C        130.3190  107.6480   14.1130 C.2   220  PRO220      0.2269
     11  O        129.2540  108.0530   13.6740 O.2   220  PRO220     -0.2865
     12  CB       132.4990  108.8660   13.8180 C.3   220  PRO220      0.0296
     13  CG       132.1440  110.1100   13.0230 C.3   220  PRO220      0.0237
     14  CD       131.4870  109.6990   11.7630 C.3   220  PRO220      0.0939
     15  N        127.6160  108.7210   16.8180 N.3   222  PRO222     -0.2116
     16  CA       127.2520  110.0970   17.2180 C.3   222  PRO222      0.1372
     17  C        127.8920  110.5090   18.5660 C.2   222  PRO222      0.2244
     18  O        128.1110  109.6690   19.4670 O.2   222  PRO222     -0.2868
     19  CB       125.7060  110.0850   17.2790 C.3   222  PRO222      0.0268
     20  CG       125.2730  108.6430   17.1080 C.3   222  PRO222      0.0207
     21  CD       126.5010  107.7640   16.9590 C.3   222  PRO222      0.0892
     22  N        118.7660  106.8680    1.5630 N.3   336  ARG336     -0.1245
     23  CA       119.2470  105.7390    2.3570 C.3   336  ARG336      0.1563
     24  C        118.0790  104.7890    2.7360 C.2   336  ARG336      0.2260
     25  O        118.2280  103.5720    2.7110 O.2   336  ARG336     -0.2867
     26  CB       119.9820  106.1910    3.6330 C.3   336  ARG336      0.0307
     27  CG       121.3440  106.8380    3.3930 C.3   336  ARG336      0.0489
     28  CD       122.0130  107.1480    4.7050 C.3   336  ARG336      0.2205
     29  NE       121.2550  108.1420    5.4350 N.pl3 336  ARG336     -0.0865
     30  CZ       121.3130  109.4550    5.2190 C.cat 336  ARG336      0.5346
     31  NH1      122.1300  109.9880    4.2830 N.pl3 336  ARG336      0.1354
     32  NH2      120.5220  110.2240    5.9150 N.pl3 336  ARG336      0.1354
     33  N        117.9620  100.8670    1.5070 N.3   340  ARG340     -0.1245
     34  CA       117.9060   99.8020    2.4660 C.3   340  ARG340      0.1563
     35  C        116.6520   98.9380    2.2530 C.2   340  ARG340      0.2260
     36  O        116.7540   97.7220    2.2340 O.2   340  ARG340     -0.2867
     37  CB       118.0020  100.3610    3.8650 C.3   340  ARG340      0.0307
     38  CG       119.3060  101.1090    4.1480 C.3   340  ARG340      0.0489
     39  CD       119.2320  101.6530    5.5550 C.3   340  ARG340      0.2205
     40  NE       120.0830  102.7990    5.9030 N.pl3 340  ARG340     -0.0865
     41  CZ       119.5660  103.8630    6.5070 C.cat 340  ARG340      0.5346
     42  NH1      118.2480  103.9490    6.7390 N.pl3 340  ARG340      0.1354
     43  NH2      120.3210  104.8420    6.8700 N.pl3 340  ARG340      0.1354
     44  N        126.7050   97.1910    3.4900 N.3   352  GLU352     -0.1231
     45  CA       126.2180   98.3570    4.2110 C.3   352  GLU352      0.1699
     46  C        125.9220   99.5520    3.3340 C.2   352  GLU352      0.2592
     47  O        126.6520   99.8440    2.3810 O.2   352  GLU352     -0.2718
     48  CB       127.2260   98.7580    5.2740 C.3   352  GLU352      0.0402
     49  CG       126.6900   99.8090    6.2260 C.3   352  GLU352      0.1161
     50  CD       127.6400  100.1990    7.3730 C.2   352  GLU352      0.3649
     51  OE1      128.8840  100.3830    7.2070 O.co2 352  GLU352     -0.2457
     52  OE2      127.0790  100.3280    8.4730 O.co2 352  GLU352     -0.2457
     53  N        124.8330  100.2350    3.6860 N.am  353  ILE353     -0.1966
     54  CA       124.4350  101.4980    3.1200 C.3   353  ILE353      0.1727
     55  C        124.6030  102.4640    4.2730 C.2   353  ILE353      0.2616
     56  O        124.0830  102.2150    5.3350 O.2   353  ILE353     -0.2715
     57  CB       122.9930  101.4110    2.6620 C.3   353  ILE353      0.0290
     58  CG1      122.8920  100.5370    1.4020 C.3   353  ILE353      0.0022
     59  CG2      122.4430  102.7890    2.4020 C.3   353  ILE353      0.0023
     60  CD1      121.5310   99.8610    1.2350 C.3   353  ILE353      0.0001
     61  N        125.4420  103.4660    4.1090 N.am  354  ARG354     -0.1963
     62  CA       125.7390  104.4540    5.1610 C.3   354  ARG354      0.1729
     63  C        125.9350  105.8560    4.5570 C.2   354  ARG354      0.2617
     64  O        126.1710  106.0200    3.3520 O.2   354  ARG354     -0.2715
     65  CB       127.0070  104.0580    5.9290 C.3   354  ARG354      0.0348
     66  CG       128.2260  103.8090    5.0360 C.3   354  ARG354      0.0492
     67  CD       129.4770  103.4720    5.8540 C.3   354  ARG354      0.2205
     68  NE       130.6680  103.2390    4.9960 N.pl3 354  ARG354     -0.0865
     69  CZ       131.1620  102.0350    4.6560 C.cat 354  ARG354      0.5346
     70  NH1      130.5770  100.9160    5.0260 N.pl3 354  ARG354      0.1354
     71  NH2      132.2190  101.9640    3.8750 N.pl3 354  ARG354      0.1354
     72  N        125.8360  106.8630    5.3900 N.am  355  GLY355     -0.1940
     73  CA       126.0850  108.2380    5.0290 C.3   355  GLY355      0.2014
     74  C        125.2780  109.2150    5.8730 C.2   355  GLY355      0.2638
     75  O        124.5280  108.8100    6.7310 O.2   355  GLY355     -0.2714
     76  N        125.4250  110.5080    5.5760 N.am  356  ARG356     -0.1977
     77  CA       124.6540  111.5730    6.1730 C.3   356  ARG356      0.1597
     78  C        124.3950  112.5650    5.0810 C.2   356  ARG356      0.2287
     79  O        125.2660  112.8030    4.2420 O.2   356  ARG356     -0.2864
     80  CB       125.4180  112.2620    7.3400 C.3   356  ARG356      0.0334
     81  CG       125.6600  111.3160    8.5100 C.3   356  ARG356      0.0492
     82  CD       125.8430  112.0750    9.7970 C.3   356  ARG356      0.2205
     83  NE       126.0830  111.2720   11.0170 N.pl3 356  ARG356     -0.0865
     84  CZ       127.1340  111.3870   11.8730 C.cat 356  ARG356      0.5346
     85  NH1      127.2050  110.5720   12.9650 N.pl3 356  ARG356      0.1354
     86  NH2      128.1240  112.2950   11.6780 N.pl3 356  ARG356      0.1354
@<TRIPOS>BOND
     1    60    58    1
     2    58    57    1
     3    33    34    1
     4    22    23    1
     5    36    35    2
     6    35    34    1
     7    23    24    1
     8    23    26    1
     9    47    46    2
    10    59    57    1
    11    34    37    1
    12    57    54    1
    13    25    24    2
    14    54    53    1
    15    54    55    1
    16    46    53   am
    17    46    45    1
    18    64    63    2
    19    27    26    1
    20    27    28    1
    21    44    45    1
    22    37    38    1
    23    71    69    1
    24    61    55   am
    25    61    62    1
    26    38    39    1
    27    45    48    1
    28    79    78    2
    29    55    56    2
    30    31    30    1
    31    63    62    1
    32    63    72   am
    33    69    68    2
    34    69    70    1
    35    28    29    1
    36    68    67    1
    37    73    72    1
    38    73    74    1
    39    66    67    1
    40    66    65    1
    41    78    77    1
    42    62    65    1
    43    30    29    2
    44    30    32    1
    45    48    49    1
    46    39    40    1
    47    76    74   am
    48    76    77    1
    49    74    75    2
    50    40    41    2
    51    77    80    1
    52    49    50    1
    53    41    42    1
    54    41    43    1
    55    51    50   ar
    56    80    81    1
    57    50    52   ar
    58     7     5    1
    59    81    82    1
    60     1     2    1
    61     5     2    1
    62     5     6    1
    63     2     3    1
    64    82    83    1
    65    83    84    2
    66     3     4    2
    67     3     8   am
    68    86    84    1
    69    14     8    1
    70    14    13    1
    71    84    85    1
    72     8     9    1
    73    13    12    1
    74     9    12    1
    75     9    10    1
    76    11    10    2
    77    15    21    1
    78    15    16    1
    79    21    20    1
    80    20    19    1
    81    16    19    1
    82    16    17    1
    83    17    18    2
