@<TRIPOS>MOLECULE
tmp/5eqcB06.pdb
 84 82 0 0 0
SMALL
GASTEIGER

@<TRIPOS>ATOM
      1  N        153.4650  119.4640  -27.0600 N.3   104  GLU104     -0.1231
      2  CA       154.0320  119.8840  -28.3020 C.3   104  GLU104      0.1699
      3  C        154.7450  121.2450  -28.1600 C.2   104  GLU104      0.2592
      4  O        155.7900  121.4350  -28.7430 O.2   104  GLU104     -0.2718
      5  CB       152.9460  119.9610  -29.3900 C.3   104  GLU104      0.0402
      6  CG       152.5510  118.6260  -30.0350 C.3   104  GLU104      0.1161
      7  CD       151.2850  118.7140  -30.9170 C.2   104  GLU104      0.3649
      8  OE1      150.6570  119.8230  -31.0670 O.co2 104  GLU104     -0.2457
      9  OE2      150.8610  117.6280  -31.4040 O.co2 104  GLU104     -0.2457
     10  N        154.1800  122.2070  -27.4200 N.am  105  MET105     -0.1965
     11  CA       154.8200  123.5070  -27.3160 C.3   105  MET105      0.1736
     12  C        156.1830  123.4400  -26.6090 C.2   105  MET105      0.2616
     13  O        157.0710  124.1340  -26.9550 O.2   105  MET105     -0.2715
     14  CB       153.9130  124.4810  -26.5500 C.3   105  MET105      0.0427
     15  CG       154.4410  125.8840  -26.4720 C.3   105  MET105      0.0599
     16  SD       153.1270  126.9700  -25.9810 S.3   105  MET105     -0.1393
     17  CE       153.9130  128.5510  -25.8210 C.3   105  MET105      0.0692
     18  N        156.3060  122.6620  -25.5650 N.am  106  PHE106     -0.1960
     19  CA       157.5360  122.6220  -24.7500 C.3   106  PHE106      0.1771
     20  C        158.4460  121.4200  -25.0050 C.2   106  PHE106      0.2620
     21  O        159.6020  121.4240  -24.5520 O.2   106  PHE106     -0.2715
     22  CB       157.1660  122.7210  -23.2920 C.3   106  PHE106      0.0574
     23  CG       156.5320  124.0260  -22.9650 C.ar  106  PHE106     -0.0200
     24  CD1      157.3090  125.1490  -22.8020 C.ar  106  PHE106     -0.0042
     25  CD2      155.1410  124.1570  -22.9090 C.ar  106  PHE106     -0.0042
     26  CE1      156.7300  126.3990  -22.5640 C.ar  106  PHE106     -0.0003
     27  CE2      154.5470  125.4250  -22.6960 C.ar  106  PHE106     -0.0003
     28  CZ       155.3570  126.5300  -22.4760 C.ar  106  PHE106     -0.0000
     29  N        157.9820  120.4300  -25.7640 N.am  107  GLY107     -0.1954
     30  CA       158.8360  119.3290  -26.2630 C.3   107  GLY107      0.1869
     31  C        158.9160  118.2070  -25.2450 C.2   107  GLY107      0.2309
     32  O        159.9960  117.7660  -24.9430 O.2   107  GLY107     -0.2863
     33  N        162.9440  134.7760  -23.7950 N.3   249  ARG249     -0.1231
     34  CA       162.9600  133.5070  -24.4680 C.3   249  ARG249      0.1694
     35  C        161.7820  132.7190  -23.8810 C.2   249  ARG249      0.2592
     36  O        161.3710  132.9590  -22.7630 O.2   249  ARG249     -0.2718
     37  CB       164.2470  132.7360  -24.1660 C.3   249  ARG249      0.0321
     38  CG       165.6260  133.2940  -24.6700 C.3   249  ARG249      0.0489
     39  CD       165.6610  133.4210  -26.2020 C.3   249  ARG249      0.2205
     40  NE       165.4410  132.1600  -26.9560 N.pl3 249  ARG249     -0.0865
     41  CZ       166.4050  131.2680  -27.2550 C.cat 249  ARG249      0.5346
     42  NH1      166.0930  130.1620  -27.9260 N.pl3 249  ARG249      0.1354
     43  NH2      167.6710  131.4530  -26.8680 N.pl3 249  ARG249      0.1354
     44  N        161.2760  131.7490  -24.6120 N.am  250  LEU250     -0.1966
     45  CA       160.1180  130.9870  -24.1430 C.3   250  LEU250      0.1728
     46  C        160.3930  130.3600  -22.7510 C.2   250  LEU250      0.2616
     47  O        159.5420  130.4420  -21.8460 O.2   250  LEU250     -0.2715
     48  CB       159.7060  129.9120  -25.1530 C.3   250  LEU250      0.0311
     49  CG       158.5430  129.0040  -24.6880 C.3   250  LEU250      0.0022
     50  CD1      157.2660  129.8230  -24.4630 C.3   250  LEU250      0.0001
     51  CD2      158.3230  127.9060  -25.7400 C.3   250  LEU250      0.0001
     52  N        161.5780  129.7630  -22.5950 N.am  251  LEU251     -0.1977
     53  CA       162.0740  129.3150  -21.3020 C.3   251  LEU251      0.1596
     54  C        163.3800  130.0550  -20.9810 C.2   251  LEU251      0.2287
     55  O        164.2300  130.1980  -21.8250 O.2   251  LEU251     -0.2864
     56  CB       162.3550  127.8040  -21.3130 C.3   251  LEU251      0.0297
     57  CG       161.1430  126.8800  -21.4950 C.3   251  LEU251      0.0022
     58  CD1      161.5370  125.4270  -21.4020 C.3   251  LEU251      0.0001
     59  CD2      160.0340  127.1880  -20.4880 C.3   251  LEU251      0.0001
     60  N        166.3270  128.3360  -22.1030 N.3   254  ASP254     -0.1239
     61  CA       166.8510  128.4510  -23.5100 C.3   254  ASP254      0.1674
     62  C        168.1790  129.2360  -23.6570 C.2   254  ASP254      0.2266
     63  O        168.9390  128.9560  -24.5860 O.2   254  ASP254     -0.2867
     64  CB       165.8290  129.0900  -24.4440 C.3   254  ASP254      0.1410
     65  CG       164.5760  128.2680  -24.5850 C.2   254  ASP254      0.3668
     66  OD1      164.5950  127.0580  -24.3590 O.co2 254  ASP254     -0.2456
     67  OD2      163.5680  128.8560  -24.9210 O.co2 254  ASP254     -0.2456
     68  N        169.4190  124.5430  -22.5020 N.3   258  VAL258     -0.1231
     69  CA       169.1120  123.3990  -21.6680 C.3   258  VAL258      0.1692
     70  C        167.6260  123.0760  -21.8680 C.2   258  VAL258      0.2592
     71  O        166.7800  123.9690  -21.7060 O.2   258  VAL258     -0.2718
     72  CB       169.4260  123.7170  -20.1820 C.3   258  VAL258      0.0266
     73  CG1      168.7970  122.7130  -19.2380 C.3   258  VAL258      0.0020
     74  CG2      170.9270  123.7360  -19.9380 C.3   258  VAL258      0.0020
     75  N        167.3700  121.8060  -22.1980 N.am  259  HIS259     -0.1976
     76  CA       166.0550  121.1480  -22.1300 C.3   259  HIS259      0.1656
     77  C        165.9770  120.4190  -20.7980 C.2   259  HIS259      0.2291
     78  O        166.5980  119.4110  -20.6290 O.2   259  HIS259     -0.2864
     79  CB       165.8670  120.1690  -23.3380 C.3   259  HIS259      0.0771
     80  CG       164.4920  119.5780  -23.4540 C.ar  259  HIS259      0.0820
     81  ND1      163.3850  120.3110  -23.8210 N.ar  259  HIS259     -0.2267
     82  CD2      164.0510  118.3170  -23.2580 C.ar  259  HIS259      0.1154
     83  CE1      162.3220  119.5420  -23.8250 C.ar  259  HIS259      0.1986
     84  NE2      162.6940  118.3230  -23.4860 N.ar  259  HIS259     -0.2212
@<TRIPOS>BOND
     1     9     7   ar
     2     8     7   ar
     3     7     6    1
     4     6     5    1
     5     5     2    1
     6     4     3    2
     7     2     3    1
     8     2     1    1
     9     3    10   am
    10    42    41    1
    11    10    11    1
    12    11    12    1
    13    11    14    1
    14    41    40    2
    15    41    43    1
    16    40    39    1
    17    13    12    2
    18    12    18   am
    19    14    15    1
    20    15    16    1
    21    30    29    1
    22    30    31    1
    23    39    38    1
    24    16    17    1
    25    29    20   am
    26    51    49    1
    27    18    19    1
    28    31    32    2
    29    48    49    1
    30    48    45    1
    31    20    19    1
    32    20    21    2
    33    67    65   ar
    34    19    22    1
    35    49    50    1
    36    38    37    1
    37    44    45    1
    38    44    35   am
    39    63    62    2
    40    65    64    1
    41    65    66   ar
    42    34    37    1
    43    34    35    1
    44    34    33    1
    45    64    61    1
    46    45    46    1
    47    35    36    2
    48    83    81   ar
    49    83    84   ar
    50    81    80   ar
    51    62    61    1
    52    61    60    1
    53    84    82   ar
    54    80    79    1
    55    80    82   ar
    56    79    76    1
    57    22    23    1
    58    23    25   ar
    59    23    24   ar
    60    25    27   ar
    61    24    26   ar
    62    46    52   am
    63    46    47    2
    64    27    28   ar
    65    52    53    1
    66    26    28   ar
    67    68    69    1
    68    75    76    1
    69    75    70   am
    70    76    77    1
    71    70    71    2
    72    70    69    1
    73    55    54    2
    74    69    72    1
    75    57    58    1
    76    57    56    1
    77    57    59    1
    78    56    53    1
    79    53    54    1
    80    77    78    2
    81    72    74    1
    82    72    73    1
