@<TRIPOS>MOLECULE
tmp/5eqcA03.pdb
 96 94 0 0 0
SMALL
GASTEIGER

@<TRIPOS>ATOM
      1  N        132.6450  118.8520   -4.7090 N.3    66  SER66      -0.1217
      2  CA       133.0530  120.1700   -5.2640 C.3    66  SER66       0.1889
      3  C        131.9620  120.9010   -6.0270 C.2    66  SER66       0.2288
      4  O        132.0370  122.1290   -6.2150 O.2    66  SER66      -0.2866
      5  CB       134.2720  119.9950   -6.1990 C.3    66  SER66       0.2089
      6  OG       135.3970  119.5050   -5.4800 O.3    66  SER66      -0.2183
      7  N        144.6040  127.8610   -2.0130 N.3   119  ASN119     -0.1225
      8  CA       144.0820  127.4280   -3.2960 C.3   119  ASN119      0.1785
      9  C        143.4770  126.0460   -3.2930 C.2   119  ASN119      0.2598
     10  O        142.4130  125.8910   -3.8830 O.2   119  ASN119     -0.2718
     11  CB       145.1060  127.5540   -4.4510 C.3   119  ASN119      0.1169
     12  CG       145.6690  128.9570   -4.5180 C.2   119  ASN119      0.2627
     13  OD1      145.0730  129.8660   -5.0350 O.2   119  ASN119     -0.2716
     14  ND2      146.7670  129.1400   -3.8630 N.am  119  ASN119     -0.0877
     15  N        144.1080  125.0820   -2.6450 N.am  120  THR120     -0.1939
     16  CA       143.6660  123.7050   -2.6510 C.3   120  THR120      0.2028
     17  C        143.5000  123.1740   -1.2580 C.2   120  THR120      0.2643
     18  O        143.9470  123.7710   -0.2440 O.2   120  THR120     -0.2714
     19  CB       144.6560  122.8000   -3.4040 C.3   120  THR120      0.1808
     20  OG1      145.9190  122.7650   -2.7230 O.3   120  THR120     -0.2208
     21  CG2      144.8610  123.2980   -4.8150 C.3   120  THR120      0.0379
     22  N        142.8310  122.0260   -1.1920 N.am  121  GLY121     -0.1939
     23  CA       142.6350  121.3310    0.0850 C.3   121  GLY121      0.2014
     24  C        143.9240  120.9700    0.7580 C.2   121  GLY121      0.2638
     25  O        144.0710  121.1040    1.9520 O.2   121  GLY121     -0.2714
     26  N        144.8140  120.3990   -0.0210 N.am  122  ALA122     -0.1977
     27  CA       146.1610  120.0760    0.4140 C.3   122  ALA122      0.1597
     28  C        146.8570  121.3400    1.0110 C.2   122  ALA122      0.2287
     29  O        147.4220  121.2720    2.0960 O.2   122  ALA122     -0.2864
     30  CB       146.9740  119.5560   -0.7790 C.3   122  ALA122      0.0319
     31  N        142.5400  111.2100    4.5490 N.3   156  TYR156     -0.1227
     32  CA       142.9740  111.7590    3.2820 C.3   156  TYR156      0.1736
     33  C        142.8770  113.2770    3.4110 C.2   156  TYR156      0.2595
     34  O        141.8080  113.7990    3.7950 O.2   156  TYR156     -0.2718
     35  CB       142.0700  111.3410    2.1380 C.3   156  TYR156      0.0548
     36  CG       142.5950  111.8520    0.8060 C.ar  156  TYR156     -0.0200
     37  CD1      143.5620  111.1150    0.1170 C.ar  156  TYR156     -0.0009
     38  CD2      142.1900  113.1010    0.2610 C.ar  156  TYR156     -0.0009
     39  CE1      144.0850  111.5760   -1.0960 C.ar  156  TYR156      0.0417
     40  CE2      142.7230  113.5760   -0.9470 C.ar  156  TYR156      0.0417
     41  CZ       143.6600  112.8030   -1.6200 C.ar  156  TYR156      0.1957
     42  OH       144.1950  113.1770   -2.8120 O.3   156  TYR156     -0.2866
     43  N        143.9790  113.9690    3.1940 N.am  157  TRP157     -0.1962
     44  CA       143.9250  115.4170    3.1540 C.3   157  TRP157      0.1771
     45  C        144.7420  116.0330    2.0200 C.2   157  TRP157      0.2620
     46  O        144.6920  117.2200    1.8060 O.2   157  TRP157     -0.2715
     47  CB       144.3110  115.9590    4.5340 C.3   157  TRP157      0.0590
     48  CG       145.7310  115.7530    5.0290 C.ar  157  TRP157      0.0006
     49  CD1      146.2030  114.7680    5.8580 C.ar  157  TRP157      0.0946
     50  CD2      146.8580  116.6200    4.7670 C.ar  157  TRP157      0.0152
     51  NE1      147.5430  114.9470    6.1090 N.ar  157  TRP157     -0.2442
     52  CE2      147.9680  116.0880    5.4720 C.ar  157  TRP157      0.0810
     53  CE3      147.0260  117.7810    3.9990 C.ar  157  TRP157      0.0012
     54  CZ2      149.2280  116.6780    5.4350 C.ar  157  TRP157      0.0191
     55  CZ3      148.2890  118.3850    3.9720 C.ar  157  TRP157      0.0001
     56  CH2      149.3810  117.8140    4.6720 C.ar  157  TRP157      0.0015
     57  N        145.4440  115.2370    1.2380 N.am  158  GLY158     -0.1954
     58  CA       146.2460  115.7690    0.1420 C.3   158  GLY158      0.1869
     59  C        147.2950  114.8050   -0.3310 C.2   158  GLY158      0.2309
     60  O        147.3540  113.6660    0.1020 O.2   158  GLY158     -0.2863
     61  N        136.4800  119.9480    4.1500 N.3   244  ILE244     -0.1245
     62  CA       136.6450  120.1520    2.7010 C.3   244  ILE244      0.1561
     63  C        135.6550  119.3280    1.8550 C.2   244  ILE244      0.2260
     64  O        135.1600  119.8080    0.8490 O.2   244  ILE244     -0.2867
     65  CB       138.1350  119.9150    2.2940 C.3   244  ILE244      0.0252
     66  CG1      138.9790  121.0390    2.8930 C.3   244  ILE244      0.0019
     67  CG2      138.3410  119.8690    0.8030 C.3   244  ILE244      0.0019
     68  CD1      140.4310  120.7030    3.0720 C.3   244  ILE244      0.0001
     69  N        136.9320  123.9200    1.4930 N.3   270  GLY270     -0.1210
     70  CA       137.4110  123.9730    0.1160 C.3   270  GLY270      0.1956
     71  C        136.3460  123.4740   -0.7980 C.2   270  GLY270      0.2611
     72  O        135.1600  123.5440   -0.4650 O.2   270  GLY270     -0.2717
     73  N        136.7750  122.9380   -1.9380 N.am  271  LYS271     -0.1979
     74  CA       135.9350  122.2610   -2.8850 C.3   271  LYS271      0.1596
     75  C        134.6830  123.0820   -3.2630 C.2   271  LYS271      0.2287
     76  O        134.7880  123.9800   -4.1070 O.2   271  LYS271     -0.2864
     77  CB       135.5990  120.8560   -2.4060 C.3   271  LYS271      0.0298
     78  CG       136.7330  119.8710   -2.6050 C.3   271  LYS271      0.0038
     79  CD       136.3030  118.4700   -2.2900 C.3   271  LYS271      0.0206
     80  CE       137.4870  117.5750   -2.6110 C.3   271  LYS271      0.1093
     81  NZ       137.2040  116.2170   -2.2500 N.3   271  LYS271     -0.1314
     82  N        139.8390  126.6300   -7.8940 N.3   279  PRO279     -0.2102
     83  CA       140.3390  126.1350   -6.6060 C.3   279  PRO279      0.1504
     84  C        140.4770  127.2700   -5.6330 C.2   279  PRO279      0.2575
     85  O        141.2680  128.1940   -5.8810 O.2   279  PRO279     -0.2718
     86  CB       141.7500  125.5870   -6.9250 C.3   279  PRO279      0.0282
     87  CG       141.9460  125.7570   -8.3910 C.3   279  PRO279      0.0208
     88  CD       140.8390  126.5710   -8.9660 C.3   279  PRO279      0.0893
     89  N        139.7550  127.1830   -4.5310 N.am  280  ILE280     -0.1980
     90  CA       139.9640  128.0330   -3.3820 C.3   280  ILE280      0.1595
     91  C        139.6320  127.2680   -2.1130 C.2   280  ILE280      0.2287
     92  O        138.6920  126.5110   -2.0710 O.2   280  ILE280     -0.2864
     93  CB       139.1420  129.3590   -3.4980 C.3   280  ILE280      0.0276
     94  CG1      139.0350  130.1180   -2.1670 C.3   280  ILE280      0.0022
     95  CG2      137.7730  129.1080   -4.0460 C.3   280  ILE280      0.0022
     96  CD1      138.6320  131.6060   -2.3000 C.3   280  ILE280      0.0001
@<TRIPOS>BOND
     1    88    87    1
     2    88    82    1
     3    87    86    1
     4    82    83    1
     5    86    83    1
     6    83    84    1
     7     4     3    2
     8     5     6    1
     9     5     2    1
    10     3     2    1
    11    85    84    2
    12    84    89   am
    13     2     1    1
    14    13    12    2
    15    21    19    1
    16    89    90    1
    17    12    11    1
    18    12    14   am
    19    11     8    1
    20    76    75    2
    21    95    93    1
    22    10     9    2
    23    93    90    1
    24    93    94    1
    25    19    20    1
    26    19    16    1
    27    90    91    1
    28     8     9    1
    29     8     7    1
    30     9    15   am
    31    75    74    1
    32    74    77    1
    33    74    73    1
    34    42    41    1
    35    16    15    1
    36    16    17    1
    37    80    79    1
    38    80    81    1
    39    78    77    1
    40    78    79    1
    41    96    94    1
    42    91    92    2
    43    73    71   am
    44    41    39   ar
    45    41    40   ar
    46    17    22   am
    47    17    18    2
    48    22    23    1
    49    39    37   ar
    50    40    38   ar
    51    71    72    2
    52    71    70    1
    53    30    27    1
    54    59    60    2
    55    59    58    1
    56    26    27    1
    57    26    24   am
    58    23    24    1
    59    70    69    1
    60    37    36   ar
    61    58    57    1
    62    38    36   ar
    63    27    28    1
    64    24    25    2
    65    67    65    1
    66    36    35    1
    67    64    63    2
    68    28    29    2
    69    57    45   am
    70    46    45    2
    71    63    62    1
    72    45    44    1
    73    35    32    1
    74    65    62    1
    75    65    66    1
    76    62    61    1
    77    66    68    1
    78    44    43    1
    79    44    47    1
    80    43    33   am
    81    32    33    1
    82    32    31    1
    83    33    34    2
    84    55    53   ar
    85    55    56   ar
    86    53    50   ar
    87    47    48    1
    88    56    54   ar
    89    50    48   ar
    90    50    52   ar
    91    48    49   ar
    92    54    52   ar
    93    52    51   ar
    94    49    51   ar
