@<TRIPOS>MOLECULE
tmp/5eqcA02.pdb
 85 84 0 0 0
SMALL
GASTEIGER

@<TRIPOS>ATOM
      1  N        132.0360  135.9560    9.2500 N.3   108  GLU108     -0.1231
      2  CA       130.7540  136.1090    9.8360 C.3   108  GLU108      0.1699
      3  C        129.8650  134.8860    9.5720 C.2   108  GLU108      0.2592
      4  O        129.0840  134.5380   10.4010 O.2   108  GLU108     -0.2718
      5  CB       130.0920  137.3690    9.2990 C.3   108  GLU108      0.0402
      6  CG       130.7390  138.6500    9.8370 C.3   108  GLU108      0.1161
      7  CD       130.0640  139.9290    9.2830 C.2   108  GLU108      0.3649
      8  OE1      129.2580  139.8460    8.2910 O.co2 108  GLU108     -0.2457
      9  OE2      130.3900  141.0370    9.7810 O.co2 108  GLU108     -0.2457
     10  N        129.9540  134.2690    8.3970 N.am  109  MET109     -0.1965
     11  CA       129.0940  133.1270    8.0710 C.3   109  MET109      0.1736
     12  C        129.4610  131.9400    8.9650 C.2   109  MET109      0.2616
     13  O        128.5770  131.2540    9.3990 O.2   109  MET109     -0.2715
     14  CB       129.1780  132.7700    6.5880 C.3   109  MET109      0.0427
     15  CG       128.3830  131.5410    6.1450 C.3   109  MET109      0.0599
     16  SD       128.2810  131.5170    4.3520 S.3   109  MET109     -0.1393
     17  CE       127.3060  130.0450    3.9720 C.3   109  MET109      0.0692
     18  N        130.7500  131.7180    9.2230 N.am  110  PHE110     -0.1960
     19  CA       131.2220  130.5570    9.9680 C.3   110  PHE110      0.1771
     20  C        131.5900  130.8330   11.4290 C.2   110  PHE110      0.2620
     21  O        131.8160  129.8830   12.2070 O.2   110  PHE110     -0.2715
     22  CB       132.3790  129.9090    9.1930 C.3   110  PHE110      0.0574
     23  CG       131.9450  129.4210    7.8360 C.ar  110  PHE110     -0.0200
     24  CD1      131.2630  128.2100    7.7020 C.ar  110  PHE110     -0.0042
     25  CD2      132.1440  130.1820    6.7210 C.ar  110  PHE110     -0.0042
     26  CE1      130.8020  127.7900    6.4760 C.ar  110  PHE110     -0.0003
     27  CE2      131.6740  129.7520    5.4820 C.ar  110  PHE110     -0.0003
     28  CZ       130.9970  128.5550    5.3630 C.ar  110  PHE110     -0.0000
     29  N        131.6660  132.1010   11.8130 N.am  111  GLY111     -0.1940
     30  CA       131.9220  132.4930   13.2120 C.3   111  GLY111      0.2014
     31  C        133.3900  132.4250   13.6110 C.2   111  GLY111      0.2638
     32  O        133.7310  131.8360   14.6170 O.2   111  GLY111     -0.2714
     33  N        134.2720  133.0300   12.8450 N.am  112  TYR112     -0.1973
     34  CA       135.7020  132.9710   13.1490 C.3   112  TYR112      0.1639
     35  C        136.3000  134.3500   13.0620 C.2   112  TYR112      0.2290
     36  O        135.8080  135.1610   12.3450 O.2   112  TYR112     -0.2864
     37  CB       136.4310  132.0130   12.1910 C.3   112  TYR112      0.0560
     38  CG       136.1990  130.5750   12.5230 C.ar  112  TYR112     -0.0198
     39  CD1      136.9380  129.9430   13.5050 C.ar  112  TYR112     -0.0009
     40  CD2      135.1890  129.8350   11.8920 C.ar  112  TYR112     -0.0009
     41  CE1      136.7090  128.5970   13.8410 C.ar  112  TYR112      0.0417
     42  CE2      134.9690  128.4850   12.2250 C.ar  112  TYR112      0.0417
     43  CZ       135.7180  127.8800   13.2040 C.ar  112  TYR112      0.1957
     44  OH       135.4720  126.5380   13.5460 O.3   112  TYR112     -0.2866
     45  N        125.2190  123.1610    7.6490 N.3   254  LEU254     -0.1231
     46  CA       126.2020  124.0330    7.0430 C.3   254  LEU254      0.1693
     47  C        127.5840  123.3920    7.1500 C.2   254  LEU254      0.2591
     48  O        128.3280  123.3260    6.1580 O.2   254  LEU254     -0.2718
     49  CB       126.1700  125.4100    7.6910 C.3   254  LEU254      0.0284
     50  CG       127.2120  126.3910    7.1200 C.3   254  LEU254      0.0019
     51  CD1      127.1000  126.4840    5.6090 C.3   254  LEU254      0.0001
     52  CD2      126.9640  127.7550    7.7730 C.3   254  LEU254      0.0001
     53  N        127.8980  122.9360    8.3530 N.am  255  LEU255     -0.1980
     54  CA       129.0860  122.1170    8.6540 C.3   255  LEU255      0.1596
     55  C        128.6600  120.7760    9.2220 C.2   255  LEU255      0.2287
     56  O        127.7630  120.7430   10.0300 O.2   255  LEU255     -0.2864
     57  CB       129.9600  122.8140    9.7160 C.3   255  LEU255      0.0297
     58  CG       130.5290  124.1790    9.3170 C.3   255  LEU255      0.0022
     59  CD1      131.3210  124.7330   10.4610 C.3   255  LEU255      0.0001
     60  CD2      131.4350  124.0560    8.0860 C.3   255  LEU255      0.0001
     61  N        128.3800  120.6200   12.9200 N.3   258  ASP258     -0.1239
     62  CA       127.1970  121.1380   13.5620 C.3   258  ASP258      0.1674
     63  C        126.3230  119.9950   14.1270 C.2   258  ASP258      0.2266
     64  O        125.5380  120.2500   15.0150 O.2   258  ASP258     -0.2867
     65  CB       126.3030  121.9070   12.5730 C.3   258  ASP258      0.1410
     66  CG       126.9300  123.1940   12.0650 C.2   258  ASP258      0.3668
     67  OD1      127.8900  123.6670   12.7020 O.co2 258  ASP258     -0.2456
     68  OD2      126.4200  123.7490   11.0500 O.co2 258  ASP258     -0.2456
     69  N        129.8140  121.0110   17.4360 N.3   262  VAL262     -0.1231
     70  CA       131.2140  121.3400   17.5980 C.3   262  VAL262      0.1692
     71  C        131.5950  122.5740   16.7290 C.2   262  VAL262      0.2592
     72  O        131.3170  122.6180   15.5110 O.2   262  VAL262     -0.2718
     73  CB       132.0710  120.1320   17.2920 C.3   262  VAL262      0.0266
     74  CG1      133.5450  120.5030   17.1970 C.3   262  VAL262      0.0020
     75  CG2      131.8450  119.0810   18.3510 C.3   262  VAL262      0.0020
     76  N        132.2140  123.5550   17.3740 N.am  263  HIS263     -0.1976
     77  CA       132.9120  124.6250   16.7130 C.3   263  HIS263      0.1656
     78  C        134.4550  124.3290   16.6850 C.2   263  HIS263      0.2291
     79  O        135.1300  124.4630   17.6820 O.2   263  HIS263     -0.2864
     80  CB       132.6200  125.9400   17.4210 C.3   263  HIS263      0.0771
     81  CG       133.0470  127.1420   16.6340 C.ar  263  HIS263      0.0820
     82  ND1      134.1620  127.8940   16.9570 N.ar  263  HIS263     -0.2267
     83  CD2      132.5000  127.7270   15.5500 C.ar  263  HIS263      0.1154
     84  CE1      134.2860  128.8890   16.1050 C.ar  263  HIS263      0.1986
     85  NE2      133.2960  128.8010   15.2310 N.ar  263  HIS263     -0.2212
@<TRIPOS>BOND
     1    17    16    1
     2    16    15    1
     3    28    27   ar
     4    28    26   ar
     5    27    25   ar
     6    51    50    1
     7    15    14    1
     8    48    47    2
     9    26    24   ar
    10    14    11    1
    11    25    23   ar
    12    46    47    1
    13    46    45    1
    14    46    49    1
    15    50    49    1
    16    50    52    1
    17    47    53   am
    18    24    23   ar
    19    23    22    1
    20    11    10    1
    21    11    12    1
    22    60    58    1
    23     8     7   ar
    24    53    54    1
    25    10     3   am
    26    54    55    1
    27    54    57    1
    28    12    18   am
    29    12    13    2
    30    22    19    1
    31    55    56    2
    32    18    19    1
    33     1     2    1
    34     7     9   ar
    35     7     6    1
    36     5     2    1
    37     5     6    1
    38    58    57    1
    39    58    59    1
    40     3     2    1
    41     3     4    2
    42    19    20    1
    43    68    66   ar
    44    20    29   am
    45    20    21    2
    46    29    30    1
    47    40    42   ar
    48    40    38   ar
    49    66    65    1
    50    66    67   ar
    51    37    38    1
    52    37    34    1
    53    42    43   ar
    54    36    35    2
    55    38    39   ar
    56    65    62    1
    57    33    34    1
    58    33    31   am
    59    61    62    1
    60    35    34    1
    61    43    44    1
    62    43    41   ar
    63    30    31    1
    64    39    41   ar
    65    62    63    1
    66    31    32    2
    67    63    64    2
    68    85    83   ar
    69    85    84   ar
    70    72    71    2
    71    83    81   ar
    72    84    82   ar
    73    81    82   ar
    74    81    80    1
    75    78    77    1
    76    78    79    2
    77    77    76    1
    78    77    80    1
    79    71    76   am
    80    71    70    1
    81    74    73    1
    82    73    70    1
    83    73    75    1
    84    69    70    1
