@<TRIPOS>MOLECULE
tmp/5eqeA00.pdb
 157 154 0 0 0
SMALL
GASTEIGER

@<TRIPOS>ATOM
      1  N         17.3030   66.2270   63.6840 N.3   202  ASP202     -0.1239
      2  CA        16.8270   67.4890   63.1190 C.3   202  ASP202      0.1674
      3  C         15.3250   67.3490   62.9220 C.2   202  ASP202      0.2266
      4  O         14.7690   67.6910   61.8760 O.2   202  ASP202     -0.2867
      5  CB        17.5140   67.7720   61.7750 C.3   202  ASP202      0.1410
      6  CG        17.1690   69.1570   61.2030 C.2   202  ASP202      0.3668
      7  OD1       16.6440   70.0220   61.9340 O.co2 202  ASP202     -0.2456
      8  OD2       17.4300   69.3810   60.0050 O.co2 202  ASP202     -0.2456
      9  N         12.5650   68.7950   63.1800 N.3   204  GLN204     -0.1245
     10  CA        11.7990   70.0400   63.2270 C.3   204  GLN204      0.1566
     11  C         10.5310   69.9580   62.3520 C.2   204  GLN204      0.2260
     12  O         10.3890   69.0400   61.5340 O.2   204  GLN204     -0.2867
     13  CB        12.6750   71.1980   62.7560 C.3   204  GLN204      0.0367
     14  CG        13.1740   71.0420   61.3310 C.3   204  GLN204      0.0905
     15  CD        12.8640   72.2620   60.4710 C.2   204  GLN204      0.2608
     16  OE1       13.7440   72.7810   59.7830 O.2   204  GLN204     -0.2717
     17  NE2       11.6080   72.7270   60.5100 N.am  204  GLN204     -0.0878
     18  N         10.4330   69.0570   58.6960 N.3   207  ASN207     -0.1240
     19  CA        10.8600   67.7170   58.3300 C.3   207  ASN207      0.1653
     20  C          9.8170   66.6760   58.7270 C.2   207  ASN207      0.2266
     21  O         10.1210   65.4940   58.8270 O.2   207  ASN207     -0.2867
     22  CB        12.2100   67.3960   58.9810 C.3   207  ASN207      0.1155
     23  CG        13.3420   68.2210   58.3980 C.2   207  ASN207      0.2627
     24  OD1       13.2740   68.6520   57.2470 O.2   207  ASN207     -0.2716
     25  ND2       14.3830   68.4510   59.1850 N.am  207  ASN207     -0.0877
     26  N         21.0050   64.4270   58.7980 N.3   229  TYR229     -0.1241
     27  CA        21.8100   64.6130   60.0120 C.3   229  TYR229      0.1605
     28  C         21.7650   63.4040   60.9330 C.2   229  TYR229      0.2264
     29  O         22.4470   63.3560   61.9540 O.2   229  TYR229     -0.2867
     30  CB        21.3340   65.8480   60.7870 C.3   229  TYR229      0.0534
     31  CG        21.4980   67.1500   60.0390 C.ar  229  TYR229     -0.0201
     32  CD1       20.4610   67.6810   59.2890 C.ar  229  TYR229     -0.0009
     33  CD2       22.7020   67.8400   60.0730 C.ar  229  TYR229     -0.0009
     34  CE1       20.6190   68.8630   58.5910 C.ar  229  TYR229      0.0417
     35  CE2       22.8700   69.0270   59.3780 C.ar  229  TYR229      0.0417
     36  CZ        21.8250   69.5320   58.6380 C.ar  229  TYR229      0.1957
     37  OH        22.0060   70.7000   57.9400 O.3   229  TYR229     -0.2866
     38  N         15.9910   68.2020   71.1740 N.3   241  ASN241     -0.1240
     39  CA        16.0910   69.0580   69.9940 C.3   241  ASN241      0.1653
     40  C         14.7030   69.3700   69.4890 C.2   241  ASN241      0.2266
     41  O         14.3980   70.5150   69.1710 O.2   241  ASN241     -0.2867
     42  CB        16.8800   68.3710   68.8810 C.3   241  ASN241      0.1155
     43  CG        16.9100   69.1950   67.6010 C.2   241  ASN241      0.2627
     44  OD1       17.5000   70.2830   67.5510 O.2   241  ASN241     -0.2716
     45  ND2       16.2580   68.6870   66.5620 N.am  241  ASN241     -0.0877
     46  N         12.6180   72.9970   69.0050 N.3   245  GLU245     -0.1245
     47  CA        11.9890   73.4450   67.7750 C.3   245  GLU245      0.1567
     48  C         10.5910   74.0260   67.9440 C.2   245  GLU245      0.2260
     49  O         10.0760   74.6560   67.0200 O.2   245  GLU245     -0.2867
     50  CB        11.9430   72.2990   66.7650 C.3   245  GLU245      0.0388
     51  CG        13.2570   72.0950   66.0630 C.3   245  GLU245      0.1160
     52  CD        13.6410   73.3020   65.2530 C.2   245  GLU245      0.3649
     53  OE1       12.7470   74.1330   64.9750 O.co2 245  GLU245     -0.2457
     54  OE2       14.8280   73.4210   64.8910 O.co2 245  GLU245     -0.2457
     55  N         10.3170   79.3260   61.2260 N.3   250  TYR250     -0.1241
     56  CA        11.1890   79.6860   60.1200 C.3   250  TYR250      0.1605
     57  C         10.3810   80.2200   58.9350 C.2   250  TYR250      0.2264
     58  O         10.9460   80.5600   57.8880 O.2   250  TYR250     -0.2867
     59  CB        12.0190   78.4640   59.6950 C.3   250  TYR250      0.0534
     60  CG        12.8190   77.8470   60.8250 C.ar  250  TYR250     -0.0201
     61  CD1       13.8430   78.5550   61.4460 C.ar  250  TYR250     -0.0009
     62  CD2       12.5430   76.5650   61.2830 C.ar  250  TYR250     -0.0009
     63  CE1       14.5650   78.0090   62.4880 C.ar  250  TYR250      0.0417
     64  CE2       13.2660   76.0060   62.3270 C.ar  250  TYR250      0.0417
     65  CZ        14.2740   76.7370   62.9260 C.ar  250  TYR250      0.1957
     66  OH        14.9860   76.1970   63.9690 O.3   250  TYR250     -0.2866
     67  N         14.2350   86.2800   59.3800 N.3   257  PHE257     -0.1241
     68  CA        13.5340   85.1740   58.7470 C.3   257  PHE257      0.1605
     69  C         13.2640   84.0020   59.6840 C.2   257  PHE257      0.2264
     70  O         13.1320   82.8590   59.2530 O.2   257  PHE257     -0.2867
     71  CB        14.2960   84.7180   57.4940 C.3   257  PHE257      0.0534
     72  CG        14.4250   85.8010   56.4510 C.ar  257  PHE257     -0.0203
     73  CD1       15.6550   86.3730   56.1580 C.ar  257  PHE257     -0.0042
     74  CD2       13.2990   86.2850   55.7990 C.ar  257  PHE257     -0.0042
     75  CE1       15.7560   87.4120   55.2380 C.ar  257  PHE257     -0.0003
     76  CE2       13.3950   87.3220   54.8810 C.ar  257  PHE257     -0.0003
     77  CZ        14.6270   87.8840   54.6040 C.ar  257  PHE257     -0.0000
     78  N         23.3830   73.9470   67.2230 N.3   316  TRP316     -0.1241
     79  CA        22.8400   74.6730   66.0860 C.3   316  TRP316      0.1605
     80  C         23.2300   76.1420   66.1280 C.2   316  TRP316      0.2264
     81  O         23.2830   76.8120   65.0910 O.2   316  TRP316     -0.2867
     82  CB        21.3190   74.5180   66.0230 C.3   316  TRP316      0.0550
     83  CG        20.8860   73.1170   65.7260 C.ar  316  TRP316      0.0003
     84  CD1       20.0400   72.3440   66.4690 C.ar  316  TRP316      0.0946
     85  CD2       21.2980   72.3100   64.6170 C.ar  316  TRP316      0.0152
     86  NE1       19.9030   71.1060   65.8920 N.ar  316  TRP316     -0.2442
     87  CE2       20.6630   71.0590   64.7520 C.ar  316  TRP316      0.0810
     88  CE3       22.1420   72.5220   63.5180 C.ar  316  TRP316      0.0012
     89  CZ2       20.8450   70.0240   63.8350 C.ar  316  TRP316      0.0191
     90  CZ3       22.3240   71.4920   62.6070 C.ar  316  TRP316      0.0001
     91  CH2       21.6770   70.2590   62.7700 C.ar  316  TRP316      0.0015
     92  N         26.6430   75.6960   64.5030 N.3   319  TRP319     -0.1241
     93  CA        26.3040   75.4240   63.1120 C.3   319  TRP319      0.1605
     94  C         25.9530   76.7280   62.4160 C.2   319  TRP319      0.2264
     95  O         26.4320   77.0110   61.3170 O.2   319  TRP319     -0.2867
     96  CB        25.1120   74.4630   63.0480 C.3   319  TRP319      0.0550
     97  CG        24.5650   74.2380   61.6670 C.ar  319  TRP319      0.0003
     98  CD1       24.9680   73.2830   60.7760 C.ar  319  TRP319      0.0946
     99  CD2       23.4670   74.9280   61.0440 C.ar  319  TRP319      0.0152
    100  NE1       24.1880   73.3310   59.6420 N.ar  319  TRP319     -0.2442
    101  CE2       23.2640   74.3320   59.7780 C.ar  319  TRP319      0.0810
    102  CE3       22.6410   75.9890   61.4330 C.ar  319  TRP319      0.0012
    103  CZ2       22.2640   74.7600   58.8990 C.ar  319  TRP319      0.0191
    104  CZ3       21.6480   76.4140   60.5680 C.ar  319  TRP319      0.0001
    105  CH2       21.4690   75.8030   59.3090 C.ar  319  TRP319      0.0015
    106  N         22.4150   81.3890   51.2470 N.3   329  ILE329     -0.1231
    107  CA        20.9820   81.3870   51.5010 C.3   329  ILE329      0.1692
    108  C         20.5860   82.6100   52.3280 C.2   329  ILE329      0.2592
    109  O         21.2670   82.9770   53.2770 O.2   329  ILE329     -0.2718
    110  CB        20.5760   80.0930   52.2400 C.3   329  ILE329      0.0266
    111  CG1       20.9160   78.8880   51.3610 C.3   329  ILE329      0.0019
    112  CG2       19.0900   80.1120   52.5760 C.3   329  ILE329      0.0020
    113  CD1       20.6960   77.5460   52.0210 C.3   329  ILE329      0.0001
    114  N         19.4820   83.2420   51.9610 N.am  330  GLU330     -0.1966
    115  CA        18.9990   84.4050   52.6910 C.3   330  GLU330      0.1733
    116  C         18.3630   83.9780   54.0180 C.2   330  GLU330      0.2616
    117  O         17.2300   83.4990   54.0430 O.2   330  GLU330     -0.2715
    118  CB        17.9700   85.1560   51.8400 C.3   330  GLU330      0.0429
    119  CG        17.4700   86.4610   52.4330 C.3   330  GLU330      0.1163
    120  CD        16.5360   87.2100   51.4910 C.2   330  GLU330      0.3649
    121  OE1       16.3030   88.4210   51.7090 O.co2 330  GLU330     -0.2457
    122  OE2       16.0290   86.5950   50.5260 O.co2 330  GLU330     -0.2457
    123  N         19.1000   84.1480   55.1130 N.am  331  PHE331     -0.1974
    124  CA        18.6240   83.7940   56.4480 C.3   331  PHE331      0.1639
    125  C         19.4950   84.5410   57.4410 C.2   331  PHE331      0.2290
    126  O         20.6980   84.6800   57.2300 O.2   331  PHE331     -0.2864
    127  CB        18.7500   82.2810   56.6910 C.3   331  PHE331      0.0560
    128  CG        18.1980   81.8270   58.0270 C.ar  331  PHE331     -0.0200
    129  CD1       16.8300   81.6730   58.2150 C.ar  331  PHE331     -0.0042
    130  CD2       19.0430   81.5780   59.1010 C.ar  331  PHE331     -0.0042
    131  CE1       16.3130   81.2790   59.4570 C.ar  331  PHE331     -0.0003
    132  CE2       18.5350   81.1830   60.3460 C.ar  331  PHE331     -0.0003
    133  CZ        17.1720   81.0350   60.5210 C.ar  331  PHE331     -0.0000
    134  N         21.5010   84.1270   59.9020 N.3   333  TYR333     -0.1241
    135  CA        22.2140   83.0780   60.6330 C.3   333  TYR333      0.1605
    136  C         22.8720   83.5750   61.9230 C.2   333  TYR333      0.2264
    137  O         22.8510   82.8890   62.9500 O.2   333  TYR333     -0.2867
    138  CB        23.2820   82.4330   59.7450 C.3   333  TYR333      0.0534
    139  CG        22.7390   81.5370   58.6480 C.ar  333  TYR333     -0.0201
    140  CD1       22.1360   80.3230   58.9480 C.ar  333  TYR333     -0.0009
    141  CD2       22.8910   81.8740   57.3120 C.ar  333  TYR333     -0.0009
    142  CE1       21.7120   79.4700   57.9520 C.ar  333  TYR333      0.0417
    143  CE2       22.4700   81.0270   56.3100 C.ar  333  TYR333      0.0417
    144  CZ        21.8830   79.8240   56.6290 C.ar  333  TYR333      0.1957
    145  OH        21.4840   78.9720   55.6150 O.3   333  TYR333     -0.2866
    146  N         20.1540   84.2190   64.4240 N.3   336  TYR336     -0.1241
    147  CA        19.7150   82.9000   64.8670 C.3   336  TYR336      0.1605
    148  C         20.7070   82.2160   65.8150 C.2   336  TYR336      0.2264
    149  O         20.3000   81.4960   66.7300 O.2   336  TYR336     -0.2867
    150  CB        19.4610   82.0050   63.6540 C.3   336  TYR336      0.0534
    151  CG        18.9270   80.6520   64.0220 C.ar  336  TYR336     -0.0201
    152  CD1       17.6210   80.5060   64.4780 C.ar  336  TYR336     -0.0009
    153  CD2       19.7200   79.5130   63.9100 C.ar  336  TYR336     -0.0009
    154  CE1       17.1160   79.2660   64.8130 C.ar  336  TYR336      0.0417
    155  CE2       19.2210   78.2610   64.2410 C.ar  336  TYR336      0.0417
    156  CZ        17.9220   78.1410   64.6910 C.ar  336  TYR336      0.1957
    157  OH        17.4020   76.8960   65.0050 O.3   336  TYR336     -0.2866
@<TRIPOS>BOND
     1   122   120   ar
     2   106   107    1
     3   111   113    1
     4   111   110    1
     5   120   121   ar
     6   120   119    1
     7   107   110    1
     8   107   108    1
     9   118   119    1
    10   118   115    1
    11   114   108   am
    12   114   115    1
    13   110   112    1
    14   108   109    2
    15   115   116    1
    16   116   117    2
    17   116   123   am
    18    77    76   ar
    19    77    75   ar
    20    76    74   ar
    21   123   124    1
    22    75    73   ar
    23   145   144    1
    24    74    72   ar
    25    73    72   ar
    26   143   144   ar
    27   143   141   ar
    28   124   127    1
    29   124   125    1
    30    72    71    1
    31   144   142   ar
    32   127   128    1
    33   126   125    2
    34    24    23    2
    35   141   139   ar
    36    71    68    1
    37    58    57    2
    38    37    36    1
    39   142   140   ar
    40   128   129   ar
    41   128   130   ar
    42   129   131   ar
    43    19    18    1
    44    19    20    1
    45    19    22    1
    46    23    22    1
    47    23    25   am
    48    34    36   ar
    49    34    32   ar
    50    36    35   ar
    51   139   140   ar
    52   139   138    1
    53    20    21    2
    54    68    67    1
    55    68    69    1
    56    26    27    1
    57   103   105   ar
    58   103   101   ar
    59    57    56    1
    60   130   132   ar
    61    70    69    2
    62    32    31   ar
    63   105   104   ar
    64    35    33   ar
    65   131   133   ar
    66   100   101   ar
    67   100    98   ar
    68    59    56    1
    69    59    60    1
    70   138   135    1
    71   101    99   ar
    72    16    15    2
    73   134   135    1
    74     8     6   ar
    75    27    30    1
    76    27    28    1
    77    31    33   ar
    78    31    30    1
    79    56    55    1
    80   132   133   ar
    81    15    17   am
    82    15    14    1
    83   104   102   ar
    84   135   136    1
    85    98    97   ar
    86    60    62   ar
    87    60    61   ar
    88    28    29    2
    89    99   102   ar
    90    99    97   ar
    91     6     5    1
    92     6     7   ar
    93    62    64   ar
    94    95    94    2
    95    14    13    1
    96    61    63   ar
    97    12    11    2
    98    97    96    1
    99     5     2    1
   100     4     3    2
   101   136   137    2
   102    64    65   ar
   103    11    10    1
   104    94    93    1
   105    63    65   ar
   106    90    91   ar
   107    90    88   ar
   108    13    10    1
   109    91    89   ar
   110     3     2    1
   111    65    66    1
   112    96    93    1
   113    93    92    1
   114     2     1    1
   115     9    10    1
   116    88    85   ar
   117   150   151    1
   118   150   147    1
   119    89    87   ar
   120   153   151   ar
   121   153   155   ar
   122   151   152   ar
   123   155   156   ar
   124   146   147    1
   125   152   154   ar
   126    85    87   ar
   127    85    83   ar
   128   156   154   ar
   129   156   157    1
   130    87    86   ar
   131   147   148    1
   132    54    52   ar
   133    53    52   ar
   134    81    80    2
   135    52    51    1
   136    83    82    1
   137    83    84   ar
   138   148   149    2
   139    86    84   ar
   140    82    79    1
   141    51    50    1
   142    79    80    1
   143    79    78    1
   144    45    43   am
   145    50    47    1
   146    49    48    2
   147    44    43    2
   148    43    42    1
   149    47    48    1
   150    47    46    1
   151    42    39    1
   152    41    40    2
   153    40    39    1
   154    39    38    1
