@<TRIPOS>MOLECULE
tmp/5eqfA00.pdb
 189 183 0 0 0
SMALL
GASTEIGER

@<TRIPOS>ATOM
      1  N         62.2150    2.5330   28.0960 N.3    97  PHE97      -0.1241
      2  CA        61.2800    1.7090   28.8460 C.3    97  PHE97       0.1605
      3  C         60.2750    2.6350   29.5060 C.2    97  PHE97       0.2264
      4  O         60.5790    3.8000   29.7060 O.2    97  PHE97      -0.2867
      5  CB        62.0380    0.8750   29.8940 C.3    97  PHE97       0.0534
      6  CG        61.2530   -0.2710   30.4370 C.ar   97  PHE97      -0.0203
      7  CD1       61.1390   -1.4430   29.7130 C.ar   97  PHE97      -0.0042
      8  CD2       60.6050   -0.1680   31.6720 C.ar   97  PHE97      -0.0042
      9  CE1       60.4160   -2.5060   30.2100 C.ar   97  PHE97      -0.0003
     10  CE2       59.8690   -1.2330   32.1750 C.ar   97  PHE97      -0.0003
     11  CZ        59.7860   -2.4120   31.4480 C.ar   97  PHE97      -0.0000
     12  N         49.5090  -12.2060   35.8060 N.3   136  LEU136     -0.1245
     13  CA        50.5450  -11.3030   35.3170 C.3   136  LEU136      0.1561
     14  C         51.0640  -11.6970   33.9390 C.2   136  LEU136      0.2260
     15  O         51.2200  -10.8420   33.0810 O.2   136  LEU136     -0.2867
     16  CB        51.7090  -11.2320   36.3020 C.3   136  LEU136      0.0270
     17  CG        52.7230  -10.0890   36.2120 C.3   136  LEU136      0.0019
     18  CD1       53.4040   -9.9200   37.5810 C.3   136  LEU136      0.0001
     19  CD2       53.7700  -10.3730   35.1570 C.3   136  LEU136      0.0001
     20  N         61.8940   -8.6030   28.9450 N.3   152  PHE152     -0.1227
     21  CA        61.8890   -7.5190   29.9330 C.3   152  PHE152      0.1736
     22  C         61.0100   -7.7560   31.1430 C.2   152  PHE152      0.2595
     23  O         61.1320   -7.0370   32.1370 O.2   152  PHE152     -0.2718
     24  CB        61.4690   -6.1880   29.2860 C.3   152  PHE152      0.0547
     25  CG        62.4400   -5.6960   28.2630 C.ar  152  PHE152     -0.0202
     26  CD1       63.5620   -4.9780   28.6480 C.ar  152  PHE152     -0.0042
     27  CD2       62.2510   -5.9930   26.9040 C.ar  152  PHE152     -0.0042
     28  CE1       64.4790   -4.5410   27.7010 C.ar  152  PHE152     -0.0003
     29  CE2       63.1600   -5.5660   25.9500 C.ar  152  PHE152     -0.0003
     30  CZ        64.2810   -4.8440   26.3450 C.ar  152  PHE152     -0.0000
     31  N         60.1070   -8.7270   31.0740 N.am  153  ILE153     -0.1980
     32  CA        59.2320   -8.9680   32.2230 C.3   153  ILE153      0.1595
     33  C         59.5400  -10.2840   32.9660 C.2   153  ILE153      0.2287
     34  O         59.6720  -10.2800   34.1870 O.2   153  ILE153     -0.2864
     35  CB        57.7240   -8.9850   31.8360 C.3   153  ILE153      0.0276
     36  CG1       57.1290   -7.5990   31.5290 C.3   153  ILE153      0.0022
     37  CG2       56.9060   -9.3740   33.0430 C.3   153  ILE153      0.0022
     38  CD1       58.0370   -6.5100   31.0900 C.3   153  ILE153      0.0001
     39  N         62.8610  -10.3680   35.3210 N.3   156  TYR156     -0.1227
     40  CA        62.7570   -9.3400   36.3660 C.3   156  TYR156      0.1736
     41  C         61.7490   -9.8160   37.4020 C.2   156  TYR156      0.2596
     42  O         62.0300   -9.8450   38.5870 O.2   156  TYR156     -0.2718
     43  CB        62.3340   -7.9920   35.7890 C.3   156  TYR156      0.0548
     44  CG        62.2430   -6.8470   36.8030 C.ar  156  TYR156     -0.0200
     45  CD1       61.1410   -6.7250   37.6410 C.ar  156  TYR156     -0.0009
     46  CD2       63.2320   -5.8750   36.8790 C.ar  156  TYR156     -0.0009
     47  CE1       61.0360   -5.6910   38.5360 C.ar  156  TYR156      0.0417
     48  CE2       63.1420   -4.8280   37.7750 C.ar  156  TYR156      0.0417
     49  CZ        62.0380   -4.7430   38.6000 C.ar  156  TYR156      0.1957
     50  OH        61.9320   -3.7100   39.4920 O.3   156  TYR156     -0.2866
     51  N         60.5800  -10.2080   36.9160 N.am  157  THR157     -0.1953
     52  CA        59.4840  -10.7050   37.7360 C.3   157  THR157      0.1897
     53  C         59.9060  -11.9030   38.5660 C.2   157  THR157      0.2313
     54  O         59.5250  -12.0260   39.7330 O.2   157  THR157     -0.2863
     55  CB        58.2690  -11.0810   36.8320 C.3   157  THR157      0.1794
     56  OG1       57.7040   -9.8750   36.2820 O.3   157  THR157     -0.2208
     57  CG2       57.1830  -11.7860   37.6010 C.3   157  THR157      0.0378
     58  N         61.9750  -10.5610   41.4190 N.3   160  GLN160     -0.1231
     59  CA        61.2290   -9.7030   42.3210 C.3   160  GLN160      0.1698
     60  C         60.1830  -10.4650   43.1240 C.2   160  GLN160      0.2592
     61  O         59.9010  -10.1020   44.2630 O.2   160  GLN160     -0.2718
     62  CB        60.5870   -8.5520   41.5290 C.3   160  GLN160      0.0381
     63  CG        59.5080   -7.7490   42.2690 C.3   160  GLN160      0.0905
     64  CD        59.9570   -7.1390   43.6280 C.2   160  GLN160      0.2608
     65  OE1       61.1440   -7.1050   43.9740 O.2   160  GLN160     -0.2717
     66  NE2       58.9830   -6.6580   44.3920 N.am  160  GLN160     -0.0878
     67  N         59.5980  -11.5100   42.5430 N.am  161  TRP161     -0.1976
     68  CA        58.5100  -12.2220   43.2160 C.3   161  TRP161      0.1640
     69  C         58.8550  -13.6690   43.5400 C.2   161  TRP161      0.2290
     70  O         58.2760  -14.2520   44.4560 O.2   161  TRP161     -0.2864
     71  CB        57.2270  -12.1880   42.3630 C.3   161  TRP161      0.0576
     72  CG        56.7320  -10.7870   42.1020 C.ar  161  TRP161      0.0006
     73  CD1       56.8690  -10.0600   40.9390 C.ar  161  TRP161      0.0946
     74  CD2       56.0440   -9.9360   43.0260 C.ar  161  TRP161      0.0152
     75  NE1       56.3200   -8.8150   41.0990 N.ar  161  TRP161     -0.2442
     76  CE2       55.8100   -8.7100   42.3700 C.ar  161  TRP161      0.0810
     77  CE3       55.6030  -10.0920   44.3480 C.ar  161  TRP161      0.0012
     78  CZ2       55.1490   -7.6480   42.9850 C.ar  161  TRP161      0.0191
     79  CZ3       54.9600   -9.0340   44.9640 C.ar  161  TRP161      0.0001
     80  CH2       54.7260   -7.8250   44.2700 C.ar  161  TRP161      0.0015
     81  N         49.6700   -6.1640   38.6890 N.3   172  ASN172     -0.1225
     82  CA        51.0800   -5.8080   38.8630 C.3   172  ASN172      0.1785
     83  C         51.6820   -5.2190   37.5940 C.2   172  ASN172      0.2597
     84  O         52.4260   -4.2490   37.6530 O.2   172  ASN172     -0.2718
     85  CB        51.8990   -7.0230   39.3050 C.3   172  ASN172      0.1169
     86  CG        51.6140   -7.4170   40.7450 C.2   172  ASN172      0.2627
     87  OD1       50.6110   -7.0060   41.3260 O.2   172  ASN172     -0.2716
     88  ND2       52.4900   -8.2280   41.3190 N.am  172  ASN172     -0.0877
     89  N         51.3420   -5.7860   36.4390 N.am  173  ILE173     -0.1980
     90  CA        51.9390   -5.3110   35.1990 C.3   173  ILE173      0.1595
     91  C         51.1890   -4.0800   34.6510 C.2   173  ILE173      0.2287
     92  O         51.7750   -3.2400   33.9710 O.2   173  ILE173     -0.2864
     93  CB        52.0100   -6.4390   34.1160 C.3   173  ILE173      0.0276
     94  CG1       53.0080   -6.0710   33.0120 C.3   173  ILE173      0.0022
     95  CG2       50.6380   -6.7790   33.5370 C.3   173  ILE173      0.0022
     96  CD1       54.4370   -5.9620   33.5300 C.3   173  ILE173      0.0001
     97  N         50.3500   -1.5880   36.2310 N.3   175  ARG175     -0.1231
     98  CA        50.9430   -0.4010   36.8610 C.3   175  ARG175      0.1694
     99  C         51.7380    0.4220   35.8420 C.2   175  ARG175      0.2591
    100  O         51.8460    1.6530   35.9620 O.2   175  ARG175     -0.2718
    101  CB        51.8740   -0.8100   38.0270 C.3   175  ARG175      0.0321
    102  CG        51.1350   -1.3740   39.2550 C.3   175  ARG175      0.0489
    103  CD        52.0900   -2.0390   40.2560 C.3   175  ARG175      0.2205
    104  NE        53.1800   -1.1570   40.6470 N.pl3 175  ARG175     -0.0865
    105  CZ        53.0680   -0.2550   41.6210 C.cat 175  ARG175      0.5346
    106  NH1       51.9210   -0.1170   42.2570 N.pl3 175  ARG175      0.1354
    107  NH2       54.0870    0.5210   41.9540 N.pl3 175  ARG175      0.1354
    108  N         52.2970   -0.2810   34.8520 N.am  176  LEU176     -0.1980
    109  CA        53.1570    0.3180   33.8510 C.3   176  LEU176      0.1596
    110  C         52.3380    0.7920   32.6470 C.2   176  LEU176      0.2287
    111  O         51.5140    0.0400   32.1190 O.2   176  LEU176     -0.2864
    112  CB        54.2230   -0.6880   33.4060 C.3   176  LEU176      0.0297
    113  CG        55.4590   -0.9670   34.2980 C.3   176  LEU176      0.0022
    114  CD1       55.1270   -1.5210   35.6900 C.3   176  LEU176      0.0001
    115  CD2       56.4270   -1.9200   33.5790 C.3   176  LEU176      0.0001
    116  N         57.5910    7.0630   33.2430 N.3   186  TYR186     -0.1241
    117  CA        57.2750    5.7920   33.8790 C.3   186  TYR186      0.1605
    118  C         55.8780    5.8270   34.4900 C.2   186  TYR186      0.2264
    119  O         55.2450    4.7970   34.6560 O.2   186  TYR186     -0.2867
    120  CB        58.3360    5.4420   34.9540 C.3   186  TYR186      0.0534
    121  CG        58.3770    3.9700   35.2790 C.ar  186  TYR186     -0.0201
    122  CD1       58.8190    3.0590   34.3290 C.ar  186  TYR186     -0.0009
    123  CD2       58.0080    3.4880   36.5410 C.ar  186  TYR186     -0.0009
    124  CE1       58.8770    1.6990   34.6080 C.ar  186  TYR186      0.0417
    125  CE2       58.0630    2.1200   36.8300 C.ar  186  TYR186      0.0417
    126  CZ        58.5050    1.2370   35.8540 C.ar  186  TYR186      0.1957
    127  OH        58.5570   -0.1150   36.0950 O.3   186  TYR186     -0.2866
    128  N         66.9440   -0.4650   35.6950 N.3   277  ASN277     -0.1240
    129  CA        66.4520   -1.8230   35.9540 C.3   277  ASN277      0.1653
    130  C         67.4160   -2.8310   35.3750 C.2   277  ASN277      0.2266
    131  O         68.0130   -2.5760   34.3370 O.2   277  ASN277     -0.2867
    132  CB        65.0580   -2.0590   35.3650 C.3   277  ASN277      0.1155
    133  CG        63.9500   -1.4640   36.2160 C.2   277  ASN277      0.2627
    134  OD1       64.2180   -0.7550   37.1740 O.2   277  ASN277     -0.2716
    135  ND2       62.6940   -1.7200   35.8410 N.am  277  ASN277     -0.0877
    136  N         67.1330   -6.3470   34.0540 N.3   279  ASN279     -0.1240
    137  CA        66.1230   -7.2920   33.6170 C.3   279  ASN279      0.1653
    138  C         66.6630   -8.6920   33.3870 C.2   279  ASN279      0.2266
    139  O         65.8920   -9.6130   33.1180 O.2   279  ASN279     -0.2867
    140  CB        65.4640   -6.7690   32.3270 C.3   279  ASN279      0.1155
    141  CG        64.7280   -5.4670   32.5540 C.2   279  ASN279      0.2627
    142  OD1       65.3500   -4.4230   32.7750 O.2   279  ASN279     -0.2716
    143  ND2       63.3940   -5.5240   32.5470 N.am  279  ASN279     -0.0877
    144  N         67.3180   -3.7900   40.4860 N.3   287  ARG287     -0.1245
    145  CA        67.5930   -2.4480   39.9680 C.3   287  ARG287      0.1563
    146  C         68.6560   -1.7300   40.8060 C.2   287  ARG287      0.2260
    147  O         68.9900   -2.1590   41.9010 O.2   287  ARG287     -0.2867
    148  CB        66.3060   -1.6030   39.9190 C.3   287  ARG287      0.0307
    149  CG        65.5630   -1.4550   41.2540 C.3   287  ARG287      0.0489
    150  CD        64.2190   -0.7450   41.0950 C.3   287  ARG287      0.2205
    151  NE        63.3760   -0.9080   42.2850 N.pl3 287  ARG287     -0.0865
    152  CZ        62.0480   -0.8000   42.2920 C.cat 287  ARG287      0.5346
    153  NH1       61.3600   -0.4920   41.1730 N.pl3 287  ARG287      0.1354
    154  NH2       61.4000   -0.9760   43.4300 N.pl3 287  ARG287      0.1354
    155  N         55.9800   -5.9970   50.1810 N.3   325  TYR325     -0.1241
    156  CA        54.9740   -6.2190   49.1310 C.3   325  TYR325      0.1605
    157  C         54.0810   -7.4030   49.4520 C.2   325  TYR325      0.2264
    158  O         54.5730   -8.4560   49.8340 O.2   325  TYR325     -0.2867
    159  CB        55.6050   -6.5210   47.7770 C.3   325  TYR325      0.0534
    160  CG        56.5620   -5.5270   47.1710 C.ar  325  TYR325     -0.0201
    161  CD1       57.8560   -5.3900   47.6550 C.ar  325  TYR325     -0.0009
    162  CD2       56.2030   -4.8030   46.0450 C.ar  325  TYR325     -0.0009
    163  CE1       58.7360   -4.5150   47.0780 C.ar  325  TYR325      0.0417
    164  CE2       57.0750   -3.9300   45.4600 C.ar  325  TYR325      0.0417
    165  CZ        58.3380   -3.7990   45.9670 C.ar  325  TYR325      0.1957
    166  OH        59.1970   -2.9270   45.3720 O.3   325  TYR325     -0.2866
    167  N         49.0640   -0.2900   53.1760 N.3   357  ARG357     -0.1245
    168  CA        49.6310   -1.3850   52.3780 C.3   357  ARG357      0.1563
    169  C         49.6600   -2.6780   53.1840 C.2   357  ARG357      0.2260
    170  O         49.2550   -3.7260   52.6910 O.2   357  ARG357     -0.2867
    171  CB        51.0500   -1.0170   51.8700 C.3   357  ARG357      0.0307
    172  CG        51.7970   -2.1900   51.2620 C.3   357  ARG357      0.0489
    173  CD        53.1810   -1.8920   50.6500 C.3   357  ARG357      0.2205
    174  NE        53.0920   -1.2430   49.3410 N.pl3 357  ARG357     -0.0865
    175  CZ        54.0360   -1.2590   48.3960 C.cat 357  ARG357      0.5346
    176  NH1       55.1610   -1.9420   48.5510 N.pl3 357  ARG357      0.1354
    177  NH2       53.8320   -0.6080   47.2590 N.pl3 357  ARG357      0.1354
    178  N         48.7280   -3.6120   47.2200 N.3   363  TYR363     -0.1241
    179  CA        49.9010   -3.0940   46.5380 C.3   363  TYR363      0.1605
    180  C         49.6560   -1.5970   46.2860 C.2   363  TYR363      0.2264
    181  O         49.3800   -1.1760   45.1650 O.2   363  TYR363     -0.2867
    182  CB        50.1300   -3.9000   45.2360 C.3   363  TYR363      0.0534
    183  CG        51.4570   -3.7140   44.5000 C.ar  363  TYR363     -0.0201
    184  CD1       52.3150   -2.6590   44.7890 C.ar  363  TYR363     -0.0009
    185  CD2       51.8440   -4.6100   43.5130 C.ar  363  TYR363     -0.0009
    186  CE1       53.5080   -2.4890   44.1000 C.ar  363  TYR363      0.0417
    187  CE2       53.0350   -4.4500   42.8180 C.ar  363  TYR363      0.0417
    188  CZ        53.8610   -3.3870   43.1120 C.ar  363  TYR363      0.1957
    189  OH        55.0500   -3.2360   42.4220 O.3   363  TYR363     -0.2866
@<TRIPOS>BOND
     1    29    30   ar
     2    29    27   ar
     3    30    28   ar
     4    27    25   ar
     5    28    26   ar
     6     1     2    1
     7    25    26   ar
     8    25    24    1
     9     2     3    1
    10     2     5    1
    11    20    21    1
    12    24    21    1
    13     3     4    2
    14     7     9   ar
    15     7     6   ar
    16     5     6    1
    17    21    22    1
    18     9    11   ar
    19     6     8   ar
    20    31    22   am
    21    31    32    1
    22    38    36    1
    23    22    23    2
    24    11    10   ar
    25    36    35    1
    26     8    10   ar
    27    35    32    1
    28    35    37    1
    29   111   110    2
    30    32    33    1
    31   140   141    1
    32   140   137    1
    33   143   141   am
    34   141   142    2
    35   110   109    1
    36    33    34    2
    37    94    96    1
    38    94    93    1
    39    15    14    2
    40   139   138    2
    41   116   117    1
    42   138   137    1
    43   112   109    1
    44   112   113    1
    45    95    93    1
    46   115   113    1
    47   137   136    1
    48   109   108    1
    49   117   118    1
    50   117   120    1
    51    14    13    1
    52    92    91    2
    53    93    90    1
    54   113   114    1
    55   122   124   ar
    56   122   121   ar
    57   131   130    2
    58   118   119    2
    59   124   126   ar
    60    91    90    1
    61   108    99   am
    62   120   121    1
    63    19    17    1
    64    90    89    1
    65   121   123   ar
    66    13    12    1
    67    13    16    1
    68    39    40    1
    69   132   129    1
    70   132   133    1
    71   130   129    1
    72   128   129    1
    73    43    40    1
    74    43    44    1
    75   135   133   am
    76    99   100    2
    77    99    98    1
    78   126   127    1
    79   126   125   ar
    80    17    16    1
    81    17    18    1
    82   133   134    2
    83    97    98    1
    84    56    55    1
    85    40    41    1
    86    89    83   am
    87   123   125   ar
    88    44    46   ar
    89    44    45   ar
    90    55    57    1
    91    55    52    1
    92    98   101    1
    93    46    48   ar
    94    51    41   am
    95    51    52    1
    96    41    42    2
    97    83    84    2
    98    83    82    1
    99    45    47   ar
   100    52    53    1
   101    48    49   ar
   102   101   102    1
   103    47    49   ar
   104    53    54    2
   105    49    50    1
   106    81    82    1
   107    82    85    1
   108   102   103    1
   109    85    86    1
   110   148   145    1
   111   148   149    1
   112   145   144    1
   113   145   146    1
   114   103   104    1
   115   104   105    2
   116    86    88   am
   117    86    87    2
   118   146   147    2
   119    73    75   ar
   120    73    72   ar
   121   150   149    1
   122   150   151    1
   123    75    76   ar
   124   153   152    1
   125    58    59    1
   126    62    63    1
   127    62    59    1
   128   105   107    1
   129   105   106    1
   130    72    71    1
   131    72    74   ar
   132    63    64    1
   133   151   152    2
   134   152   154    1
   135    59    60    1
   136    71    68    1
   137    76    78   ar
   138    76    74   ar
   139   189   188    1
   140    67    60   am
   141    67    68    1
   142   187   188   ar
   143   187   185   ar
   144    78    80   ar
   145    74    77   ar
   146   188   186   ar
   147    60    61    2
   148    68    69    1
   149   185   183   ar
   150    69    70    2
   151    64    65    2
   152    64    66   am
   153   186   184   ar
   154    80    79   ar
   155    77    79   ar
   156   183   184   ar
   157   183   182    1
   158   181   180    2
   159   182   179    1
   160   166   165    1
   161   164   165   ar
   162   164   162   ar
   163   165   163   ar
   164   162   160   ar
   165   180   179    1
   166   179   178    1
   167   163   161   ar
   168   160   161   ar
   169   160   159    1
   170   177   175    1
   171   159   156    1
   172   175   176    1
   173   175   174    2
   174   156   157    1
   175   156   155    1
   176   174   173    1
   177   157   158    2
   178   173   172    1
   179   172   171    1
   180   171   168    1
   181   168   167    1
   182   168   169    1
   183   170   169    2
