@<TRIPOS>MOLECULE
tmp/5eqgA00.pdb
 229 218 0 0 0
SMALL
GASTEIGER

@<TRIPOS>ATOM
      1  N        574.0450  -32.7280  278.8290 N.3    18  PHE18      -0.1241
      2  CA       575.4020  -32.3490  278.4460 C.3    18  PHE18       0.1605
      3  C        576.3980  -33.4260  278.8580 C.2    18  PHE18       0.2264
      4  O        577.2260  -33.8670  278.0520 O.2    18  PHE18      -0.2867
      5  CB       575.7690  -31.0040  279.0790 C.3    18  PHE18       0.0534
      6  CG       577.0350  -30.3970  278.5320 C.ar   18  PHE18      -0.0203
      7  CD1      578.2730  -30.9340  278.8480 C.ar   18  PHE18      -0.0042
      8  CD2      576.9870  -29.2830  277.7110 C.ar   18  PHE18      -0.0042
      9  CE1      579.4340  -30.3790  278.3490 C.ar   18  PHE18      -0.0003
     10  CE2      578.1490  -28.7240  277.2100 C.ar   18  PHE18      -0.0003
     11  CZ       579.3720  -29.2730  277.5300 C.ar   18  PHE18      -0.0000
     12  N        578.3880  -36.3690  276.5610 N.3    22  THR22      -0.1218
     13  CA       579.8450  -36.3020  276.5400 C.3    22  THR22       0.1862
     14  C        580.4770  -37.6840  276.6650 C.2    22  THR22       0.2287
     15  O        581.5940  -37.8950  276.1790 O.2    22  THR22      -0.2866
     16  CB       580.3430  -35.3850  277.6630 C.3    22  THR22       0.1770
     17  OG1      579.8550  -34.0540  277.4480 O.3    22  THR22      -0.2211
     18  CG2      581.8720  -35.3490  277.7190 C.3    22  THR22       0.0375
     19  N        577.7660  -22.6970  271.4580 N.3    72  SER72      -0.1217
     20  CA       578.2210  -21.6630  272.3810 C.3    72  SER72       0.1889
     21  C        578.3320  -20.3030  271.7030 C.2    72  SER72       0.2288
     22  O        578.2530  -19.2750  272.3840 O.2    72  SER72      -0.2866
     23  CB       579.5680  -22.0600  272.9930 C.3    72  SER72       0.2089
     24  OG       579.4220  -23.1590  273.8750 O.3    72  SER72      -0.2183
     25  N        574.5240  -18.6290  271.7410 N.3    75  VAL75      -0.1245
     26  CA       573.7580  -18.4720  272.9780 C.3    75  VAL75       0.1561
     27  C        573.0520  -17.1210  273.0040 C.2    75  VAL75       0.2260
     28  O        571.8290  -17.0430  273.1690 O.2    75  VAL75      -0.2867
     29  CB       574.6650  -18.6650  274.2100 C.3    75  VAL75       0.0252
     30  CG1      575.0710  -20.1230  274.3430 C.3    75  VAL75       0.0019
     31  CG2      575.9080  -17.7730  274.1500 C.3    75  VAL75       0.0019
     32  N        575.1960  -25.0480  277.6270 N.3   129  THR129     -0.1203
     33  CA       576.1950  -24.5770  278.5780 C.3   129  THR129      0.1994
     34  C        576.1060  -23.0750  278.8200 C.2   129  THR129      0.2618
     35  O        576.7910  -22.5700  279.7160 O.2   129  THR129     -0.2717
     36  CB       577.6020  -24.9490  278.0930 C.3   129  THR129      0.1784
     37  OG1      578.5430  -24.7660  279.1580 O.3   129  THR129     -0.2211
     38  CG2      578.0130  -24.1060  276.8920 C.3   129  THR129      0.0376
     39  N        575.2920  -22.3550  278.0500 N.am  130  GLY130     -0.1956
     40  CA       575.1130  -20.9290  278.2390 C.3   130  GLY130      0.1869
     41  C        573.7240  -20.5800  278.7300 C.2   130  GLY130      0.2309
     42  O        573.5260  -19.5430  279.3690 O.2   130  GLY130     -0.2863
     43  N        573.5450  -21.9800  283.0520 N.3   133  PRO133     -0.2116
     44  CA       574.1920  -21.0900  284.0310 C.3   133  PRO133      0.1372
     45  C        573.5450  -19.7190  284.0950 C.2   133  PRO133      0.2244
     46  O        573.4110  -19.1440  285.1820 O.2   133  PRO133     -0.2868
     47  CB       575.6430  -21.0130  283.5330 C.3   133  PRO133      0.0268
     48  CG       575.8140  -22.1870  282.6410 C.3   133  PRO133      0.0207
     49  CD       574.4870  -22.3990  281.9990 C.3   133  PRO133      0.0892
     50  N        575.1980  -26.9640  287.6240 N.3   152  HIS152     -0.1226
     51  CA       575.6420  -27.1510  286.2470 C.3   152  HIS152      0.1752
     52  C        576.7990  -28.1400  286.1860 C.2   152  HIS152      0.2595
     53  O        576.7840  -29.0850  285.3890 O.2   152  HIS152     -0.2718
     54  CB       576.0460  -25.8110  285.6320 C.3   152  HIS152      0.0759
     55  CG       576.2710  -25.8700  284.1530 C.ar  152  HIS152      0.0818
     56  ND1      575.3140  -26.3290  283.2740 N.ar  152  HIS152     -0.2268
     57  CD2      577.3430  -25.5320  283.3980 C.ar  152  HIS152      0.1154
     58  CE1      575.7850  -26.2700  282.0420 C.ar  152  HIS152      0.1986
     59  NE2      577.0150  -25.7890  282.0890 N.ar  152  HIS152     -0.2212
     60  N        577.8150  -27.9380  287.0300 N.am  153  GLN153     -0.1979
     61  CA       578.9260  -28.8820  287.0880 C.3   153  GLN153      0.1601
     62  C        578.4390  -30.2710  287.4780 C.2   153  GLN153      0.2287
     63  O        578.7990  -31.2690  286.8440 O.2   153  GLN153     -0.2864
     64  CB       579.9870  -28.3890  288.0740 C.3   153  GLN153      0.0394
     65  CG       580.6830  -27.1010  287.6610 C.3   153  GLN153      0.0908
     66  CD       580.1190  -25.8810  288.3630 C.2   153  GLN153      0.2608
     67  OE1      580.3650  -25.6670  289.5510 O.2   153  GLN153     -0.2717
     68  NE2      579.3570  -25.0740  287.6320 N.am  153  GLN153     -0.0878
     69  N        576.6700  -32.1360  284.7510 N.3   156  ILE156     -0.1231
     70  CA       577.6250  -32.6080  283.7540 C.3   156  ILE156      0.1692
     71  C        578.3140  -33.8780  284.2410 C.2   156  ILE156      0.2591
     72  O        578.3490  -34.8960  283.5400 O.2   156  ILE156     -0.2718
     73  CB       578.6390  -31.4970  283.4200 C.3   156  ILE156      0.0266
     74  CG1      578.0110  -30.5110  282.4290 C.3   156  ILE156      0.0019
     75  CG2      579.9520  -32.0840  282.8720 C.3   156  ILE156      0.0020
     76  CD1      578.9120  -29.3560  282.0210 C.3   156  ILE156      0.0001
     77  N        578.8710  -33.8390  285.4520 N.am  157  VAL157     -0.1980
     78  CA       579.6410  -34.9770  285.9450 C.3   157  VAL157      0.1595
     79  C        578.7290  -36.1750  286.1850 C.2   157  VAL157      0.2287
     80  O        579.0490  -37.3050  285.7970 O.2   157  VAL157     -0.2864
     81  CB       580.4160  -34.5900  287.2170 C.3   157  VAL157      0.0276
     82  CG1      581.2920  -35.7380  287.6650 C.3   157  VAL157      0.0022
     83  CG2      581.2750  -33.3580  286.9670 C.3   157  VAL157      0.0022
     84  N        577.7980  -37.7950  282.9250 N.3   160  ILE160     -0.1245
     85  CA       578.8450  -38.6860  282.4340 C.3   160  ILE160      0.1561
     86  C        578.7390  -40.0460  283.1110 C.2   160  ILE160      0.2260
     87  O        578.8350  -41.0920  282.4590 O.2   160  ILE160     -0.2867
     88  CB       580.2320  -38.0500  282.6520 C.3   160  ILE160      0.0252
     89  CG1      580.3730  -36.7870  281.7980 C.3   160  ILE160      0.0019
     90  CG2      581.3460  -39.0440  282.3170 C.3   160  ILE160      0.0019
     91  CD1      581.6360  -35.9880  282.0670 C.3   160  ILE160      0.0001
     92  N        593.0040  -26.9300  279.9600 N.3   274  GLN274     -0.1231
     93  CA       591.9500  -27.8330  280.4060 C.3   274  GLN274      0.1698
     94  C        591.7580  -28.9900  279.4350 C.2   274  GLN274      0.2592
     95  O        591.6400  -30.1450  279.8580 O.2   274  GLN274     -0.2718
     96  CB       590.6370  -27.0640  280.5770 C.3   274  GLN274      0.0381
     97  CG       589.4290  -27.9450  280.8940 C.3   274  GLN274      0.0905
     98  CD       588.1370  -27.1580  280.9940 C.2   274  GLN274      0.2608
     99  OE1      587.3650  -27.0900  280.0390 O.2   274  GLN274     -0.2717
    100  NE2      587.8930  -26.5630  282.1550 N.am  274  GLN274     -0.0878
    101  N        591.7290  -28.7050  278.1350 N.am  275  GLN275     -0.1979
    102  CA       591.4140  -29.7210  277.1390 C.3   275  GLN275      0.1601
    103  C        592.6400  -30.4950  276.6700 C.2   275  GLN275      0.2287
    104  O        592.5620  -31.7130  276.4820 O.2   275  GLN275     -0.2864
    105  CB       590.7270  -29.0680  275.9390 C.3   275  GLN275      0.0394
    106  CG       589.3530  -28.5090  276.2500 C.3   275  GLN275      0.0908
    107  CD       588.4220  -29.5570  276.8150 C.2   275  GLN275      0.2608
    108  OE1      588.2000  -30.5980  276.1990 O.2   275  GLN275     -0.2717
    109  NE2      587.8850  -29.2980  278.0010 N.am  275  GLN275     -0.0878
    110  N        591.8710  -34.9600  279.6600 N.3   279  ILE279     -0.1231
    111  CA       590.8370  -35.6750  280.4040 C.3   279  ILE279      0.1692
    112  C        589.8440  -36.3050  279.4430 C.2   279  ILE279      0.2592
    113  O        589.4260  -37.4530  279.6270 O.2   279  ILE279     -0.2718
    114  CB       590.1090  -34.7790  281.4270 C.3   279  ILE279      0.0266
    115  CG1      590.3850  -33.2840  281.2390 C.3   279  ILE279      0.0019
    116  CG2      590.4270  -35.2280  282.8430 C.3   279  ILE279      0.0020
    117  CD1      589.7500  -32.6780  279.9960 C.3   279  ILE279      0.0001
    118  N        589.4530  -35.5740  278.4010 N.am  280  ASN280     -0.1974
    119  CA       588.5900  -36.1570  277.3880 C.3   280  ASN280      0.1688
    120  C        589.2830  -37.2780  276.6290 C.2   280  ASN280      0.2292
    121  O        588.6340  -37.9640  275.8310 O.2   280  ASN280     -0.2864
    122  CB       588.1090  -35.0620  276.4370 C.3   280  ASN280      0.1181
    123  CG       587.1830  -34.0690  277.1190 C.2   280  ASN280      0.2629
    124  OD1      587.4050  -32.8600  277.0660 O.2   280  ASN280     -0.2716
    125  ND2      586.1450  -34.5790  277.7740 N.am  280  ASN280     -0.0877
    126  N        587.6350  -39.5980  279.2190 N.3   283  PHE283     -0.1241
    127  CA       586.1810  -39.5370  279.1950 C.3   283  PHE283      0.1605
    128  C        585.5980  -39.8500  277.8240 C.2   283  PHE283      0.2264
    129  O        584.3750  -39.9920  277.7110 O.2   283  PHE283     -0.2867
    130  CB       585.7090  -38.1640  279.6760 C.3   283  PHE283      0.0534
    131  CG       585.8650  -37.9620  281.1570 C.ar  283  PHE283     -0.0203
    132  CD1      585.3670  -38.8960  282.0520 C.ar  283  PHE283     -0.0042
    133  CD2      586.5260  -36.8540  281.6540 C.ar  283  PHE283     -0.0042
    134  CE1      585.5130  -38.7210  283.4120 C.ar  283  PHE283     -0.0003
    135  CE2      586.6750  -36.6740  283.0140 C.ar  283  PHE283     -0.0003
    136  CZ       586.1670  -37.6110  283.8940 C.ar  283  PHE283     -0.0000
    137  N        585.2410  -38.9470  289.4270 N.3   309  ASN309     -0.1240
    138  CA       585.0130  -37.5880  288.9470 C.3   309  ASN309      0.1653
    139  C        583.9050  -36.9060  289.7420 C.2   309  ASN309      0.2266
    140  O        584.0440  -35.7490  290.1550 O.2   309  ASN309     -0.2867
    141  CB       584.6750  -37.6160  287.4570 C.3   309  ASN309      0.1155
    142  CG       585.0600  -36.3310  286.7500 C.2   309  ASN309      0.2627
    143  OD1      584.2020  -35.5750  286.2950 O.2   309  ASN309     -0.2716
    144  ND2      586.3600  -36.0750  286.6620 N.am  309  ASN309     -0.0877
    145  N        592.4600  -33.4410  288.0470 N.3   371  PHE371     -0.1227
    146  CA       591.8680  -32.5010  287.1020 C.3   371  PHE371      0.1736
    147  C        590.6960  -31.7570  287.7280 C.2   371  PHE371      0.2595
    148  O        590.5400  -30.5460  287.5280 O.2   371  PHE371     -0.2718
    149  CB       591.4080  -33.2250  285.8390 C.3   371  PHE371      0.0547
    150  CG       590.4870  -32.4030  284.9830 C.ar  371  PHE371     -0.0202
    151  CD1      590.9850  -31.3940  284.1750 C.ar  371  PHE371     -0.0042
    152  CD2      589.1210  -32.6300  284.9990 C.ar  371  PHE371     -0.0042
    153  CE1      590.1370  -30.6300  283.3950 C.ar  371  PHE371     -0.0003
    154  CE2      588.2690  -31.8730  284.2170 C.ar  371  PHE371     -0.0003
    155  CZ       588.7770  -30.8730  283.4140 C.ar  371  PHE371     -0.0000
    156  N        589.8610  -32.4650  288.4890 N.am  372  GLU372     -0.1979
    157  CA       588.6290  -31.8840  289.0030 C.3   372  GLU372      0.1602
    158  C        588.8710  -30.8240  290.0690 C.2   372  GLU372      0.2287
    159  O        587.9310  -30.1000  290.4180 O.2   372  GLU372     -0.2864
    160  CB       587.7340  -32.9900  289.5620 C.3   372  GLU372      0.0415
    161  CG       586.2530  -32.6580  289.5450 C.3   372  GLU372      0.1163
    162  CD       585.6930  -32.5460  288.1390 C.2   372  GLU372      0.3649
    163  OE1      586.4580  -32.7500  287.1720 O.co2 372  GLU372     -0.2457
    164  OE2      584.4850  -32.2590  288.0010 O.co2 372  GLU372     -0.2457
    165  N        590.1240  -28.0580  285.8430 N.3   376  GLY376     -0.1225
    166  CA       588.7100  -28.1300  285.5580 C.3   376  GLY376      0.1811
    167  C        587.9970  -26.8080  285.7600 C.2   376  GLY376      0.2280
    168  O        587.6290  -26.1210  284.8020 O.2   376  GLY376     -0.2866
    169  N        587.6390  -21.0930  284.5200 N.3   380  TRP380     -0.1241
    170  CA       586.4630  -20.2330  284.5490 C.3   380  TRP380      0.1605
    171  C        586.4730  -19.2660  285.7230 C.2   380  TRP380      0.2264
    172  O        585.9530  -18.1500  285.6020 O.2   380  TRP380     -0.2867
    173  CB       585.1980  -21.0900  284.5920 C.3   380  TRP380      0.0550
    174  CG       585.1370  -22.0190  283.4380 C.ar  380  TRP380      0.0003
    175  CD1      585.2640  -23.3770  283.4660 C.ar  380  TRP380      0.0946
    176  CD2      584.9730  -21.6580  282.0640 C.ar  380  TRP380      0.0152
    177  NE1      585.1730  -23.8850  282.1940 N.ar  380  TRP380     -0.2442
    178  CE2      584.9940  -22.8480  281.3150 C.ar  380  TRP380      0.0810
    179  CE3      584.8020  -20.4420  281.3940 C.ar  380  TRP380      0.0012
    180  CZ2      584.8500  -22.8610  279.9330 C.ar  380  TRP380      0.0191
    181  CZ3      584.6580  -20.4570  280.0190 C.ar  380  TRP380      0.0001
    182  CH2      584.6830  -21.6590  279.3030 C.ar  380  TRP380      0.0015
    183  N        584.4030  -14.4920  277.4080 N.3   396  ILE396     -0.1231
    184  CA       583.7620  -15.7980  277.5550 C.3   396  ILE396      0.1692
    185  C        583.6310  -16.4780  276.1970 C.2   396  ILE396      0.2591
    186  O        583.9810  -17.6530  276.0340 O.2   396  ILE396     -0.2718
    187  CB       582.3940  -15.6480  278.2480 C.3   396  ILE396      0.0266
    188  CG1      582.5600  -15.1090  279.6770 C.3   396  ILE396      0.0019
    189  CG2      581.6340  -16.9720  278.2640 C.3   396  ILE396      0.0020
    190  CD1      583.3800  -15.9870  280.6060 C.3   396  ILE396      0.0001
    191  N        583.1210  -15.7490  275.2020 N.am  397  ALA397     -0.1980
    192  CA       582.9380  -16.3330  273.8770 C.3   397  ALA397      0.1597
    193  C        584.2550  -16.8490  273.3120 C.2   397  ALA397      0.2287
    194  O        584.3100  -17.9500  272.7500 O.2   397  ALA397     -0.2864
    195  CB       582.3170  -15.3030  272.9340 C.3   397  ALA397      0.0319
    196  N        585.4200  -19.7960  275.2070 N.3   400  GLY400     -0.1225
    197  CA       584.6020  -20.9220  274.7940 C.3   400  GLY400      0.1811
    198  C        585.0420  -21.5110  273.4690 C.2   400  GLY400      0.2280
    199  O        585.1210  -22.7340  273.3190 O.2   400  GLY400     -0.2866
    200  N        588.0080  -23.5410  274.1890 N.3   403  ASN403     -0.1225
    201  CA       587.6980  -24.8010  274.8530 C.3   403  ASN403      0.1785
    202  C        587.1970  -25.8400  273.8570 C.2   403  ASN403      0.2597
    203  O        587.6580  -26.9860  273.8500 O.2   403  ASN403     -0.2718
    204  CB       586.6600  -24.5660  275.9480 C.3   403  ASN403      0.1169
    205  CG       586.5550  -25.7300  276.9050 C.2   403  ASN403      0.2627
    206  OD1      586.0460  -26.7960  276.5550 O.2   403  ASN403     -0.2716
    207  ND2      587.0360  -25.5320  278.1260 N.am  403  ASN403     -0.0877
    208  N        586.2440  -25.4570  273.0060 N.am  404  TRP404     -0.1976
    209  CA       585.7100  -26.4030  272.0320 C.3   404  TRP404      0.1640
    210  C        586.7740  -26.8260  271.0270 C.2   404  TRP404      0.2290
    211  O        586.7970  -27.9830  270.5900 O.2   404  TRP404     -0.2864
    212  CB       584.5100  -25.7940  271.3100 C.3   404  TRP404      0.0576
    213  CG       583.2420  -25.8130  272.1080 C.ar  404  TRP404      0.0006
    214  CD1      582.4680  -24.7400  272.4340 C.ar  404  TRP404      0.0946
    215  CD2      582.6010  -26.9600  272.6830 C.ar  404  TRP404      0.0152
    216  NE1      581.3750  -25.1470  273.1570 N.ar  404  TRP404     -0.2442
    217  CE2      581.4390  -26.5040  273.3350 C.ar  404  TRP404      0.0810
    218  CE3      582.8970  -28.3270  272.7090 C.ar  404  TRP404      0.0012
    219  CZ2      580.5740  -27.3630  274.0080 C.ar  404  TRP404      0.0191
    220  CZ3      582.0360  -29.1790  273.3760 C.ar  404  TRP404      0.0001
    221  CH2      580.8880  -28.6940  274.0160 C.ar  404  TRP404      0.0015
    222  N        589.1820  -29.1240  272.6300 N.3   407  ASN407     -0.1240
    223  CA       588.4130  -30.3460  272.8440 C.3   407  ASN407      0.1653
    224  C        588.3100  -31.1530  271.5560 C.2   407  ASN407      0.2266
    225  O        588.3940  -32.3870  271.5790 O.2   407  ASN407     -0.2867
    226  CB       587.0230  -30.0000  273.3770 C.3   407  ASN407      0.1155
    227  CG       586.2470  -31.2240  273.8240 C.2   407  ASN407      0.2627
    228  OD1      585.6360  -31.9170  273.0130 O.2   407  ASN407     -0.2716
    229  ND2      586.2590  -31.4910  275.1240 N.am  407  ASN407     -0.0877
@<TRIPOS>BOND
     1   211   210    2
     2   210   209    1
     3   212   209    1
     4   212   213    1
     5    19    20    1
     6   224   225    2
     7   224   223    1
     8    21    20    1
     9    21    22    2
    10    25    26    1
    11   209   208    1
    12   213   214   ar
    13   213   215   ar
    14    20    23    1
    15   214   216   ar
    16   222   223    1
    17   215   218   ar
    18   215   217   ar
    19   218   220   ar
    20   194   193    2
    21   223   226    1
    22   195   192    1
    23    26    27    1
    24    26    29    1
    25    23    24    1
    26    27    28    2
    27   208   202   am
    28   228   227    2
    29   216   217   ar
    30   193   192    1
    31   199   198    2
    32   217   219   ar
    33   220   221   ar
    34   226   227    1
    35   198   197    1
    36   227   229   am
    37   203   202    2
    38   202   201    1
    39   192   191    1
    40   219   221   ar
    41    31    29    1
    42   200   201    1
    43    29    30    1
    44   197   196    1
    45   201   204    1
    46   191   185   am
    47   121   120    2
    48   105   106    1
    49   105   102    1
    50   204   205    1
    51   186   185    2
    52    15    14    2
    53   185   184    1
    54   108   107    2
    55   106   107    1
    56   122   123    1
    57   122   119    1
    58   104   103    2
    59    13    12    1
    60    13    14    1
    61    13    16    1
    62   206   205    2
    63   120   119    1
    64   103   102    1
    65   107   109   am
    66    38    36    1
    67   205   207   am
    68   124   123    2
    69   123   125   am
    70   102   101    1
    71    10    11   ar
    72    10     8   ar
    73   119   118    1
    74   183   184    1
    75    17    16    1
    76    11     9   ar
    77   184   187    1
    78    32    33    1
    79    16    18    1
    80   129   128    2
    81     8     6   ar
    82   128   127    1
    83    39    40    1
    84    39    34   am
    85     4     3    2
    86    36    33    1
    87    36    37    1
    88   101    94   am
    89    40    41    1
    90   187   189    1
    91   187   188    1
    92     9     7   ar
    93   118   112   am
    94     2     1    1
    95     2     3    1
    96     2     5    1
    97     6     7   ar
    98     6     5    1
    99    33    34    1
   100    41    42    2
   101    34    35    2
   102   127   126    1
   103   127   130    1
   104   182   180   ar
   105   182   181   ar
   106    94    95    2
   107    94    93    1
   108   112   113    2
   109   112   111    1
   110   110   111    1
   111   130   131    1
   112   188   190    1
   113   180   178   ar
   114    92    93    1
   115   117   115    1
   116   181   179   ar
   117    99    98    2
   118   111   114    1
   119    93    96    1
   120    96    97    1
   121    97    98    1
   122    98   100   am
   123   131   133   ar
   124   131   132   ar
   125   115   114    1
   126   178   176   ar
   127   178   177   ar
   128   179   176   ar
   129   114   116    1
   130   133   135   ar
   131    89    91    1
   132    89    88    1
   133    49    48    1
   134    49    43    1
   135    76    74    1
   136    58    59   ar
   137    58    56   ar
   138   132   134   ar
   139   176   174   ar
   140    59    57   ar
   141   177   175   ar
   142    90    88    1
   143    74    73    1
   144    85    88    1
   145    85    84    1
   146    85    86    1
   147    87    86    2
   148    48    47    1
   149    75    73    1
   150   135   136   ar
   151    43    44    1
   152    56    55   ar
   153   153   155   ar
   154   153   151   ar
   155    57    55   ar
   156   134   136   ar
   157   155   154   ar
   158    73    70    1
   159   174   175   ar
   160   174   173    1
   161    47    44    1
   162    72    71    2
   163    70    71    1
   164    70    69    1
   165    44    45    1
   166    45    46    2
   167    55    54    1
   168   151   150   ar
   169   154   152   ar
   170    71    77   am
   171   169   170    1
   172   170   173    1
   173   170   171    1
   174   168   167    2
   175   150   152   ar
   176   150   149    1
   177    53    52    2
   178    77    78    1
   179   166   167    1
   180   166   165    1
   181   172   171    2
   182    54    51    1
   183    80    79    2
   184   149   146    1
   185    78    79    1
   186    78    81    1
   187    52    51    1
   188    52    60   am
   189    51    50    1
   190   143   142    2
   191   144   142   am
   192   142   141    1
   193    63    62    2
   194    83    81    1
   195    60    61    1
   196    61    62    1
   197    61    64    1
   198   146   147    1
   199   146   145    1
   200   163   162   ar
   201    81    82    1
   202   141   138    1
   203   148   147    2
   204    68    66   am
   205    65    64    1
   206    65    66    1
   207   147   156   am
   208   164   162   ar
   209   162   161    1
   210    66    67    2
   211   156   157    1
   212   138   137    1
   213   138   139    1
   214   157   160    1
   215   157   158    1
   216   161   160    1
   217   139   140    2
   218   158   159    2
