@<TRIPOS>MOLECULE
tmp/5eqhA00.pdb
 226 217 0 0 0
SMALL
GASTEIGER

@<TRIPOS>ATOM
      1  N        -48.3320    5.5390    9.9990 N.3    18  PHE18      -0.1241
      2  CA       -46.9930    5.9180    9.5610 C.3    18  PHE18       0.1605
      3  C        -45.9690    4.8800   10.0000 C.2    18  PHE18       0.2264
      4  O        -45.1390    4.4300    9.2010 O.2    18  PHE18      -0.2867
      5  CB       -46.6350    7.3000   10.1120 C.3    18  PHE18       0.0534
      6  CG       -45.2850    7.8020    9.6730 C.ar   18  PHE18      -0.0203
      7  CD1      -44.1440    7.4870   10.3930 C.ar   18  PHE18      -0.0042
      8  CD2      -45.1590    8.5970    8.5470 C.ar   18  PHE18      -0.0042
      9  CE1      -42.9000    7.9500    9.9930 C.ar   18  PHE18      -0.0003
     10  CE2      -43.9170    9.0620    8.1400 C.ar   18  PHE18      -0.0003
     11  CZ       -42.7890    8.7370    8.8660 C.ar   18  PHE18      -0.0000
     12  N        -44.4430   15.6960    2.5910 N.3    72  SER72      -0.1217
     13  CA       -43.9960   16.7260    3.5190 C.3    72  SER72       0.1889
     14  C        -43.7990   18.0670    2.8280 C.2    72  SER72       0.2288
     15  O        -43.7760   19.1010    3.5030 O.2    72  SER72      -0.2866
     16  CB       -42.7090   16.2880    4.2150 C.3    72  SER72       0.2089
     17  OG       -42.9720   15.2640    5.1580 O.3    72  SER72      -0.2183
     18  N        -47.6420   19.5510    2.8890 N.3    75  VAL75      -0.1245
     19  CA       -48.3750   19.7050    4.1450 C.3    75  VAL75       0.1561
     20  C        -49.0190   21.0850    4.2160 C.2    75  VAL75       0.2260
     21  O        -50.2140   21.2180    4.5040 O.2    75  VAL75      -0.2867
     22  CB       -47.4480   19.4520    5.3510 C.3    75  VAL75       0.0252
     23  CG1      -47.0530   17.9930    5.4140 C.3    75  VAL75       0.0019
     24  CG2      -46.1970   20.3290    5.2900 C.3    75  VAL75       0.0019
     25  N        -46.9680   13.2570    8.8860 N.3   129  THR129     -0.1203
     26  CA       -46.0050   13.7990    9.8370 C.3   129  THR129      0.1994
     27  C        -45.9950   15.3130    9.8640 C.2   129  THR129      0.2618
     28  O        -45.1440   15.8930   10.5500 O.2   129  THR129     -0.2717
     29  CB       -44.6090   13.2730    9.5130 C.3   129  THR129      0.1784
     30  OG1      -44.3390   13.4630    8.1180 O.3   129  THR129     -0.2211
     31  CG2      -44.5190   11.7980    9.8510 C.3   129  THR129      0.0376
     32  N        -46.8990   15.9590    9.1340 N.am  130  GLY130     -0.1956
     33  CA       -47.0780   17.3920    9.2300 C.3   130  GLY130      0.1869
     34  C        -48.4410   17.7190    9.8010 C.2   130  GLY130      0.2309
     35  O        -48.6120   18.7190   10.5030 O.2   130  GLY130     -0.2863
     36  N        -48.5510   16.2290   14.1060 N.3   133  PRO133     -0.2116
     37  CA       -47.8530   17.0700   15.0900 C.3   133  PRO133      0.1372
     38  C        -48.4550   18.4540   15.1890 C.2   133  PRO133      0.2244
     39  O        -48.4290   19.0700   16.2610 O.2   133  PRO133     -0.2868
     40  CB       -46.4100   17.1160   14.5620 C.3   133  PRO133      0.0268
     41  CG       -46.3100   15.9950   13.5750 C.3   133  PRO133      0.0207
     42  CD       -47.6720   15.8780   12.9770 C.3   133  PRO133      0.0892
     43  N        -47.1550   11.1470   18.7500 N.3   152  HIS152     -0.1226
     44  CA       -46.7690   10.9400   17.3590 C.3   152  HIS152      0.1752
     45  C        -45.5910    9.9800   17.2610 C.2   152  HIS152      0.2595
     46  O        -45.6400    8.9950   16.5160 O.2   152  HIS152     -0.2718
     47  CB       -46.4280   12.2720   16.6940 C.3   152  HIS152      0.0759
     48  CG       -46.1090   12.1500   15.2360 C.ar  152  HIS152      0.0818
     49  ND1      -47.0640   11.8440   14.2890 N.ar  152  HIS152     -0.2268
     50  CD2      -44.9420   12.2820   14.5630 C.ar  152  HIS152      0.1154
     51  CE1      -46.4990   11.8000   13.0960 C.ar  152  HIS152      0.1986
     52  NE2      -45.2120   12.0620   13.2340 N.ar  152  HIS152     -0.2212
     53  N        -44.5190   10.2480   18.0110 N.am  153  GLN153     -0.1979
     54  CA       -43.3660    9.3540   17.9920 C.3   153  GLN153      0.1601
     55  C        -43.7680    7.9450   18.4060 C.2   153  GLN153      0.2287
     56  O        -43.4210    6.9650   17.7360 O.2   153  GLN153     -0.2864
     57  CB       -42.2630    9.8890   18.9070 C.3   153  GLN153      0.0394
     58  CG       -41.7510   11.2650   18.5240 C.3   153  GLN153      0.0908
     59  CD       -42.4090   12.3720   19.3240 C.2   153  GLN153      0.2608
     60  OE1      -42.1380   12.5390   20.5130 O.2   153  GLN153     -0.2717
     61  NE2      -43.2810   13.1330   18.6750 N.am  153  GLN153     -0.0878
     62  N        -45.2340    6.0200   15.7150 N.3   156  ILE156     -0.1231
     63  CA       -44.2870    5.5040   14.7320 C.3   156  ILE156      0.1692
     64  C        -43.6930    4.1840   15.2080 C.2   156  ILE156      0.2591
     65  O        -43.6690    3.1920   14.4690 O.2   156  ILE156     -0.2718
     66  CB       -43.1880    6.5450   14.4500 C.3   156  ILE156      0.0266
     67  CG1      -43.8120    7.8350   13.9120 C.3   156  ILE156      0.0019
     68  CG2      -42.1590    5.9850   13.4660 C.3   156  ILE156      0.0020
     69  CD1      -42.8230    8.9670   13.7030 C.3   156  ILE156      0.0001
     70  N        -43.2080    4.1460   16.4480 N.am  157  VAL157     -0.1980
     71  CA       -42.5040    2.9580   16.9200 C.3   157  VAL157      0.1595
     72  C        -43.4830    1.8050   17.1220 C.2   157  VAL157      0.2287
     73  O        -43.2340    0.6750   16.6850 O.2   157  VAL157     -0.2864
     74  CB       -41.7230    3.2670   18.2100 C.3   157  VAL157      0.0276
     75  CG1      -40.7790    2.1140   18.5250 C.3   157  VAL157      0.0022
     76  CG2      -40.9430    4.5720   18.0780 C.3   157  VAL157      0.0022
     77  N        -44.4360    0.3990   13.7990 N.3   160  ILE160     -0.1245
     78  CA       -43.4050   -0.5160   13.3220 C.3   160  ILE160      0.1561
     79  C        -43.5620   -1.8770   13.9830 C.2   160  ILE160      0.2260
     80  O        -43.4870   -2.9200   13.3230 O.2   160  ILE160     -0.2867
     81  CB       -42.0080    0.0790   13.5860 C.3   160  ILE160      0.0252
     82  CG1      -41.7880    1.3240   12.7240 C.3   160  ILE160      0.0019
     83  CG2      -40.9160   -0.9540   13.3170 C.3   160  ILE160      0.0019
     84  CD1      -40.6290    2.1740   13.1840 C.3   160  ILE160      0.0001
     85  N        -29.3440   11.1320   11.1620 N.3   274  GLN274     -0.1231
     86  CA       -30.4280   10.2590   11.5960 C.3   274  GLN274      0.1698
     87  C        -30.6100    9.0860   10.6410 C.2   274  GLN274      0.2592
     88  O        -30.8970    7.9660   11.0770 O.2   274  GLN274     -0.2718
     89  CB       -31.7330   11.0530   11.7080 C.3   274  GLN274      0.0381
     90  CG       -32.9600   10.1930   12.0110 C.3   274  GLN274      0.0905
     91  CD       -34.2330   11.0040   12.1370 C.2   274  GLN274      0.2608
     92  OE1      -35.0560   11.0320   11.2220 O.2   274  GLN274     -0.2717
     93  NE2      -34.4080   11.6620   13.2780 N.am  274  GLN274     -0.0878
     94  N        -30.4400    9.3230    9.3400 N.am  275  GLN275     -0.1979
     95  CA       -30.6740    8.2970    8.3320 C.3   275  GLN275      0.1601
     96  C        -29.3950    7.5610    7.9470 C.2   275  GLN275      0.2287
     97  O        -29.3490    6.3280    7.9970 O.2   275  GLN275     -0.2864
     98  CB       -31.3100    8.9270    7.0930 C.3   275  GLN275      0.0394
     99  CG       -32.6420    9.5800    7.3700 C.3   275  GLN275      0.0908
    100  CD       -33.6480    8.6020    7.9410 C.2   275  GLN275      0.2608
    101  OE1      -33.7020    7.4420    7.5330 O.2   275  GLN275     -0.2717
    102  NE2      -34.4400    9.0600    8.9030 N.am  275  GLN275     -0.0878
    103  N        -30.4150    3.1430   10.6680 N.3   279  ILE279     -0.1231
    104  CA       -31.4530    2.4500   11.4340 C.3   279  ILE279      0.1692
    105  C        -32.4820    1.8520   10.4910 C.2   279  ILE279      0.2592
    106  O        -33.0220    0.7710   10.7490 O.2   279  ILE279     -0.2718
    107  CB       -32.1350    3.3630   12.4740 C.3   279  ILE279      0.0266
    108  CG1      -31.9230    4.8530   12.1840 C.3   279  ILE279      0.0019
    109  CG2      -31.6840    2.9940   13.8770 C.3   279  ILE279      0.0020
    110  CD1      -32.6410    5.3430   10.9450 C.3   279  ILE279      0.0001
    111  N        -32.7690    2.5350    9.3860 N.am  280  ASN280     -0.1974
    112  CA       -33.6470    1.9590    8.3870 C.3   280  ASN280      0.1688
    113  C        -32.9650    0.8350    7.6250 C.2   280  ASN280      0.2292
    114  O        -33.6270    0.1570    6.8330 O.2   280  ASN280     -0.2864
    115  CB       -34.1410    3.0550    7.4440 C.3   280  ASN280      0.1181
    116  CG       -35.1890    3.9410    8.0920 C.2   280  ASN280      0.2629
    117  OD1      -35.0420    5.1620    8.1430 O.2   280  ASN280     -0.2716
    118  ND2      -36.2520    3.3230    8.6050 N.am  280  ASN280     -0.0877
    119  N        -34.7290   -1.3140   10.4380 N.3   283  PHE283     -0.1241
    120  CA       -36.1850   -1.2850   10.3750 C.3   283  PHE283      0.1605
    121  C        -36.7330   -1.6220    8.9950 C.2   283  PHE283      0.2264
    122  O        -37.9550   -1.7470    8.8500 O.2   283  PHE283     -0.2867
    123  CB       -36.6880    0.0860   10.8220 C.3   283  PHE283      0.0534
    124  CG       -36.4350    0.3670   12.2730 C.ar  283  PHE283     -0.0203
    125  CD1      -37.1140   -0.3360   13.2500 C.ar  283  PHE283     -0.0042
    126  CD2      -35.5150    1.3250   12.6610 C.ar  283  PHE283     -0.0042
    127  CE1      -36.8830   -0.0890   14.5850 C.ar  283  PHE283     -0.0003
    128  CE2      -35.2800    1.5760   13.9970 C.ar  283  PHE283     -0.0003
    129  CZ       -35.9660    0.8660   14.9580 C.ar  283  PHE283     -0.0000
    130  N        -36.8380   -0.7830   20.5460 N.3   309  ASN309     -0.1240
    131  CA       -37.0200    0.5780   20.0560 C.3   309  ASN309      0.1653
    132  C        -38.1670    1.2690   20.7810 C.2   309  ASN309      0.2266
    133  O        -38.0670    2.4490   21.1370 O.2   309  ASN309     -0.2867
    134  CB       -37.2690    0.5590   18.5490 C.3   309  ASN309      0.1155
    135  CG       -36.9900    1.8950   17.8990 C.2   309  ASN309      0.2627
    136  OD1      -37.8960    2.5640   17.4050 O.2   309  ASN309     -0.2716
    137  ND2      -35.7250    2.2950   17.9020 N.am  309  ASN309     -0.0877
    138  N        -29.9980    4.6910   19.2110 N.3   371  PHE371     -0.1227
    139  CA       -30.5630    5.6310   18.2500 C.3   371  PHE371      0.1736
    140  C        -31.7470    6.3810   18.8440 C.2   371  PHE371      0.2595
    141  O        -31.9200    7.5800   18.6010 O.2   371  PHE371     -0.2718
    142  CB       -30.9920    4.8930   16.9840 C.3   371  PHE371      0.0547
    143  CG       -31.9270    5.6840   16.1200 C.ar  371  PHE371     -0.0202
    144  CD1      -31.4390    6.6340   15.2400 C.ar  371  PHE371     -0.0042
    145  CD2      -33.2950    5.4840   16.1930 C.ar  371  PHE371     -0.0042
    146  CE1      -32.2940    7.3720   14.4500 C.ar  371  PHE371     -0.0003
    147  CE2      -34.1580    6.2140   15.4040 C.ar  371  PHE371     -0.0003
    148  CZ       -33.6570    7.1590   14.5280 C.ar  371  PHE371     -0.0000
    149  N        -32.5720    5.6890   19.6280 N.am  372  GLU372     -0.1979
    150  CA       -33.8100    6.2670   20.1290 C.3   372  GLU372      0.1602
    151  C        -33.5860    7.3040   21.2210 C.2   372  GLU372      0.2287
    152  O        -34.5260    8.0310   21.5600 O.2   372  GLU372     -0.2864
    153  CB       -34.7100    5.1540   20.6510 C.3   372  GLU372      0.0415
    154  CG       -36.1670    5.4980   20.6380 C.3   372  GLU372      0.1163
    155  CD       -36.7460    5.5740   19.2310 C.2   372  GLU372      0.3649
    156  OE1      -35.9760    5.4970   18.2510 O.co2 372  GLU372     -0.2457
    157  OE2      -37.9820    5.7090   19.1120 O.co2 372  GLU372     -0.2457
    158  N        -32.2580   10.1320   17.0880 N.3   376  GLY376     -0.1210
    159  CA       -33.6540    9.9850   16.7590 C.3   376  GLY376      0.1940
    160  C        -34.4330   11.2560   17.0190 C.2   376  GLY376      0.2453
    161  O        -34.9330   11.9070   16.0960 O.2   376  GLY376     -0.2732
    162  N        -34.5530   11.6350   18.2930 N.am  377  PRO377     -0.2728
    163  CA       -35.3380   12.8270   18.6440 C.3   377  PRO377      0.1401
    164  C        -34.5590   14.1290   18.5260 C.2   377  PRO377      0.2269
    165  O        -35.1140   15.1510   18.1190 O.2   377  PRO377     -0.2865
    166  CB       -35.7410   12.5540   20.0990 C.3   377  PRO377      0.0296
    167  CG       -34.6290   11.7200   20.6310 C.3   377  PRO377      0.0237
    168  CD       -34.1620   10.8620   19.4840 C.3   377  PRO377      0.0939
    169  N        -34.7330   16.9830   15.8970 N.3   380  TRP380     -0.1241
    170  CA       -35.9130   17.8380   15.9060 C.3   380  TRP380      0.1605
    171  C        -35.9480   18.7930   17.0880 C.2   380  TRP380      0.2264
    172  O        -36.6860   19.7830   17.0420 O.2   380  TRP380     -0.2867
    173  CB       -37.1850   16.9860   15.9040 C.3   380  TRP380      0.0550
    174  CG       -37.2250   16.0630   14.7420 C.ar  380  TRP380      0.0003
    175  CD1      -37.3170   14.7050   14.7720 C.ar  380  TRP380      0.0946
    176  CD2      -37.1420   16.4320   13.3630 C.ar  380  TRP380      0.0152
    177  NE1      -37.3070   14.2030   13.4940 N.ar  380  TRP380     -0.2442
    178  CE2      -37.1990   15.2450   12.6100 C.ar  380  TRP380      0.0810
    179  CE3      -37.0290   17.6520   12.6910 C.ar  380  TRP380      0.0012
    180  CZ2      -37.1490   15.2430   11.2220 C.ar  380  TRP380      0.0191
    181  CZ3      -36.9810   17.6470   11.3140 C.ar  380  TRP380      0.0001
    182  CH2      -37.0360   16.4530   10.5950 C.ar  380  TRP380      0.0015
    183  N        -35.7870   23.2360   15.3210 N.3   384  ALA384     -0.1245
    184  CA       -36.7920   24.1680   15.8140 C.3   384  ALA384      0.1562
    185  C        -36.1980   25.1840   16.7770 C.2   384  ALA384      0.2260
    186  O        -36.7710   26.2650   16.9530 O.2   384  ALA384     -0.2867
    187  CB       -37.9270   23.4050   16.4990 C.3   384  ALA384      0.0290
    188  N        -37.9350   23.4650    8.3940 N.3   396  ILE396     -0.1231
    189  CA       -38.5590   22.1460    8.4490 C.3   396  ILE396      0.1692
    190  C        -38.6250   21.5430    7.0520 C.2   396  ILE396      0.2591
    191  O        -38.2680   20.3780    6.8410 O.2   396  ILE396     -0.2718
    192  CB       -39.9560   22.2410    9.0930 C.3   396  ILE396      0.0266
    193  CG1      -39.8740   22.9310   10.4620 C.3   396  ILE396      0.0019
    194  CG2      -40.5850   20.8580    9.2290 C.3   396  ILE396      0.0020
    195  CD1      -38.9250   22.2660   11.4530 C.3   396  ILE396      0.0001
    196  N        -39.0640   22.3360    6.0720 N.am  397  ALA397     -0.1980
    197  CA       -39.2170   21.8250    4.7130 C.3   397  ALA397      0.1597
    198  C        -37.8930   21.3100    4.1640 C.2   397  ALA397      0.2287
    199  O        -37.8520   20.2680    3.4980 O.2   397  ALA397     -0.2864
    200  CB       -39.7870   22.9150    3.8040 C.3   397  ALA397      0.0319
    201  N        -37.0410   18.2540    6.1130 N.3   400  GLY400     -0.1225
    202  CA       -37.8640   17.1870    5.5670 C.3   400  GLY400      0.1811
    203  C        -37.2690   16.6030    4.3020 C.2   400  GLY400      0.2280
    204  O        -37.1030   15.3870    4.1790 O.2   400  GLY400     -0.2866
    205  N        -34.2630   14.7080    5.2530 N.3   403  ASN403     -0.1225
    206  CA       -34.5330   13.4470    5.9340 C.3   403  ASN403      0.1785
    207  C        -34.9950   12.3770    4.9520 C.2   403  ASN403      0.2597
    208  O        -34.4880   11.2500    4.9660 O.2   403  ASN403     -0.2718
    209  CB       -35.5860   13.6660    7.0200 C.3   403  ASN403      0.1169
    210  CG       -35.7020   12.4910    7.9640 C.2   403  ASN403      0.2627
    211  OD1      -36.2150   11.4340    7.5990 O.2   403  ASN403     -0.2716
    212  ND2      -35.2350   12.6750    9.1930 N.am  403  ASN403     -0.0877
    213  N        -35.9600   12.7120    4.0920 N.am  404  TRP404     -0.1976
    214  CA       -36.4620   11.7390    3.1290 C.3   404  TRP404      0.1640
    215  C        -35.3910   11.3650    2.1120 C.2   404  TRP404      0.2290
    216  O        -35.3010   10.2040    1.6990 O.2   404  TRP404     -0.2864
    217  CB       -37.7030   12.2880    2.4250 C.3   404  TRP404      0.0576
    218  CG       -38.9220   12.3390    3.3050 C.ar  404  TRP404      0.0006
    219  CD1      -39.5500   13.4570    3.7770 C.ar  404  TRP404      0.0946
    220  CD2      -39.6560   11.2200    3.8180 C.ar  404  TRP404      0.0152
    221  NE1      -40.6310   13.1020    4.5500 N.ar  404  TRP404     -0.2442
    222  CE2      -40.7160   11.7350    4.5920 C.ar  404  TRP404      0.0810
    223  CE3      -39.5210    9.8340    3.6980 C.ar  404  TRP404      0.0012
    224  CZ2      -41.6340   10.9120    5.2390 C.ar  404  TRP404      0.0191
    225  CZ3      -40.4320    9.0200    4.3430 C.ar  404  TRP404      0.0001
    226  CH2      -41.4740    9.5610    5.1040 C.ar  404  TRP404      0.0015
@<TRIPOS>BOND
     1   216   215    2
     2   215   214    1
     3   217   214    1
     4   217   218    1
     5    12    13    1
     6    14    15    2
     7    14    13    1
     8    18    19    1
     9   214   213    1
    10   218   219   ar
    11   218   220   ar
    12   199   198    2
    13    13    16    1
    14   223   220   ar
    15   223   225   ar
    16   219   221   ar
    17   200   197    1
    18   220   222   ar
    19   213   207   am
    20    19    20    1
    21    19    22    1
    22   198   197    1
    23   204   203    2
    24    16    17    1
    25    20    21    2
    26   203   202    1
    27   225   226   ar
    28   221   222   ar
    29   222   224   ar
    30   197   196    1
    31   207   208    2
    32   207   206    1
    33   226   224   ar
    34   205   206    1
    35    24    22    1
    36    22    23    1
    37   202   201    1
    38   206   209    1
    39   196   190   am
    40   114   113    2
    41   191   190    2
    42   209   210    1
    43   190   189    1
    44    98    99    1
    45    98    95    1
    46    99   100    1
    47   115   116    1
    48   115   112    1
    49   101   100    2
    50   211   210    2
    51   113   112    1
    52   100   102   am
    53    96    97    2
    54    96    95    1
    55   210   212   am
    56   116   117    2
    57   116   118   am
    58    30    29    1
    59    10     8   ar
    60    10    11   ar
    61    95    94    1
    62   112   111    1
    63   188   189    1
    64   189   192    1
    65     8     6   ar
    66   122   121    2
    67    11     9   ar
    68    25    26    1
    69   121   120    1
    70   192   194    1
    71   192   193    1
    72    32    33    1
    73    32    27   am
    74     4     3    2
    75    33    34    1
    76    94    87   am
    77   111   105   am
    78    29    26    1
    79    29    31    1
    80     2     1    1
    81     2     3    1
    82     2     5    1
    83     6     5    1
    84     6     7   ar
    85    34    35    2
    86    26    27    1
    87    27    28    2
    88     9     7   ar
    89   120   119    1
    90   120   123    1
    91   193   195    1
    92   105   106    2
    93   105   104    1
    94   182   180   ar
    95   182   181   ar
    96    87    88    2
    97    87    86    1
    98   103   104    1
    99   123   124    1
   100   110   108    1
   101    85    86    1
   102    92    91    2
   103   180   178   ar
   104   181   179   ar
   105   104   107    1
   106    86    89    1
   107    89    90    1
   108    90    91    1
   109    91    93   am
   110   108   107    1
   111   124   126   ar
   112   124   125   ar
   113   107   109    1
   114   178   176   ar
   115   178   177   ar
   116   126   128   ar
   117   179   176   ar
   118    82    84    1
   119    82    81    1
   120    42    41    1
   121    42    36    1
   122    51    52   ar
   123    51    49   ar
   124    52    50   ar
   125   125   127   ar
   126    83    81    1
   127    78    81    1
   128    78    77    1
   129    78    79    1
   130    80    79    2
   131   176   174   ar
   132    68    66    1
   133   177   175   ar
   134    41    40    1
   135    69    67    1
   136    67    66    1
   137   128   129   ar
   138    36    37    1
   139    49    48   ar
   140    66    63    1
   141   146   148   ar
   142   146   144   ar
   143    65    64    2
   144   148   147   ar
   145    40    37    1
   146    50    48   ar
   147   127   129   ar
   148    63    64    1
   149    63    62    1
   150   174   175   ar
   151   174   173    1
   152    37    38    1
   153    38    39    2
   154    64    70   am
   155    48    47    1
   156   144   143   ar
   157   183   184    1
   158   147   145   ar
   159   184   187    1
   160   184   185    1
   161   169   170    1
   162   173   170    1
   163   170   171    1
   164   161   160    2
   165   143   145   ar
   166   143   142    1
   167    70    71    1
   168    46    45    2
   169    73    72    2
   170    47    44    1
   171   159   160    1
   172   159   158    1
   173   185   186    2
   174    71    72    1
   175    71    74    1
   176   142   139    1
   177   160   162   am
   178   172   171    2
   179    45    44    1
   180    45    53   am
   181    44    43    1
   182   136   135    2
   183    56    55    2
   184   135   137   am
   185   135   134    1
   186    54    53    1
   187    54    55    1
   188    54    57    1
   189    76    74    1
   190   165   164    2
   191    74    75    1
   192   139   140    1
   193   139   138    1
   194   156   155   ar
   195   162   163    1
   196   162   168    1
   197    58    57    1
   198    58    59    1
   199   164   163    1
   200   134   131    1
   201   141   140    2
   202   163   166    1
   203    61    59   am
   204   140   149   am
   205   157   155   ar
   206   155   154    1
   207    59    60    2
   208   168   167    1
   209   149   150    1
   210   131   130    1
   211   131   132    1
   212   166   167    1
   213   150   153    1
   214   150   151    1
   215   154   153    1
   216   132   133    2
   217   151   152    2
