@<TRIPOS>MOLECULE
tmp/5eqiA00.pdb
 239 230 0 0 0
SMALL
GASTEIGER

@<TRIPOS>ATOM
      1  N        -49.0550    5.3760   10.0850 N.3    18  PHE18      -0.1241
      2  CA       -47.7440    5.8320    9.6190 C.3    18  PHE18       0.1605
      3  C        -46.6640    4.8070    9.9630 C.2    18  PHE18       0.2264
      4  O        -45.9570    4.3220    9.0810 O.2    18  PHE18      -0.2867
      5  CB       -47.3950    7.1960   10.2330 C.3    18  PHE18       0.0534
      6  CG       -46.0160    7.7030    9.8700 C.ar   18  PHE18      -0.0203
      7  CD1      -44.9210    7.4190   10.6700 C.ar   18  PHE18      -0.0042
      8  CD2      -45.8220    8.4780    8.7380 C.ar   18  PHE18      -0.0042
      9  CE1      -43.6560    7.8870   10.3410 C.ar   18  PHE18      -0.0003
     10  CE2      -44.5590    8.9480    8.4060 C.ar   18  PHE18      -0.0003
     11  CZ       -43.4780    8.6520    9.2090 C.ar   18  PHE18      -0.0000
     12  N        -44.4880    1.5980    7.7670 N.3    22  THR22      -0.1218
     13  CA       -43.0360    1.7360    7.7570 C.3    22  THR22       0.1862
     14  C        -42.3380    0.3860    7.8890 C.2    22  THR22       0.2287
     15  O        -41.3140    0.1530    7.2440 O.2    22  THR22      -0.2866
     16  CB       -42.5440    2.6610    8.8930 C.3    22  THR22       0.1770
     17  OG1      -43.1250    3.9640    8.7450 O.3    22  THR22      -0.2211
     18  CG2      -41.0280    2.7940    8.8670 C.3    22  THR22       0.0375
     19  N        -44.8900   15.6170    2.6750 N.3    72  SER72      -0.1217
     20  CA       -44.4820   16.5770    3.6930 C.3    72  SER72       0.1889
     21  C        -44.3830   17.9870    3.1260 C.2    72  SER72       0.2288
     22  O        -44.4260   18.9620    3.8760 O.2    72  SER72      -0.2866
     23  CB       -43.1460   16.1690    4.3100 C.3    72  SER72       0.2089
     24  OG       -43.2880   15.0030    5.0990 O.3    72  SER72      -0.2183
     25  N        -47.9660   13.0200    8.7950 N.3   129  THR129     -0.1218
     26  CA       -46.9680   13.3910    9.7860 C.3   129  THR129      0.1862
     27  C        -46.8680   14.9130    9.9100 C.2   129  THR129      0.2287
     28  O        -46.1380   15.4310   10.7570 O.2   129  THR129     -0.2866
     29  CB       -45.5920   12.8080    9.4390 C.3   129  THR129      0.1770
     30  OG1      -44.6680   13.1030   10.4940 O.3   129  THR129     -0.2211
     31  CG2      -45.0840   13.3760    8.1240 C.3   129  THR129      0.0375
     32  N        -49.3300   16.1350   14.3000 N.3   133  PRO133     -0.2116
     33  CA       -48.6610   16.9570   15.3160 C.3   133  PRO133      0.1372
     34  C        -49.2520   18.3610   15.3950 C.2   133  PRO133      0.2244
     35  O        -49.2720   18.9680   16.4650 O.2   133  PRO133     -0.2868
     36  CB       -47.2030   17.0040   14.8360 C.3   133  PRO133      0.0268
     37  CG       -47.0790   15.9090   13.8220 C.3   133  PRO133      0.0207
     38  CD       -48.4230   15.8040   13.1890 C.3   133  PRO133      0.0892
     39  N        -47.9710   11.1030   19.0700 N.3   152  HIS152     -0.1226
     40  CA       -47.5460   10.9580   17.6810 C.3   152  HIS152      0.1752
     41  C        -46.3290   10.0460   17.6230 C.2   152  HIS152      0.2595
     42  O        -46.2950    9.0950   16.8420 O.2   152  HIS152     -0.2718
     43  CB       -47.2270   12.3140   17.0490 C.3   152  HIS152      0.0759
     44  CG       -46.7980   12.2280   15.6150 C.ar  152  HIS152      0.0818
     45  ND1      -47.6710   11.9160   14.5940 N.ar  152  HIS152     -0.2268
     46  CD2      -45.5900   12.4110   15.0330 C.ar  152  HIS152      0.1154
     47  CE1      -47.0190   11.9130   13.4450 C.ar  152  HIS152      0.1986
     48  NE2      -45.7530   12.2110   13.6830 N.ar  152  HIS152     -0.2212
     49  N        -45.3400   10.3380   18.4660 N.am  153  GLN153     -0.1979
     50  CA       -44.1320    9.5220   18.5550 C.3   153  GLN153      0.1601
     51  C        -44.4780    8.0680   18.8700 C.2   153  GLN153      0.2287
     52  O        -44.1180    7.1550   18.1230 O.2   153  GLN153     -0.2864
     53  CB       -43.1830   10.0690   19.6270 C.3   153  GLN153      0.0394
     54  CG       -42.6850   11.4800   19.3730 C.3   153  GLN153      0.0908
     55  CD       -43.3330   12.5120   20.2770 C.2   153  GLN153      0.2608
     56  OE1      -42.8730   12.7450   21.3970 O.2   153  GLN153     -0.2717
     57  NE2      -44.4020   13.1390   19.7960 N.am  153  GLN153     -0.0878
     58  N        -46.0650    5.8780   16.1180 N.3   156  ILE156     -0.1231
     59  CA       -45.2190    5.3390   15.0600 C.3   156  ILE156      0.1692
     60  C        -44.5160    4.0630   15.5090 C.2   156  ILE156      0.2591
     61  O        -44.6390    3.0180   14.8730 O.2   156  ILE156     -0.2718
     62  CB       -44.1610    6.3640   14.6130 C.3   156  ILE156      0.0266
     63  CG1      -44.8420    7.6380   14.1130 C.3   156  ILE156      0.0019
     64  CG2      -43.2690    5.7720   13.5200 C.3   156  ILE156      0.0020
     65  CD1      -43.8840    8.7510   13.7580 C.3   156  ILE156      0.0001
     66  N        -43.7700    4.1580   16.6030 N.am  157  VAL157     -0.1980
     67  CA       -43.0140    3.0220   17.1140 C.3   157  VAL157      0.1595
     68  C        -43.9180    1.8300   17.4590 C.2   157  VAL157      0.2287
     69  O        -43.5410    0.6760   17.2430 O.2   157  VAL157     -0.2864
     70  CB       -42.1930    3.4310   18.3510 C.3   157  VAL157      0.0276
     71  CG1      -41.1420    4.4550   17.9590 C.3   157  VAL157      0.0022
     72  CG2      -43.0930    3.9930   19.4470 C.3   157  VAL157      0.0022
     73  N        -45.0100    0.3320   14.1770 N.3   160  ILE160     -0.1245
     74  CA       -43.9380   -0.4900   13.6370 C.3   160  ILE160      0.1561
     75  C        -43.9420   -1.8580   14.3120 C.2   160  ILE160      0.2260
     76  O        -43.6770   -2.8760   13.6730 O.2   160  ILE160     -0.2867
     77  CB       -42.5690    0.1840   13.8260 C.3   160  ILE160      0.0252
     78  CG1      -42.4960    1.4630   12.9940 C.3   160  ILE160      0.0019
     79  CG2      -41.4410   -0.7440   13.3990 C.3   160  ILE160      0.0019
     80  CD1      -41.3450    2.3630   13.3590 C.3   160  ILE160      0.0001
     81  N        -29.1750   11.0530   11.0530 N.3   274  GLN274     -0.1231
     82  CA       -30.2640   10.2130   11.5300 C.3   274  GLN274      0.1698
     83  C        -30.5060    9.0450   10.5780 C.2   274  GLN274      0.2592
     84  O        -30.7600    7.9240   11.0180 O.2   274  GLN274     -0.2718
     85  CB       -31.5420   11.0320   11.6940 C.3   274  GLN274      0.0381
     86  CG       -32.7290   10.2270   12.1990 C.3   274  GLN274      0.0905
     87  CD       -33.9610   11.0810   12.4010 C.2   274  GLN274      0.2608
     88  OE1      -34.8800   11.0770   11.5800 O.2   274  GLN274     -0.2717
     89  NE2      -33.9860   11.8240   13.5000 N.am  274  GLN274     -0.0878
     90  N        -30.4250    9.3130    9.2770 N.am  275  GLN275     -0.1979
     91  CA       -30.6810    8.2930    8.2620 C.3   275  GLN275      0.1601
     92  C        -29.4220    7.5210    7.8820 C.2   275  GLN275      0.2287
     93  O        -29.4370    6.2920    7.8220 O.2   275  GLN275     -0.2864
     94  CB       -31.2880    8.9320    7.0110 C.3   275  GLN275      0.0394
     95  CG       -32.6000    9.6380    7.2680 C.3   275  GLN275      0.0908
     96  CD       -33.6310    8.7240    7.8920 C.2   275  GLN275      0.2608
     97  OE1      -34.1060    7.7850    7.2560 O.2   275  GLN275     -0.2717
     98  NE2      -33.9750    8.9870    9.1480 N.am  275  GLN275     -0.0878
     99  N        -30.5670    3.1880   10.5580 N.3   279  ILE279     -0.1231
    100  CA       -31.5800    2.5620   11.4120 C.3   279  ILE279      0.1692
    101  C        -32.7290    2.0340   10.5750 C.2   279  ILE279      0.2592
    102  O        -33.4940    1.1820   11.0250 O.2   279  ILE279     -0.2718
    103  CB       -32.1710    3.5110   12.4850 C.3   279  ILE279      0.0266
    104  CG1      -32.0490    4.9880   12.0970 C.3   279  ILE279      0.0019
    105  CG2      -31.5010    3.2660   13.8160 C.3   279  ILE279      0.0020
    106  CD1      -32.8570    5.3820   10.8780 C.3   279  ILE279      0.0001
    107  N        -32.8560    2.5480    9.3590 N.am  280  ASN280     -0.1974
    108  CA       -33.8490    2.0380    8.4330 C.3   280  ASN280      0.1688
    109  C        -33.2540    0.8750    7.6610 C.2   280  ASN280      0.2292
    110  O        -33.9590    0.1580    6.9540 O.2   280  ASN280     -0.2864
    111  CB       -34.3300    3.1420    7.4990 C.3   280  ASN280      0.1181
    112  CG       -35.1920    4.1640    8.2160 C.2   280  ASN280      0.2629
    113  OD1      -34.8390    5.3390    8.3080 O.2   280  ASN280     -0.2716
    114  ND2      -36.3260    3.7130    8.7430 N.am  280  ASN280     -0.0877
    115  N        -34.8910   -1.3830   10.2850 N.3   283  PHE283     -0.1227
    116  CA       -36.3510   -1.2980   10.3120 C.3   283  PHE283      0.1736
    117  C        -36.9900   -1.7460    8.9970 C.2   283  PHE283      0.2595
    118  O        -38.2010   -1.9690    8.9410 O.2   283  PHE283     -0.2718
    119  CB       -36.8090    0.1310   10.6250 C.3   283  PHE283      0.0547
    120  CG       -36.5760    0.5580   12.0500 C.ar  283  PHE283     -0.0202
    121  CD1      -36.5630   -0.3630   13.0880 C.ar  283  PHE283     -0.0042
    122  CD2      -36.3790    1.8940   12.3480 C.ar  283  PHE283     -0.0042
    123  CE1      -36.3500    0.0440   14.3930 C.ar  283  PHE283     -0.0003
    124  CE2      -36.1660    2.3060   13.6500 C.ar  283  PHE283     -0.0003
    125  CZ       -36.1520    1.3800   14.6730 C.ar  283  PHE283     -0.0000
    126  N        -36.1860   -1.8620    7.9430 N.am  284  TYR284     -0.1976
    127  CA       -36.6750   -2.3730    6.6640 C.3   284  TYR284      0.1639
    128  C        -36.1770   -3.7970    6.4170 C.2   284  TYR284      0.2290
    129  O        -36.8780   -4.6040    5.8040 O.2   284  TYR284     -0.2864
    130  CB       -36.2390   -1.4680    5.5060 C.3   284  TYR284      0.0560
    131  CG       -36.7100   -0.0280    5.5960 C.ar  284  TYR284     -0.0198
    132  CD1      -37.6650    0.3650    6.5260 C.ar  284  TYR284     -0.0009
    133  CD2      -36.1960    0.9390    4.7400 C.ar  284  TYR284     -0.0009
    134  CE1      -38.0890    1.6850    6.6010 C.ar  284  TYR284      0.0417
    135  CE2      -36.6140    2.2560    4.8070 C.ar  284  TYR284      0.0417
    136  CZ       -37.5580    2.6240    5.7370 C.ar  284  TYR284      0.1957
    137  OH       -37.9700    3.9350    5.7980 O.3   284  TYR284     -0.2866
    138  N        -37.1450   -0.8350   20.5590 N.3   309  ASN309     -0.1240
    139  CA       -37.3550    0.4690   19.9420 C.3   309  ASN309      0.1653
    140  C        -38.4750    1.2340   20.6350 C.2   309  ASN309      0.2266
    141  O        -38.2910    2.3770   21.0490 O.2   309  ASN309     -0.2867
    142  CB       -37.6670    0.3050   18.4530 C.3   309  ASN309      0.1155
    143  CG       -38.0750    1.6010   17.7960 C.2   309  ASN309      0.2627
    144  OD1      -39.2530    1.8220   17.5160 O.2   309  ASN309     -0.2716
    145  ND2      -37.1020    2.4700   17.5470 N.am  309  ASN309     -0.0877
    146  N        -38.0680    4.5770   23.3640 N.3   313  THR313     -0.1218
    147  CA       -38.8110    5.7660   22.9610 C.3   313  THR313      0.1862
    148  C        -39.4330    6.3950   24.2020 C.2   313  THR313      0.2287
    149  O        -39.3110    7.6000   24.4250 O.2   313  THR313     -0.2866
    150  CB       -39.9180    5.4410   21.9260 C.3   313  THR313      0.1770
    151  OG1      -39.3540    4.7480   20.8080 O.3   313  THR313     -0.2211
    152  CG2      -40.5950    6.7090   21.4260 C.3   313  THR313      0.0375
    153  N        -30.2530    4.8020   19.3050 N.3   371  PHE371     -0.1227
    154  CA       -30.8170    5.7200   18.3260 C.3   371  PHE371      0.1736
    155  C        -31.9740    6.5310   18.9030 C.2   371  PHE371      0.2595
    156  O        -32.0690    7.7400   18.6880 O.2   371  PHE371     -0.2718
    157  CB       -31.3010    4.9580   17.0960 C.3   371  PHE371      0.0547
    158  CG       -32.2870    5.7250   16.2670 C.ar  371  PHE371     -0.0202
    159  CD1      -31.8560    6.6910   15.3740 C.ar  371  PHE371     -0.0042
    160  CD2      -33.6440    5.4790   16.3780 C.ar  371  PHE371     -0.0042
    161  CE1      -32.7580    7.4000   14.6130 C.ar  371  PHE371     -0.0003
    162  CE2      -34.5530    6.1840   15.6170 C.ar  371  PHE371     -0.0003
    163  CZ       -34.1090    7.1450   14.7310 C.ar  371  PHE371     -0.0000
    164  N        -32.8500    5.8570   19.6380 N.am  372  GLU372     -0.1979
    165  CA       -34.0940    6.4590   20.0970 C.3   372  GLU372      0.1602
    166  C        -33.8930    7.4760   21.2220 C.2   372  GLU372      0.2287
    167  O        -34.8420    8.1500   21.6290 O.2   372  GLU372     -0.2864
    168  CB       -35.0500    5.3620   20.5650 C.3   372  GLU372      0.0415
    169  CG       -36.5150    5.7500   20.5210 C.3   372  GLU372      0.1163
    170  CD       -37.0480    5.9260   19.1060 C.2   372  GLU372      0.3649
    171  OE1      -36.3290    5.5880   18.1420 O.co2 372  GLU372     -0.2457
    172  OE2      -38.1930    6.4040   18.9610 O.co2 372  GLU372     -0.2457
    173  N        -32.6060   10.2420   17.3700 N.3   376  GLY376     -0.1210
    174  CA       -34.0180   10.0480   17.0960 C.3   376  GLY376      0.1940
    175  C        -34.8100   11.3410   17.1200 C.2   376  GLY376      0.2453
    176  O        -35.2430   11.8170   16.0730 O.2   376  GLY376     -0.2732
    177  N        -35.0060   11.9180   18.3190 N.am  377  PRO377     -0.2728
    178  CA       -35.7800   13.1530   18.4980 C.3   377  PRO377      0.1401
    179  C        -34.9640   14.4470   18.3610 C.2   377  PRO377      0.2269
    180  O        -35.4990   15.4480   17.8790 O.2   377  PRO377     -0.2865
    181  CB       -36.3170   13.0080   19.9240 C.3   377  PRO377      0.0296
    182  CG       -35.2520   12.2420   20.6330 C.3   377  PRO377      0.0237
    183  CD       -34.6380   11.3120   19.6120 C.3   377  PRO377      0.0939
    184  N        -34.7060   17.1380   15.4820 N.3   380  TRP380     -0.1241
    185  CA       -35.8920   17.9620   15.2530 C.3   380  TRP380      0.1605
    186  C        -36.0670   19.0020   16.3530 C.2   380  TRP380      0.2264
    187  O        -36.8740   19.9250   16.2200 O.2   380  TRP380     -0.2867
    188  CB       -37.1450   17.0920   15.1550 C.3   380  TRP380      0.0550
    189  CG       -37.1760   16.2640   13.9170 C.ar  380  TRP380      0.0003
    190  CD1      -37.0970   14.9060   13.8370 C.ar  380  TRP380      0.0946
    191  CD2      -37.2770   16.7420   12.5690 C.ar  380  TRP380      0.0152
    192  NE1      -37.1500   14.5050   12.5230 N.ar  380  TRP380     -0.2442
    193  CE2      -37.2600   15.6140   11.7250 C.ar  380  TRP380      0.0810
    194  CE3      -37.3850   18.0130   11.9950 C.ar  380  TRP380      0.0012
    195  CZ2      -37.3440   15.7170   10.3370 C.ar  380  TRP380      0.0191
    196  CZ3      -37.4700   18.1140   10.6150 C.ar  380  TRP380      0.0001
    197  CH2      -37.4500   16.9730    9.8030 C.ar  380  TRP380      0.0015
    198  N        -37.7140   23.5980    8.5720 N.3   396  ILE396     -0.1245
    199  CA       -38.2780   22.2620    8.7420 C.3   396  ILE396      0.1561
    200  C        -38.4490   21.5970    7.3820 C.2   396  ILE396      0.2260
    201  O        -38.1910   20.4050    7.2320 O.2   396  ILE396     -0.2867
    202  CB       -39.6400   22.2990    9.4770 C.3   396  ILE396      0.0252
    203  CG1      -39.5090   23.0060   10.8310 C.3   396  ILE396      0.0019
    204  CG2      -40.2070   20.8890    9.6680 C.3   396  ILE396      0.0019
    205  CD1      -38.5070   22.3920   11.7840 C.3   396  ILE396      0.0001
    206  N        -36.9260   18.3700    6.4790 N.3   400  GLY400     -0.1225
    207  CA       -37.8450   17.3250    6.0680 C.3   400  GLY400      0.1811
    208  C        -37.3880   16.7160    4.7600 C.2   400  GLY400      0.2280
    209  O        -37.3640   15.4920    4.6030 O.2   400  GLY400     -0.2866
    210  N        -34.3010   14.6400    5.3470 N.3   403  ASN403     -0.1225
    211  CA       -34.6020   13.3660    5.9800 C.3   403  ASN403      0.1785
    212  C        -35.1130   12.3460    4.9670 C.2   403  ASN403      0.2597
    213  O        -34.5750   11.2460    4.8630 O.2   403  ASN403     -0.2718
    214  CB       -35.6300   13.5530    7.0940 C.3   403  ASN403      0.1169
    215  CG       -35.7400   12.3390    7.9880 C.2   403  ASN403      0.2627
    216  OD1      -36.2400   11.2930    7.5740 O.2   403  ASN403     -0.2716
    217  ND2      -35.2720   12.4700    9.2230 N.am  403  ASN403     -0.0877
    218  N        -36.1490   12.7160    4.2210 N.am  404  TRP404     -0.1976
    219  CA       -36.7090   11.8280    3.2080 C.3   404  TRP404      0.1640
    220  C        -35.6570   11.4320    2.1740 C.2   404  TRP404      0.2290
    221  O        -35.5640   10.2650    1.7980 O.2   404  TRP404     -0.2864
    222  CB       -37.9040   12.4860    2.5080 C.3   404  TRP404      0.0576
    223  CG       -39.1340   12.5620    3.3560 C.ar  404  TRP404      0.0006
    224  CD1      -39.7880   13.6910    3.7440 C.ar  404  TRP404      0.0946
    225  CD2      -39.8560   11.4630    3.9290 C.ar  404  TRP404      0.0152
    226  NE1      -40.8760   13.3670    4.5160 N.ar  404  TRP404     -0.2442
    227  CE2      -40.9390   12.0050    4.6470 C.ar  404  TRP404      0.0810
    228  CE3      -39.6920   10.0740    3.9030 C.ar  404  TRP404      0.0012
    229  CZ2      -41.8540   11.2090    5.3330 C.ar  404  TRP404      0.0191
    230  CZ3      -40.6010    9.2850    4.5840 C.ar  404  TRP404      0.0001
    231  CH2      -41.6680    9.8540    5.2900 C.ar  404  TRP404      0.0015
    232  N        -33.2190    9.1540    3.6380 N.3   407  ASN407     -0.1240
    233  CA       -33.9650    7.9340    3.9280 C.3   407  ASN407      0.1653
    234  C        -34.0810    7.0640    2.6780 C.2   407  ASN407      0.2266
    235  O        -34.0570    5.8380    2.7610 O.2   407  ASN407     -0.2867
    236  CB       -35.3560    8.2720    4.4700 C.3   407  ASN407      0.1155
    237  CG       -36.1380    7.0420    4.8890 C.2   407  ASN407      0.2627
    238  OD1      -36.7050    6.3410    4.0520 O.2   407  ASN407     -0.2716
    239  ND2      -36.1880    6.7850    6.1920 N.am  407  ASN407     -0.0877
@<TRIPOS>BOND
     1   221   220    2
     2   220   219    1
     3   222   219    1
     4   222   223    1
     5    19    20    1
     6   234   235    2
     7   234   233    1
     8    21    20    1
     9    21    22    2
    10   219   218    1
    11   223   224   ar
    12   223   225   ar
    13   232   233    1
    14    20    23    1
    15   224   226   ar
    16   228   225   ar
    17   228   230   ar
    18   233   236    1
    19   225   227   ar
    20   238   237    2
    21   218   212   am
    22    23    24    1
    23   236   237    1
    24   226   227   ar
    25   230   231   ar
    26   209   208    2
    27   227   229   ar
    28   133   135   ar
    29   133   131   ar
    30   208   207    1
    31   135   136   ar
    32   213   212    2
    33   237   239   am
    34   212   211    1
    35   231   229   ar
    36   210   211    1
    37   130   131    1
    38   130   127    1
    39   131   132   ar
    40   136   137    1
    41   136   134   ar
    42   129   128    2
    43   211   214    1
    44   207   206    1
    45   128   127    1
    46   132   134   ar
    47   127   126    1
    48   110   109    2
    49    94    95    1
    50    94    91    1
    51   214   215    1
    52   201   200    2
    53    15    14    2
    54    97    96    2
    55    95    96    1
    56   200   199    1
    57   111   112    1
    58   111   108    1
    59   216   215    2
    60   109   108    1
    61    13    12    1
    62    13    14    1
    63    13    16    1
    64    93    92    2
    65    92    91    1
    66    96    98   am
    67   126   117   am
    68   215   217   am
    69    31    29    1
    70   112   113    2
    71   112   114   am
    72    91    90    1
    73    10     8   ar
    74    10    11   ar
    75   108   107    1
    76   198   199    1
    77     8     6   ar
    78   199   202    1
    79    17    16    1
    80    25    26    1
    81    18    16    1
    82   118   117    2
    83   117   116    1
    84     4     3    2
    85    11     9   ar
    86    90    83   am
    87   107   101   am
    88    29    26    1
    89    29    30    1
    90   202   204    1
    91   202   203    1
    92     2     3    1
    93     2     1    1
    94     2     5    1
    95    26    27    1
    96   197   195   ar
    97   197   196   ar
    98     6     5    1
    99     6     7   ar
   100    27    28    2
   101   115   116    1
   102   116   119    1
   103   195   193   ar
   104     9     7   ar
   105    99   100    1
   106   101   102    2
   107   101   100    1
   108    83    84    2
   109    83    82    1
   110   196   194   ar
   111   119   120    1
   112   203   205    1
   113   106   104    1
   114    81    82    1
   115   100   103    1
   116    82    85    1
   117    88    87    2
   118    85    86    1
   119   193   192   ar
   120   193   191   ar
   121   194   191   ar
   122   120   122   ar
   123   120   121   ar
   124   104   103    1
   125    86    87    1
   126   122   124   ar
   127    87    89   am
   128   103   105    1
   129   192   190   ar
   130   191   189   ar
   131    78    80    1
   132    78    77    1
   133   121   123   ar
   134    38    37    1
   135    38    32    1
   136    79    77    1
   137    47    48   ar
   138    47    45   ar
   139    64    62    1
   140    74    77    1
   141    74    73    1
   142    74    75    1
   143   124   125   ar
   144    76    75    2
   145    48    46   ar
   146    65    63    1
   147    37    36    1
   148   190   189   ar
   149   189   188    1
   150    63    62    1
   151    32    33    1
   152   123   125   ar
   153    45    44   ar
   154   161   163   ar
   155   161   159   ar
   156    62    59    1
   157   163   162   ar
   158    36    33    1
   159    61    60    2
   160    46    44   ar
   161    59    60    1
   162    59    58    1
   163   188   185    1
   164   185   184    1
   165   185   186    1
   166    33    34    1
   167   159   158   ar
   168    34    35    2
   169    60    66   am
   170    44    43    1
   171   162   160   ar
   172   176   175    2
   173   187   186    2
   174   158   160   ar
   175   158   157    1
   176    66    67    1
   177    42    41    2
   178    43    40    1
   179   157   154    1
   180   174   175    1
   181   174   173    1
   182    67    68    1
   183    67    70    1
   184   175   177   am
   185    69    68    2
   186   144   143    2
   187   145   143   am
   188    41    40    1
   189    41    49   am
   190    40    39    1
   191   143   142    1
   192   180   179    2
   193    71    70    1
   194    52    51    2
   195   171   170   ar
   196   177   178    1
   197   177   183    1
   198   154   155    1
   199   154   153    1
   200    70    72    1
   201   179   178    1
   202   142   139    1
   203    49    50    1
   204   178   181    1
   205    50    51    1
   206    50    53    1
   207   156   155    2
   208   155   164   am
   209   172   170   ar
   210   170   169    1
   211    54    53    1
   212    54    55    1
   213   183   182    1
   214   164   165    1
   215    57    55   am
   216   181   182    1
   217   139   138    1
   218   139   140    1
   219   165   168    1
   220   165   166    1
   221    55    56    2
   222   169   168    1
   223   140   141    2
   224   151   150    1
   225   166   167    2
   226   152   150    1
   227   150   147    1
   228   147   146    1
   229   147   148    1
   230   148   149    2
