@<TRIPOS>MOLECULE
tmp/5eqpB00.pdb
 138 136 0 0 0
SMALL
GASTEIGER

@<TRIPOS>ATOM
      1  N         27.0040   36.8250   36.9150 N.3   198  ASP198     -0.1239
      2  CA        28.2270   36.0830   37.2320 C.3   198  ASP198      0.1674
      3  C         27.9020   34.7800   37.9550 C.2   198  ASP198      0.2266
      4  O         28.6390   34.3340   38.8380 O.2   198  ASP198     -0.2867
      5  CB        29.1660   36.9450   38.0880 C.3   198  ASP198      0.1410
      6  CG        30.5710   36.3550   38.2030 C.2   198  ASP198      0.3668
      7  OD1       31.0030   35.6050   37.2980 O.co2 198  ASP198     -0.2456
      8  OD2       31.2450   36.6360   39.2110 O.co2 198  ASP198     -0.2456
      9  N         28.2420   31.7460   38.6120 N.3   200  GLN200     -0.1245
     10  CA        29.1160   30.5930   38.5110 C.3   200  GLN200      0.1566
     11  C         29.1370   29.8260   39.8350 C.2   200  GLN200      0.2260
     12  O         28.7970   30.3850   40.8820 O.2   200  GLN200     -0.2867
     13  CB        30.5180   31.0530   38.1560 C.3   200  GLN200      0.0367
     14  CG        31.1350   31.9580   39.1960 C.3   200  GLN200      0.0905
     15  CD        32.6330   31.7570   39.2920 C.2   200  GLN200      0.2608
     16  OE1       33.4040   32.4390   38.6100 O.2   200  GLN200     -0.2717
     17  NE2       33.0570   30.7960   40.1300 N.am  200  GLN200     -0.0878
     18  N         28.7240   42.1460   39.9600 N.3   225  TYR225     -0.1241
     19  CA        28.5390   42.4540   38.5420 C.3   225  TYR225      0.1605
     20  C         27.0750   42.5850   38.1330 C.2   225  TYR225      0.2264
     21  O         26.7860   42.7830   36.9570 O.2   225  TYR225     -0.2867
     22  CB        29.1990   41.3840   37.6640 C.3   225  TYR225      0.0534
     23  CG        30.6880   41.2820   37.8380 C.ar  225  TYR225     -0.0201
     24  CD1       31.2300   40.4410   38.7850 C.ar  225  TYR225     -0.0009
     25  CD2       31.5520   42.0330   37.0560 C.ar  225  TYR225     -0.0009
     26  CE1       32.5890   40.3530   38.9560 C.ar  225  TYR225      0.0417
     27  CE2       32.9150   41.9510   37.2190 C.ar  225  TYR225      0.0417
     28  CZ        33.4270   41.1070   38.1690 C.ar  225  TYR225      0.1957
     29  OH        34.7890   41.0090   38.3390 O.3   225  TYR225     -0.2866
     30  N         25.3340   32.6410   30.3200 N.3   237  ASN237     -0.1240
     31  CA        26.5620   32.6670   31.0870 C.3   237  ASN237      0.1653
     32  C         26.6390   31.4700   32.0580 C.2   237  ASN237      0.2266
     33  O         27.6480   30.7590   32.1250 O.2   237  ASN237     -0.2867
     34  CB        26.6810   33.9780   31.8590 C.3   237  ASN237      0.1155
     35  CG        27.9430   34.0420   32.6870 C.2   237  ASN237      0.2627
     36  OD1       27.9040   33.8890   33.9210 O.2   237  ASN237     -0.2716
     37  ND2       29.0790   34.2580   32.0210 N.am  237  ASN237     -0.0877
     38  N         29.3490   28.2320   32.3500 N.3   241  GLU241     -0.1245
     39  CA        30.0890   27.8950   33.5630 C.3   241  GLU241      0.1567
     40  C         30.1380   26.4040   33.8720 C.2   241  GLU241      0.2260
     41  O         30.9190   25.9730   34.7100 O.2   241  GLU241     -0.2867
     42  CB        29.5140   28.6370   34.7670 C.3   241  GLU241      0.0388
     43  CG        29.9970   30.0840   34.8710 C.3   241  GLU241      0.1160
     44  CD        31.5300   30.2030   34.9780 C.2   241  GLU241      0.3649
     45  OE1       32.0570   31.3380   34.9220 O.co2 241  GLU241     -0.2457
     46  OE2       32.2120   29.1680   35.1250 O.co2 241  GLU241     -0.2457
     47  N         37.3430   25.7800   38.2460 N.3   246  TYR246     -0.1241
     48  CA        38.4080   26.6760   38.6530 C.3   246  TYR246      0.1605
     49  C         39.1820   26.1250   39.8300 C.2   246  TYR246      0.2264
     50  O         39.9840   26.8360   40.4170 O.2   246  TYR246     -0.2867
     51  CB        37.8260   28.0440   39.0120 C.3   246  TYR246      0.0534
     52  CG        37.0200   28.6370   37.8810 C.ar  246  TYR246     -0.0201
     53  CD1       37.6450   29.1130   36.7260 C.ar  246  TYR246     -0.0009
     54  CD2       35.6330   28.6950   37.9490 C.ar  246  TYR246     -0.0009
     55  CE1       36.9060   29.6290   35.6620 C.ar  246  TYR246      0.0417
     56  CE2       34.8810   29.2060   36.8910 C.ar  246  TYR246      0.0417
     57  CZ        35.5230   29.6690   35.7510 C.ar  246  TYR246      0.1957
     58  OH        34.7790   30.1470   34.7010 O.3   246  TYR246     -0.2866
     59  N         33.8410   37.7410   28.8150 N.3   312  TRP312     -0.1241
     60  CA        34.7610   37.2540   29.8430 C.3   312  TRP312      0.1605
     61  C         36.1210   36.9370   29.2530 C.2   312  TRP312      0.2264
     62  O         37.1260   36.9740   29.9590 O.2   312  TRP312     -0.2867
     63  CB        34.1960   36.0200   30.5540 C.3   312  TRP312      0.0550
     64  CG        32.9820   36.3230   31.3900 C.ar  312  TRP312      0.0003
     65  CD1       31.7840   35.6660   31.3550 C.ar  312  TRP312      0.0946
     66  CD2       32.8310   37.3830   32.3550 C.ar  312  TRP312      0.0152
     67  NE1       30.9020   36.2490   32.2300 N.ar  312  TRP312     -0.2442
     68  CE2       31.5150   37.3020   32.8550 C.ar  312  TRP312      0.0810
     69  CE3       33.6800   38.3910   32.8400 C.ar  312  TRP312      0.0012
     70  CZ2       31.0210   38.1900   33.8180 C.ar  312  TRP312      0.0191
     71  CZ3       33.1930   39.2760   33.7940 C.ar  312  TRP312      0.0001
     72  CH2       31.8710   39.1700   34.2760 C.ar  312  TRP312      0.0015
     73  N         37.5640   40.4230   29.2800 N.3   315  TRP315     -0.1241
     74  CA        37.8020   40.6870   30.6920 C.3   315  TRP315      0.1605
     75  C         39.0890   39.9990   31.1210 C.2   315  TRP315      0.2264
     76  O         39.9140   40.5620   31.8350 O.2   315  TRP315     -0.2867
     77  CB        36.6230   40.1570   31.5200 C.3   315  TRP315      0.0550
     78  CG        36.8010   40.2070   33.0250 C.ar  315  TRP315      0.0003
     79  CD1       36.4510   41.2370   33.8630 C.ar  315  TRP315      0.0946
     80  CD2       37.3280   39.1690   33.8710 C.ar  315  TRP315      0.0152
     81  NE1       36.7260   40.8990   35.1650 N.ar  315  TRP315     -0.2442
     82  CE2       37.2620   39.6380   35.1990 C.ar  315  TRP315      0.0810
     83  CE3       37.8470   37.8910   33.6330 C.ar  315  TRP315      0.0012
     84  CZ2       37.6960   38.8740   36.2830 C.ar  315  TRP315      0.0191
     85  CZ3       38.2780   37.1370   34.7090 C.ar  315  TRP315      0.0001
     86  CH2       38.2010   37.6290   36.0150 C.ar  315  TRP315      0.0015
     87  N         46.6640   38.0560   41.4910 N.3   325  ILE325     -0.1231
     88  CA        46.0770   36.7300   41.6770 C.3   325  ILE325      0.1692
     89  C         46.6840   35.7300   40.7060 C.2   325  ILE325      0.2592
     90  O         46.6400   35.9350   39.4940 O.2   325  ILE325     -0.2718
     91  CB        44.5440   36.7650   41.4300 C.3   325  ILE325      0.0266
     92  CG1       43.8920   37.8610   42.2800 C.3   325  ILE325      0.0019
     93  CG2       43.9280   35.4230   41.7710 C.3   325  ILE325      0.0020
     94  CD1       42.3770   37.9380   42.1350 C.3   325  ILE325      0.0001
     95  N         47.2420   34.6470   41.2350 N.am  326  GLU326     -0.1966
     96  CA        47.7910   33.5990   40.3860 C.3   326  GLU326      0.1733
     97  C         46.6630   32.8500   39.6720 C.2   326  GLU326      0.2616
     98  O         45.8640   32.1470   40.3020 O.2   326  GLU326     -0.2715
     99  CB        48.6180   32.6220   41.2210 C.3   326  GLU326      0.0429
    100  CG        49.6240   31.8250   40.4110 C.3   326  GLU326      0.1163
    101  CD        50.4960   30.9280   41.2790 C.2   326  GLU326      0.3649
    102  OE1       51.4580   30.3270   40.7440 O.co2 326  GLU326     -0.2457
    103  OE2       50.2150   30.8260   42.4950 O.co2 326  GLU326     -0.2457
    104  N         46.6100   33.0110   38.3520 N.am  327  PHE327     -0.1974
    105  CA        45.5840   32.3970   37.5170 C.3   327  PHE327      0.1639
    106  C         45.9620   32.6290   36.0620 C.2   327  PHE327      0.2290
    107  O         46.2750   33.7520   35.6700 O.2   327  PHE327     -0.2864
    108  CB        44.2260   33.0370   37.7970 C.3   327  PHE327      0.0560
    109  CG        43.0940   32.3910   37.0650 C.ar  327  PHE327     -0.0200
    110  CD1       42.5710   31.1840   37.5040 C.ar  327  PHE327     -0.0042
    111  CD2       42.5470   32.9880   35.9430 C.ar  327  PHE327     -0.0042
    112  CE1       41.5300   30.5840   36.8430 C.ar  327  PHE327     -0.0003
    113  CE2       41.5020   32.4020   35.2700 C.ar  327  PHE327     -0.0003
    114  CZ        40.9870   31.1910   35.7210 C.ar  327  PHE327     -0.0000
    115  N         45.3330   33.7740   33.0990 N.3   329  TYR329     -0.1241
    116  CA        44.2770   34.5490   32.4810 C.3   329  TYR329      0.1605
    117  C         44.2540   34.4680   30.9750 C.2   329  TYR329      0.2264
    118  O         43.1840   34.3140   30.3800 O.2   329  TYR329     -0.2867
    119  CB        44.3590   35.9990   32.9280 C.3   329  TYR329      0.0534
    120  CG        43.8480   36.2130   34.3360 C.ar  329  TYR329     -0.0201
    121  CD1       42.4820   36.2370   34.6080 C.ar  329  TYR329     -0.0009
    122  CD2       44.7330   36.4140   35.3940 C.ar  329  TYR329     -0.0009
    123  CE1       42.0070   36.4600   35.9010 C.ar  329  TYR329      0.0417
    124  CE2       44.2760   36.6340   36.6790 C.ar  329  TYR329      0.0417
    125  CZ        42.9130   36.6590   36.9270 C.ar  329  TYR329      0.1957
    126  OH        42.4670   36.9030   38.2060 O.3   329  TYR329     -0.2866
    127  N         42.8640   31.0740   29.8630 N.3   332  TYR332     -0.1241
    128  CA        41.4200   31.1860   30.0420 C.3   332  TYR332      0.1605
    129  C         40.7800   32.0770   28.9760 C.2   332  TYR332      0.2264
    130  O         39.7220   31.7430   28.4310 O.2   332  TYR332     -0.2867
    131  CB        41.0960   31.7460   31.4220 C.3   332  TYR332      0.0534
    132  CG        39.6250   31.7550   31.7280 C.ar  332  TYR332     -0.0201
    133  CD1       38.9450   30.5710   31.9860 C.ar  332  TYR332     -0.0009
    134  CD2       38.9070   32.9390   31.7530 C.ar  332  TYR332     -0.0009
    135  CE1       37.5920   30.5710   32.2570 C.ar  332  TYR332      0.0417
    136  CE2       37.5560   32.9440   32.0250 C.ar  332  TYR332      0.0417
    137  CZ        36.9080   31.7590   32.2750 C.ar  332  TYR332      0.1957
    138  OH        35.5660   31.7560   32.5570 O.3   332  TYR332     -0.2866
@<TRIPOS>BOND
     1   130   129    2
     2    59    60    1
     3   129   128    1
     4    61    60    1
     5    61    62    2
     6    73    74    1
     7    60    63    1
     8   127   128    1
     9   128   131    1
    10    30    31    1
    11   118   117    2
    12    63    64    1
    13    74    75    1
    14    74    77    1
    15   117   116    1
    16    31    34    1
    17    31    32    1
    18    75    76    2
    19    65    64   ar
    20    65    67   ar
    21    64    66   ar
    22   131   132    1
    23    77    78    1
    24   132   134   ar
    25   132   133   ar
    26   134   136   ar
    27    34    35    1
    28   133   135   ar
    29    37    35   am
    30   136   137   ar
    31    32    33    2
    32    67    68   ar
    33   135   137   ar
    34   137   138    1
    35    38    39    1
    36    66    69   ar
    37    66    68   ar
    38   116   119    1
    39   116   115    1
    40    35    36    2
    41    69    71   ar
    42    68    70   ar
    43   119   120    1
    44    78    79   ar
    45    78    80   ar
    46    39    40    1
    47    39    42    1
    48    83    80   ar
    49    83    85   ar
    50    71    72   ar
    51    70    72   ar
    52    79    81   ar
    53    80    82   ar
    54    40    41    2
    55   120   121   ar
    56   120   122   ar
    57   121   123   ar
    58    58    57    1
    59    85    86   ar
    60    42    43    1
    61    43    44    1
    62    45    44   ar
    63    44    46   ar
    64    81    82   ar
    65    82    84   ar
    66   113   114   ar
    67   113   111   ar
    68   122   124   ar
    69    55    57   ar
    70    55    53   ar
    71   107   106    2
    72   114   112   ar
    73    57    56   ar
    74   123   125   ar
    75   111   109   ar
    76    86    84   ar
    77   106   105    1
    78   124   125   ar
    79    53    52   ar
    80   112   110   ar
    81    56    54   ar
    82     1     2    1
    83   125   126    1
    84    21    20    2
    85    25    27   ar
    86    25    23   ar
    87   109   110   ar
    88   109   108    1
    89    27    28   ar
    90     2     3    1
    91     2     5    1
    92     7     6   ar
    93   105   108    1
    94   105   104    1
    95    22    23    1
    96    22    19    1
    97    23    24   ar
    98    52    54   ar
    99    52    51    1
   100     3     4    2
   101     5     6    1
   102    20    19    1
   103    13    10    1
   104    13    14    1
   105    28    29    1
   106    28    26   ar
   107     6     8   ar
   108    47    48    1
   109   104    97   am
   110    10     9    1
   111    10    11    1
   112    19    18    1
   113    16    15    2
   114    48    51    1
   115    48    49    1
   116    24    26   ar
   117    14    15    1
   118    15    17   am
   119    90    89    2
   120    97    98    2
   121    97    96    1
   122    49    50    2
   123    11    12    2
   124    96    99    1
   125    96    95    1
   126   100    99    1
   127   100   101    1
   128    89    95   am
   129    89    88    1
   130   102   101   ar
   131   101   103   ar
   132    91    88    1
   133    91    93    1
   134    91    92    1
   135    87    88    1
   136    94    92    1
