@<TRIPOS>MOLECULE
tmp/5eqsA00.pdb
 165 160 0 0 0
SMALL
GASTEIGER

@<TRIPOS>ATOM
      1  N         38.1290   11.0630   29.2400 N.3    54  GLN54      -0.1231
      2  CA        37.6310   10.8160   27.8930 C.3    54  GLN54       0.1698
      3  C         38.3650    9.6770   27.2430 C.2    54  GLN54       0.2593
      4  O         39.5460    9.4940   27.5260 O.2    54  GLN54      -0.2718
      5  CB        37.8130   12.0620   27.0440 C.3    54  GLN54       0.0381
      6  CG        36.9180   13.2200   27.3820 C.3    54  GLN54       0.0905
      7  CD        36.9140   14.1930   26.2490 C.2    54  GLN54       0.2608
      8  OE1       35.9180   14.3310   25.5290 O.2    54  GLN54      -0.2717
      9  NE2       38.0620   14.8290   26.0240 N.am   54  GLN54      -0.0878
     10  N         37.7080    8.9240   26.3650 N.am   55  THR55      -0.1939
     11  CA        38.4170    7.8650   25.6340 C.3    55  THR55       0.2028
     12  C         38.2160    8.0740   24.1570 C.2    55  THR55       0.2642
     13  O         37.2430    8.6980   23.7250 O.2    55  THR55      -0.2714
     14  CB        37.9590    6.4430   25.9980 C.3    55  THR55       0.1808
     15  OG1       36.6330    6.2290   25.5020 O.3    55  THR55      -0.2208
     16  CG2       38.0110    6.2240   27.4960 C.3    55  THR55       0.0379
     17  N         39.1720    7.5880   23.3910 N.am   56  PHE56      -0.1973
     18  CA        39.0970    7.6670   21.9510 C.3    56  PHE56       0.1639
     19  C         39.9740    6.5250   21.4550 C.2    56  PHE56       0.2290
     20  O         40.2830    5.6230   22.2270 O.2    56  PHE56      -0.2864
     21  CB        39.5090    9.0630   21.4440 C.3    56  PHE56       0.0560
     22  CG        40.7760    9.5850   22.0290 C.ar   56  PHE56      -0.0200
     23  CD1       40.8150   10.1200   23.3140 C.ar   56  PHE56      -0.0042
     24  CD2       41.9380    9.5740   21.2840 C.ar   56  PHE56      -0.0042
     25  CE1       42.0000   10.6010   23.8420 C.ar   56  PHE56      -0.0003
     26  CE2       43.1380   10.0600   21.8220 C.ar   56  PHE56      -0.0003
     27  CZ        43.1660   10.5560   23.0890 C.ar   56  PHE56      -0.0000
     28  N         44.5570   14.8750   17.4140 N.3    69  TYR69      -0.1227
     29  CA        45.0430   15.8940   18.3230 C.3    69  TYR69       0.1736
     30  C         43.9720   16.2920   19.3400 C.2    69  TYR69       0.2595
     31  O         44.2850   16.5470   20.5030 O.2    69  TYR69      -0.2718
     32  CB        45.5320   17.1210   17.5290 C.3    69  TYR69       0.0548
     33  CG        46.0570   18.2130   18.4420 C.ar   69  TYR69      -0.0200
     34  CD1       47.3700   18.1770   18.9190 C.ar   69  TYR69      -0.0009
     35  CD2       45.2440   19.2460   18.8500 C.ar   69  TYR69      -0.0009
     36  CE1       47.8470   19.1410   19.7630 C.ar   69  TYR69       0.0417
     37  CE2       45.7190   20.2240   19.7080 C.ar   69  TYR69       0.0417
     38  CZ        47.0190   20.1630   20.1570 C.ar   69  TYR69       0.1957
     39  OH        47.5090   21.1250   21.0130 O.3    69  TYR69      -0.2866
     40  N         42.7030   16.3470   18.9330 N.am   70  HIS70      -0.1961
     41  CA        41.6840   16.8720   19.8270 C.3    70  HIS70       0.1787
     42  C         41.4270   15.8990   20.9780 C.2    70  HIS70       0.2620
     43  O         40.8540   16.3030   21.9830 O.2    70  HIS70      -0.2715
     44  CB        40.3780   17.2700   19.0630 C.3    70  HIS70       0.0785
     45  CG        39.5070   16.1290   18.5930 C.ar   70  HIS70       0.0821
     46  ND1       39.5870   15.6080   17.3150 N.ar   70  HIS70      -0.2267
     47  CD2       38.4770   15.4850   19.1930 C.ar   70  HIS70       0.1154
     48  CE1       38.6880   14.6480   17.1750 C.ar   70  HIS70       0.1986
     49  NE2       38.0010   14.5550   18.2980 N.ar   70  HIS70      -0.2212
     50  N         41.9050   14.6550   20.8460 N.am   71  GLY71      -0.1954
     51  CA        42.0010   13.7210   21.9520 C.3    71  GLY71       0.1869
     52  C         43.3380   13.7450   22.7070 C.2    71  GLY71       0.2309
     53  O         43.3590   13.8890   23.9260 O.2    71  GLY71      -0.2863
     54  N         48.4460   20.1950   14.1590 N.3    91  VAL91      -0.1231
     55  CA        47.2020   20.7470   14.6700 C.3    91  VAL91       0.1692
     56  C         46.1700   21.0330   13.6070 C.2    91  VAL91       0.2592
     57  O         45.0150   20.7990   13.8310 O.2    91  VAL91      -0.2718
     58  CB        47.4650   21.9410   15.5300 C.3    91  VAL91       0.0266
     59  CG1       46.2020   22.5800   15.9980 C.3    91  VAL91       0.0020
     60  CG2       48.3220   21.5180   16.6790 C.3    91  VAL91       0.0020
     61  N         46.6200   21.5370   12.4680 N.am   92  ASP92      -0.1974
     62  CA        45.7070   21.7840   11.3570 C.3    92  ASP92       0.1709
     63  C         45.0590   20.4880   10.8440 C.2    92  ASP92       0.2293
     64  O         43.9020   20.5040   10.4420 O.2    92  ASP92      -0.2864
     65  CB        46.4250   22.4800   10.2010 C.3    92  ASP92       0.1436
     66  CG        46.9960   23.8400   10.5820 C.2    92  ASP92       0.3671
     67  OD1       46.6400   24.3960   11.6450 O.co2  92  ASP92      -0.2456
     68  OD2       47.8110   24.3680    9.7970 O.co2  92  ASP92      -0.2456
     69  N         44.5770   17.8680   12.7300 N.3    94  ASP94      -0.1239
     70  CA        44.0560   17.1530   13.9000 C.3    94  ASP94       0.1674
     71  C         44.7580   15.8030   14.0960 C.2    94  ASP94       0.2266
     72  O         44.1350   14.8510   14.5150 O.2    94  ASP94      -0.2867
     73  CB        42.5510   16.9150   13.7790 C.3    94  ASP94       0.1410
     74  CG        41.8930   16.5970   15.1230 C.2    94  ASP94       0.3668
     75  OD1       42.5110   16.8140   16.1990 O.co2  94  ASP94      -0.2456
     76  OD2       40.7370   16.1340   15.1030 O.co2  94  ASP94      -0.2456
     77  N         25.0670   11.1820   17.0450 N.3   145  LEU145     -0.1245
     78  CA        26.4600   11.5020   17.3690 C.3   145  LEU145      0.1561
     79  C         26.9420   10.6150   18.5060 C.2   145  LEU145      0.2260
     80  O         28.0910   10.1490   18.5110 O.2   145  LEU145     -0.2867
     81  CB        26.6230   12.9840   17.7220 C.3   145  LEU145      0.0270
     82  CG        26.7430   13.9980   16.5880 C.3   145  LEU145      0.0019
     83  CD1       27.1240   15.3560   17.1450 C.3   145  LEU145      0.0001
     84  CD2       27.7670   13.5830   15.5240 C.3   145  LEU145      0.0001
     85  N         28.9450    7.5900   17.6380 N.3   148  LEU148     -0.1231
     86  CA        30.2900    7.6890   17.0550 C.3   148  LEU148      0.1693
     87  C         31.2860    8.3380   17.9950 C.2   148  LEU148      0.2592
     88  O         32.4900    8.2430   17.7730 O.2   148  LEU148     -0.2718
     89  CB        30.2610    8.4850   15.7540 C.3   148  LEU148      0.0284
     90  CG        29.3720    7.9220   14.6540 C.3   148  LEU148      0.0019
     91  CD1       29.3010    8.9420   13.5080 C.3   148  LEU148      0.0001
     92  CD2       29.9280    6.6020   14.1770 C.3   148  LEU148      0.0001
     93  N         30.7720    9.0540   18.9990 N.am  149  LYS149     -0.1966
     94  CA        31.5990    9.6870   20.0180 C.3   149  LYS149      0.1728
     95  C         32.5490    8.6740   20.6600 C.2   149  LYS149      0.2616
     96  O         32.1280    7.5670   21.0650 O.2   149  LYS149     -0.2715
     97  CB        30.7100   10.3140   21.0950 C.3   149  LYS149      0.0311
     98  CG        31.4510   11.1480   22.1100 C.3   149  LYS149      0.0038
     99  CD        30.4790   11.7420   23.1170 C.3   149  LYS149      0.0206
    100  CE        31.1950   12.3340   24.3090 C.3   149  LYS149      0.1093
    101  NZ        31.2850   11.3370   25.4120 N.3   149  LYS149     -0.1314
    102  N         33.8250    9.0470   20.7070 N.am  150  GLY150     -0.1955
    103  CA        34.8620    8.2370   21.3160 C.3   150  GLY150      0.1869
    104  C         35.4780    7.2640   20.3230 C.2   150  GLY150      0.2309
    105  O         36.3440    6.4640   20.7020 O.2   150  GLY150     -0.2863
    106  N         36.8520    8.5070   17.3610 N.3   152  SER152     -0.1217
    107  CA        37.8570    9.2460   16.6060 C.3   152  SER152      0.1889
    108  C         39.2000    8.5970   16.8480 C.2   152  SER152      0.2288
    109  O         39.4690    8.0440   17.9200 O.2   152  SER152     -0.2866
    110  CB        37.8960   10.7410   16.9810 C.3   152  SER152      0.2089
    111  OG        38.4950   10.9520   18.2550 O.3   152  SER152     -0.2183
    112  N         39.5010    8.2450   11.3860 N.3   167  PHE167     -0.1227
    113  CA        38.2660    8.9790   11.6660 C.3   167  PHE167      0.1736
    114  C         38.5770   10.2680   12.4380 C.2   167  PHE167      0.2595
    115  O         39.1870   10.2410   13.5170 O.2   167  PHE167     -0.2718
    116  CB        37.3240    8.0630   12.4580 C.3   167  PHE167      0.0547
    117  CG        35.9590    8.6380   12.7530 C.ar  167  PHE167     -0.0202
    118  CD1       35.3590    9.5600   11.9250 C.ar  167  PHE167     -0.0042
    119  CD2       35.2690    8.2270   13.8610 C.ar  167  PHE167     -0.0042
    120  CE1       34.1090   10.0750   12.2450 C.ar  167  PHE167     -0.0003
    121  CE2       34.0200    8.7230   14.1560 C.ar  167  PHE167     -0.0003
    122  CZ        33.4560    9.6670   13.3510 C.ar  167  PHE167     -0.0000
    123  N         38.1590   11.4080   11.8980 N.am  168  ARG168     -0.1966
    124  CA        38.4920   12.6950   12.5110 C.3   168  ARG168      0.1729
    125  C         37.2650   13.4030   13.0850 C.2   168  ARG168      0.2616
    126  O         37.2790   13.8930   14.2210 O.2   168  ARG168     -0.2715
    127  CB        39.1880   13.5850   11.4720 C.3   168  ARG168      0.0348
    128  CG        39.4650   15.0110   11.9050 C.3   168  ARG168      0.0492
    129  CD        40.5660   15.6560   11.0360 C.3   168  ARG168      0.2205
    130  NE        40.3090   15.4790    9.6090 N.pl3 168  ARG168     -0.0865
    131  CZ        41.1920   15.7610    8.6520 C.cat 168  ARG168      0.5346
    132  NH1       40.8850   15.5720    7.3700 N.pl3 168  ARG168      0.1354
    133  NH2       42.3830   16.2460    8.9670 N.pl3 168  ARG168      0.1354
    134  N         36.2200   13.4840   12.2780 N.am  169  ALA169     -0.1963
    135  CA        35.0490   14.2710   12.6050 C.3   169  ALA169      0.1728
    136  C         33.7940   13.6960   11.9500 C.2   169  ALA169      0.2616
    137  O         33.8540   13.1070   10.8780 O.2   169  ALA169     -0.2715
    138  CB        35.2600   15.7140   12.1600 C.3   169  ALA169      0.0334
    139  N         32.6640   13.8760   12.6100 N.am  170  ALA170     -0.1963
    140  CA        31.3790   13.4810   12.0610 C.3   170  ALA170      0.1728
    141  C         30.7980   14.6340   11.2460 C.2   170  ALA170      0.2616
    142  O         30.7880   15.7950   11.6950 O.2   170  ALA170     -0.2715
    143  CB        30.4290   13.0910   13.1640 C.3   170  ALA170      0.0334
    144  N         30.3170   14.3300   10.0510 N.am  171  VAL171     -0.1963
    145  CA        29.5720   15.3200    9.2820 C.3   171  VAL171      0.1727
    146  C         28.1340   15.2410    9.7700 C.2   171  VAL171      0.2616
    147  O         27.4490   14.2570    9.4950 O.2   171  VAL171     -0.2715
    148  CB        29.6520   15.0540    7.7720 C.3   171  VAL171      0.0290
    149  CG1       28.8900   16.1200    6.9750 C.3   171  VAL171      0.0023
    150  CG2       31.0900   14.9720    7.3240 C.3   171  VAL171      0.0023
    151  N         27.7050   16.2230   10.5250 N.am  172  CYS172     -0.1968
    152  CA        26.4050   16.1390   11.0920 C.3   172  CYS172      0.1712
    153  C         25.4570   17.3250   11.0170 C.2   172  CYS172      0.2296
    154  O         25.8490   18.4300   10.8460 O.2   172  CYS172     -0.2864
    155  CB        26.5570   15.7370   12.5300 C.3   172  CYS172      0.0983
    156  SG        26.7660   17.0870   13.5930 S.3   172  CYS172     -0.0798
    157  N         34.2130   12.2190    8.2910 N.3   181  GLN181     -0.1245
    158  CA        35.3340   12.9620    7.7400 C.3   181  GLN181      0.1566
    159  C         36.5910   12.3660    8.3800 C.2   181  GLN181      0.2260
    160  O         36.6100   12.0590    9.5750 O.2   181  GLN181     -0.2867
    161  CB        35.1640   14.4610    8.0210 C.3   181  GLN181      0.0367
    162  CG        35.9350   15.4010    7.0930 C.3   181  GLN181      0.0905
    163  CD        37.2920   15.7710    7.6400 C.2   181  GLN181      0.2608
    164  OE1       37.7410   15.2130    8.6420 O.2   181  GLN181     -0.2717
    165  NE2       37.9570   16.7190    6.9950 N.am  181  GLN181     -0.0878
@<TRIPOS>BOND
     1   149   148    1
     2   165   163   am
     3   162   163    1
     4   162   161    1
     5   150   148    1
     6   132   131    1
     7   163   164    2
     8   158   161    1
     9   158   157    1
    10   158   159    1
    11   148   145    1
    12   159   160    2
    13   131   133    1
    14   131   130    2
    15   145   146    1
    16   145   144    1
    17   147   146    2
    18   130   129    1
    19   146   151   am
    20    68    66   ar
    21   144   141   am
    22    65    66    1
    23    65    62    1
    24    64    63    2
    25   151   152    1
    26    66    67   ar
    27    63    62    1
    28   154   153    2
    29   137   136    2
    30   153   152    1
    31   129   128    1
    32   152   155    1
    33   141   142    2
    34   141   140    1
    35    62    61    1
    36   112   113    1
    37   127   128    1
    38   127   124    1
    39   113   114    1
    40   113   116    1
    41   123   114   am
    42   123   124    1
    43   118   120   ar
    44   118   117   ar
    45   136   135    1
    46   136   139   am
    47   140   139    1
    48   140   143    1
    49   138   135    1
    50   120   122   ar
    51   134   135    1
    52   134   125   am
    53   114   115    2
    54   116   117    1
    55    61    56   am
    56   124   125    1
    57   155   156    1
    58    69    70    1
    59   117   119   ar
    60   125   126    2
    61   122   121   ar
    62    91    90    1
    63    56    57    2
    64    56    55    1
    65    73    70    1
    66    73    74    1
    67   119   121   ar
    68    70    71    1
    69    71    72    2
    70    54    55    1
    71    92    90    1
    72    90    89    1
    73    55    58    1
    74    76    74   ar
    75    74    75   ar
    76    84    82    1
    77    58    59    1
    78    58    60    1
    79    89    86    1
    80    82    83    1
    81    82    81    1
    82   107   108    1
    83   107   110    1
    84   107   106    1
    85   108   109    2
    86   110   111    1
    87    77    78    1
    88    86    85    1
    89    86    87    1
    90    48    46   ar
    91    48    49   ar
    92    46    45   ar
    93    78    81    1
    94    78    79    1
    95    28    29    1
    96    32    29    1
    97    32    33    1
    98    88    87    2
    99    87    93   am
   100    49    47   ar
   101    29    30    1
   102    33    35   ar
   103    33    34   ar
   104    79    80    2
   105    45    44    1
   106    45    47   ar
   107    35    37   ar
   108    34    36   ar
   109    40    30   am
   110    40    41    1
   111    93    94    1
   112    44    41    1
   113    30    31    2
   114    37    38   ar
   115    36    38   ar
   116    41    42    1
   117    94    95    1
   118    94    97    1
   119    38    39    1
   120   104   105    2
   121   104   103    1
   122    95   102   am
   123    95    96    2
   124   102   103    1
   125    50    42   am
   126    50    51    1
   127    42    43    2
   128    97    98    1
   129    24    26   ar
   130    24    22   ar
   131    21    18    1
   132    21    22    1
   133    19    18    1
   134    19    20    2
   135    26    27   ar
   136    18    17    1
   137    51    52    1
   138    22    23   ar
   139    98    99    1
   140    52    53    2
   141    27    25   ar
   142    99   100    1
   143    23    25   ar
   144    17    12   am
   145    13    12    2
   146    12    11    1
   147   100   101    1
   148    15    14    1
   149     8     7    2
   150    11    14    1
   151    11    10    1
   152    14    16    1
   153     9     7   am
   154     7     6    1
   155    10     3   am
   156     5     6    1
   157     5     2    1
   158     3     4    2
   159     3     2    1
   160     2     1    1
