@<TRIPOS>MOLECULE
tmp/5eqtA00.pdb
 135 129 0 0 0
SMALL
GASTEIGER

@<TRIPOS>ATOM
      1  N        -28.2410  -14.6060   11.7150 N.3     6  ASP6       -0.1225
      2  CA       -29.0620  -13.4120   11.5750 C.3     6  ASP6        0.1805
      3  C        -28.2810  -12.1640   11.9690 C.2     6  ASP6        0.2598
      4  O        -28.8500  -11.0740   12.0980 O.2     6  ASP6       -0.2718
      5  CB       -30.3360  -13.5480   12.4150 C.3     6  ASP6        0.1424
      6  CG       -31.1660  -14.7460   12.0070 C.2     6  ASP6        0.3668
      7  OD1      -31.5390  -14.8180   10.8100 O.co2   6  ASP6       -0.2456
      8  OD2      -31.4650  -15.6010   12.8730 O.co2   6  ASP6       -0.2456
      9  N        -26.9930  -12.3380   12.1680 N.am    7  ILE7       -0.1966
     10  CA       -26.1380  -11.3160   12.6950 C.3     7  ILE7        0.1727
     11  C        -25.0030  -10.9830   11.7460 C.2     7  ILE7        0.2616
     12  O        -24.2710  -11.8500   11.3650 O.2     7  ILE7       -0.2715
     13  CB       -25.5400  -11.8040   14.0140 C.3     7  ILE7        0.0290
     14  CG1      -26.6260  -12.0010   15.0480 C.3     7  ILE7        0.0022
     15  CG2      -24.5250  -10.8310   14.5450 C.3     7  ILE7        0.0023
     16  CD1      -26.1140  -12.4950   16.3660 C.3     7  ILE7        0.0001
     17  N        -24.8390   -9.7220   11.3730 N.am    8  GLY8       -0.1955
     18  CA       -23.7500   -9.3820   10.4440 C.3     8  GLY8        0.1869
     19  C        -22.7390   -8.4340   11.0720 C.2     8  GLY8        0.2309
     20  O        -23.0990   -7.6630   11.9700 O.2     8  GLY8       -0.2863
     21  N        -20.2050   -8.8020   13.0940 N.3    10  LEU10      -0.1245
     22  CA       -19.7850   -8.9520   14.4880 C.3    10  LEU10       0.1561
     23  C        -19.0400  -10.2580   14.7110 C.2    10  LEU10       0.2260
     24  O        -19.1290  -10.8520   15.7870 O.2    10  LEU10      -0.2867
     25  CB       -20.9970   -8.8630   15.4050 C.3    10  LEU10       0.0270
     26  CG       -21.6670   -7.4780   15.4310 C.3    10  LEU10       0.0019
     27  CD1      -22.9970   -7.5560   16.1350 C.3    10  LEU10       0.0001
     28  CD2      -20.7700   -6.4430   16.1050 C.3    10  LEU10       0.0001
     29  N        -26.8170    2.1610   20.5010 N.3    48  PRO48      -0.2102
     30  CA       -28.0600    1.4300   20.3550 C.3    48  PRO48       0.1504
     31  C        -28.2180    0.8130   19.0030 C.2    48  PRO48       0.2576
     32  O        -27.7340    1.3270   18.0430 O.2    48  PRO48      -0.2718
     33  CB       -29.1290    2.5030   20.5200 C.3    48  PRO48       0.0282
     34  CG       -28.4220    3.7850   20.7100 C.3    48  PRO48       0.0208
     35  CD       -27.0130    3.5000   21.0480 C.3    48  PRO48       0.0893
     36  N        -28.9220   -0.2970   18.9590 N.am   49  GLY49      -0.1943
     37  CA       -29.2990   -0.9420   17.7360 C.3    49  GLY49       0.2014
     38  C        -28.1710   -1.5040   16.9480 C.2    49  GLY49       0.2639
     39  O        -28.2590   -1.5610   15.7630 O.2    49  GLY49      -0.2714
     40  N        -27.1230   -1.9500   17.5930 N.am   50  CYS50      -0.1953
     41  CA       -26.0160   -2.4940   16.8650 C.3    50  CYS50       0.1843
     42  C        -25.7650   -3.9830   17.0510 C.2    50  CYS50       0.2626
     43  O        -24.7770   -4.4890   16.5890 O.2    50  CYS50      -0.2714
     44  CB       -24.7730   -1.6960   17.1590 C.3    50  CYS50       0.0997
     45  SG       -24.8380   -0.0270   16.5220 S.3    50  CYS50      -0.0797
     46  N        -26.6780   -4.6870   17.6960 N.am   51  GLY51      -0.1940
     47  CA       -26.5810   -6.1230   17.7800 C.3    51  GLY51       0.2014
     48  C        -26.4160   -6.7630   19.1400 C.2    51  GLY51       0.2639
     49  O        -26.3400   -7.9550   19.2520 O.2    51  GLY51      -0.2714
     50  N        -26.4280   -5.9680   20.1890 N.am   52  LYS52      -0.1963
     51  CA       -26.1850   -6.5050   21.5120 C.3    52  LYS52       0.1728
     52  C        -27.2440   -7.5050   21.9220 C.2    52  LYS52       0.2617
     53  O        -26.9380   -8.5850   22.2950 O.2    52  LYS52      -0.2715
     54  CB       -26.0670   -5.4030   22.5500 C.3    52  LYS52       0.0311
     55  CG       -25.0330   -4.3600   22.2380 C.3    52  LYS52       0.0038
     56  CD       -24.8500   -3.4820   23.4350 C.3    52  LYS52       0.0206
     57  CE       -25.1740   -2.0510   23.1600 C.3    52  LYS52       0.1093
     58  NZ       -26.4790   -1.8550   22.5290 N.3    52  LYS52      -0.1314
     59  N        -28.4940   -7.1200   21.8400 N.am   53  THR53      -0.1937
     60  CA       -29.5670   -8.0410   22.1350 C.3    53  THR53       0.2028
     61  C        -29.5520   -9.2360   21.1820 C.2    53  THR53       0.2642
     62  O        -29.8090  -10.3390   21.5770 O.2    53  THR53      -0.2714
     63  CB       -30.9340   -7.3660   22.0570 C.3    53  THR53       0.1808
     64  OG1      -30.9120   -6.1350   22.7610 O.3    53  THR53      -0.2208
     65  CG2      -31.9720   -8.2260   22.6660 C.3    53  THR53       0.0379
     66  N        -29.2250   -9.0040   19.9270 N.am   54  LEU54      -0.1977
     67  CA       -29.1430  -10.0680   18.9490 C.3    54  LEU54       0.1596
     68  C        -28.1440  -11.1360   19.3470 C.2    54  LEU54       0.2287
     69  O        -28.4710  -12.2820   19.3680 O.2    54  LEU54      -0.2864
     70  CB       -28.7500   -9.5120   17.5920 C.3    54  LEU54       0.0297
     71  CG       -29.7930   -8.9820   16.6290 C.3    54  LEU54       0.0022
     72  CD1      -29.2540   -8.8880   15.2180 C.3    54  LEU54       0.0001
     73  CD2      -31.0550   -9.8100   16.6610 C.3    54  LEU54       0.0001
     74  N        -30.7110  -11.3740   30.3350 N.3   103  PHE103     -0.1241
     75  CA       -30.1890  -10.2560   29.5750 C.3   103  PHE103      0.1605
     76  C        -30.7490   -8.9760   30.1220 C.2   103  PHE103      0.2264
     77  O        -31.9280   -8.6610   29.9180 O.2   103  PHE103     -0.2867
     78  CB       -30.5180  -10.3930   28.0900 C.3   103  PHE103      0.0534
     79  CG       -29.9910   -9.2610   27.2630 C.ar  103  PHE103     -0.0203
     80  CD1      -28.6270   -9.1590   27.0010 C.ar  103  PHE103     -0.0042
     81  CD2      -30.8490   -8.2780   26.7830 C.ar  103  PHE103     -0.0042
     82  CE1      -28.1260   -8.0920   26.2530 C.ar  103  PHE103     -0.0003
     83  CE2      -30.3530   -7.2120   26.0020 C.ar  103  PHE103     -0.0003
     84  CZ       -28.9980   -7.1220   25.7600 C.ar  103  PHE103     -0.0000
     85  N        -30.8150   -5.2700   29.8000 N.3   105  ASP105     -0.1239
     86  CA       -30.5270   -4.1290   28.9740 C.3   105  ASP105      0.1674
     87  C        -30.4710   -2.9120   29.8450 C.2   105  ASP105      0.2266
     88  O        -31.0440   -2.9030   30.9020 O.2   105  ASP105     -0.2867
     89  CB       -31.5890   -3.9470   27.9200 C.3   105  ASP105      0.1410
     90  CG       -31.0750   -3.2440   26.6980 C.2   105  ASP105      0.3668
     91  OD1      -30.0940   -2.5090   26.7800 O.co2 105  ASP105     -0.2456
     92  OD2      -31.6670   -3.4350   25.6390 O.co2 105  ASP105     -0.2456
     93  N        -24.4340   -6.6460    7.1480 N.3   176  ILE176     -0.1245
     94  CA       -25.7500   -6.4910    7.7620 C.3   176  ILE176      0.1561
     95  C        -26.8250   -6.3100    6.7110 C.2   176  ILE176      0.2260
     96  O        -27.9210   -6.8830    6.8230 O.2   176  ILE176     -0.2867
     97  CB       -25.7970   -5.2850    8.7620 C.3   176  ILE176      0.0252
     98  CG1      -24.9580   -5.5980   10.0000 C.3   176  ILE176      0.0019
     99  CG2      -27.2130   -4.9900    9.2030 C.3   176  ILE176      0.0019
    100  CD1      -24.4750   -4.3800   10.6900 C.3   176  ILE176      0.0001
    101  N        -27.8070   -9.5720    5.3860 N.3   179  VAL179     -0.1231
    102  CA       -28.6740  -10.3020    6.3080 C.3   179  VAL179      0.1692
    103  C        -30.1460   -9.9130    6.1430 C.2   179  VAL179      0.2592
    104  O        -31.0400  -10.7570    6.1640 O.2   179  VAL179     -0.2718
    105  CB       -28.2510  -10.0630    7.7710 C.3   179  VAL179      0.0266
    106  CG1      -29.3350  -10.5640    8.7370 C.3   179  VAL179      0.0020
    107  CG2      -26.9340  -10.7600    8.0490 C.3   179  VAL179      0.0020
    108  N        -30.4110   -8.6330    5.9430 N.am  180  HIS180     -0.1976
    109  CA       -31.8000   -8.2020    5.8760 C.3   180  HIS180      0.1656
    110  C        -32.3200   -7.9880    4.4570 C.2   180  HIS180      0.2291
    111  O        -33.4000   -7.4060    4.2840 O.2   180  HIS180     -0.2864
    112  CB       -31.9850   -6.9260    6.6850 C.3   180  HIS180      0.0771
    113  CG       -31.7250   -7.1030    8.1540 C.ar  180  HIS180      0.0820
    114  ND1      -32.6780   -7.6120    9.0110 N.ar  180  HIS180     -0.2267
    115  CD2      -30.6400   -6.8330    8.9140 C.ar  180  HIS180      0.1154
    116  CE1      -32.1910   -7.6460   10.2410 C.ar  180  HIS180      0.1986
    117  NE2      -30.9530   -7.1790   10.2120 N.ar  180  HIS180     -0.2212
    118  N        -27.1860   -1.0180   13.0420 N.3   203  GLY203     -0.1210
    119  CA       -27.7520   -2.2190   12.4980 C.3   203  GLY203      0.1956
    120  C        -29.2290   -2.0880   12.3270 C.2   203  GLY203      0.2611
    121  O        -29.7920   -2.6760   11.4640 O.2   203  GLY203     -0.2717
    122  N        -29.8570   -1.2890   13.1510 N.am  204  ALA204     -0.1979
    123  CA       -31.2810   -1.1510   13.0890 C.3   204  ALA204      0.1597
    124  C        -31.6850   -0.2820   11.9380 C.2   204  ALA204      0.2287
    125  O        -32.6300   -0.5790   11.2660 O.2   204  ALA204     -0.2864
    126  CB       -31.8160   -0.5830   14.3800 C.3   204  ALA204      0.0319
    127  N        -31.5760   -2.3280    8.8180 N.3   207  LYS207     -0.1245
    128  CA       -32.7490   -3.1660    8.6980 C.3   207  LYS207      0.1561
    129  C        -33.9080   -2.3340    8.2700 C.2   207  LYS207      0.2260
    130  O        -34.6930   -2.7390    7.4650 O.2   207  LYS207     -0.2867
    131  CB       -33.1190   -3.8180   10.0150 C.3   207  LYS207      0.0271
    132  CG       -34.5280   -4.3670   10.0240 C.3   207  LYS207      0.0035
    133  CD       -34.6910   -5.5510   10.9510 C.3   207  LYS207      0.0206
    134  CE       -36.1260   -6.0220   11.0280 C.3   207  LYS207      0.1093
    135  NZ       -36.3270   -6.9120   12.1940 N.3   207  LYS207     -0.1314
@<TRIPOS>BOND
     1   111   110    2
     2   110   109    1
     3   101   102    1
     4   109   108    1
     5   109   112    1
     6   108   103   am
     7   103   104    2
     8   103   102    1
     9   102   105    1
    10   112   113    1
    11    95    96    2
    12    95    94    1
    13    93    94    1
    14   130   129    2
    15    94    97    1
    16   105   107    1
    17   105   106    1
    18   113   115   ar
    19   113   114   ar
    20   129   128    1
    21   128   127    1
    22   128   131    1
    23    97    99    1
    24    97    98    1
    25   115   117   ar
    26   114   116   ar
    27    98   100    1
    28   131   132    1
    29   132   133    1
    30   117   116   ar
    31    18    19    1
    32    18    17    1
    33     7     6   ar
    34   133   134    1
    35   134   135    1
    36    19    20    2
    37   125   124    2
    38    12    11    2
    39    17    11   am
    40   121   120    2
    41     2     1    1
    42     2     3    1
    43     2     5    1
    44    11    10    1
    45   124   123    1
    46     3     4    2
    47     3     9   am
    48     6     5    1
    49     6     8   ar
    50     9    10    1
    51   120   119    1
    52   120   122   am
    53   119   118    1
    54    10    13    1
    55   123   122    1
    56   123   126    1
    57    21    22    1
    58    13    15    1
    59    13    14    1
    60    22    23    1
    61    22    25    1
    62    23    24    2
    63    14    16    1
    64    72    71    1
    65    25    26    1
    66    26    28    1
    67    26    27    1
    68    39    38    2
    69    45    44    1
    70    43    42    2
    71    71    73    1
    72    71    70    1
    73    41    42    1
    74    41    44    1
    75    41    40    1
    76    38    40   am
    77    38    37    1
    78    42    46   am
    79    70    67    1
    80    46    47    1
    81    37    36    1
    82    47    48    1
    83    32    31    2
    84    67    68    1
    85    67    66    1
    86    36    31   am
    87    31    30    1
    88    48    49    2
    89    48    50   am
    90    68    69    2
    91    66    61   am
    92    50    51    1
    93    30    29    1
    94    30    33    1
    95    29    35    1
    96    33    34    1
    97    34    35    1
    98    61    62    2
    99    61    60    1
   100    51    52    1
   101    51    54    1
   102    59    52   am
   103    59    60    1
   104    52    53    2
   105    63    60    1
   106    63    65    1
   107    63    64    1
   108    55    54    1
   109    55    56    1
   110    58    57    1
   111    57    56    1
   112    92    90   ar
   113    84    83   ar
   114    84    82   ar
   115    83    81   ar
   116    82    80   ar
   117    90    91   ar
   118    90    89    1
   119    81    79   ar
   120    80    79   ar
   121    79    78    1
   122    89    86    1
   123    78    75    1
   124    86    85    1
   125    86    87    1
   126    75    76    1
   127    75    74    1
   128    87    88    2
   129    77    76    2
