@<TRIPOS>MOLECULE
tmp/5eqvA02.pdb
 93 95 0 0 0
SMALL
GASTEIGER

@<TRIPOS>ATOM
      1  N         -1.8100   28.3190    3.8270 N.3    17  ASN17      -0.1240
      2  CA        -2.5340   27.2460    3.1080 C.3    17  ASN17       0.1653
      3  C         -3.8200   26.9230    3.8710 C.2    17  ASN17       0.2266
      4  O         -3.9070   25.9300    4.6290 O.2    17  ASN17      -0.2867
      5  CB        -1.6840   25.9900    2.9610 C.3    17  ASN17       0.1155
      6  CG        -0.5690   26.1730    1.9770 C.2    17  ASN17       0.2627
      7  OD1       -0.7890   26.2270    0.7540 O.2    17  ASN17      -0.2716
      8  ND2        0.6410   26.3380    2.4940 N.am   17  ASN17      -0.0877
      9  N         -6.1130   23.1340   -1.6250 N.3    21  PHE21      -0.1227
     10  CA        -6.1660   23.4660   -3.0580 C.3    21  PHE21       0.1736
     11  C         -4.8040   23.9860   -3.4820 C.2    21  PHE21       0.2595
     12  O         -4.1540   24.7900   -2.7840 O.2    21  PHE21      -0.2718
     13  CB        -7.2300   24.5500   -3.2830 C.3    21  PHE21       0.0547
     14  CG        -7.6220   24.7610   -4.7210 C.ar   21  PHE21      -0.0202
     15  CD1       -8.6380   24.0020   -5.2790 C.ar   21  PHE21      -0.0042
     16  CD2       -7.0290   25.7470   -5.4810 C.ar   21  PHE21      -0.0042
     17  CE1       -9.0680   24.2020   -6.5850 C.ar   21  PHE21      -0.0003
     18  CE2       -7.4510   25.9570   -6.7960 C.ar   21  PHE21      -0.0003
     19  CZ        -8.4650   25.1900   -7.3330 C.ar   21  PHE21      -0.0000
     20  N         -4.3720   23.4790   -4.6360 N.am   22  ASP22      -0.1960
     21  CA        -3.1050   23.8720   -5.2430 C.3    22  ASP22       0.1840
     22  C         -3.4660   24.8990   -6.3190 C.2    22  ASP22       0.2622
     23  O         -4.0350   24.5420   -7.3570 O.2    22  ASP22      -0.2715
     24  CB        -2.4260   22.6520   -5.8270 C.3    22  ASP22       0.1450
     25  CG        -1.0880   22.9760   -6.4890 C.2    22  ASP22       0.3671
     26  OD1       -0.9100   24.0970   -7.0090 O.co2  22  ASP22      -0.2456
     27  OD2       -0.1990   22.0900   -6.4690 O.co2  22  ASP22      -0.2456
     28  N         -3.1660   26.1720   -6.0540 N.am   23  TYR23      -0.1960
     29  CA        -3.5720   27.2570   -6.9770 C.3    23  TYR23       0.1771
     30  C         -2.7550   27.3030   -8.2730 C.2    23  TYR23       0.2619
     31  O         -3.2110   27.8720   -9.2470 O.2    23  TYR23      -0.2715
     32  CB        -3.5660   28.6170   -6.2660 C.3    23  TYR23       0.0574
     33  CG        -4.6380   28.6910   -5.2010 C.ar   23  TYR23      -0.0198
     34  CD1       -5.9270   29.0980   -5.5030 C.ar   23  TYR23      -0.0009
     35  CD2       -4.3760   28.2750   -3.9010 C.ar   23  TYR23      -0.0009
     36  CE1       -6.9220   29.1340   -4.5390 C.ar   23  TYR23       0.0417
     37  CE2       -5.3620   28.3210   -2.9220 C.ar   23  TYR23       0.0417
     38  CZ        -6.6360   28.7330   -3.2490 C.ar   23  TYR23       0.1957
     39  OH        -7.6290   28.7570   -2.3210 O.3    23  TYR23      -0.2866
     40  N         -1.5730   26.6990   -8.2760 N.am   24  TYR24      -0.1974
     41  CA        -0.7350   26.7040   -9.5020 C.3    24  TYR24       0.1639
     42  C         -1.2380   25.6450  -10.4630 C.2    24  TYR24       0.2290
     43  O         -1.2650   25.8740  -11.6780 O.2    24  TYR24      -0.2864
     44  CB         0.7280   26.5410   -9.1350 C.3    24  TYR24       0.0560
     45  CG         1.2280   27.6810   -8.2590 C.ar   24  TYR24      -0.0198
     46  CD1        1.0940   29.0130   -8.6690 C.ar   24  TYR24      -0.0009
     47  CD2        1.8260   27.4440   -7.0340 C.ar   24  TYR24      -0.0009
     48  CE1        1.5380   30.0560   -7.8770 C.ar   24  TYR24       0.0417
     49  CE2        2.2870   28.4880   -6.2520 C.ar   24  TYR24       0.0417
     50  CZ         2.1340   29.7870   -6.6790 C.ar   24  TYR24       0.1957
     51  OH         2.5780   30.8250   -5.8920 O.3    24  TYR24      -0.2866
     52  N         -2.7280   18.7880    1.9690 N.3    32  PHE32      -0.1241
     53  CA        -2.4570   19.9400    2.8340 C.3    32  PHE32       0.1605
     54  C         -3.7220   20.7770    2.9620 C.2    32  PHE32       0.2264
     55  O         -4.7150   20.5320    2.2830 O.2    32  PHE32      -0.2867
     56  CB        -1.2490   20.7980    2.3340 C.3    32  PHE32       0.0534
     57  CG        -1.4210   21.4250    0.9730 C.ar   32  PHE32      -0.0203
     58  CD1       -2.2440   22.5220    0.7710 C.ar   32  PHE32      -0.0042
     59  CD2       -0.6990   20.9380   -0.1050 C.ar   32  PHE32      -0.0042
     60  CE1       -2.3510   23.1250   -0.4780 C.ar   32  PHE32      -0.0003
     61  CE2       -0.8210   21.5280   -1.3680 C.ar   32  PHE32      -0.0003
     62  CZ        -1.6520   22.6270   -1.5480 C.ar   32  PHE32      -0.0000
     63  N          3.4300   32.6930    2.6160 N.3    62  GLY62      -0.1210
     64  CA         4.0490   31.5180    2.0050 C.3    62  GLY62       0.1956
     65  C          3.2410   30.6660    1.0430 C.2    62  GLY62       0.2613
     66  O          3.6850   29.5690    0.6970 O.2    62  GLY62      -0.2717
     67  N          2.0960   31.1670    0.5930 N.am   63  SER63      -0.1938
     68  CA         1.2900   30.4660   -0.4030 C.3    63  SER63       0.2040
     69  C          0.4540   31.5110   -1.1300 C.2    63  SER63       0.2485
     70  O          0.4220   32.6860   -0.7370 O.2    63  SER63      -0.2729
     71  CB         0.4100   29.3740    0.2170 C.3    63  SER63       0.2129
     72  OG        -0.6800   29.9410    0.8900 O.3    63  SER63      -0.2179
     73  N         -0.2430   31.0930   -2.2010 N.am   64  PRO64      -0.2726
     74  CA        -0.9620   32.1160   -2.9460 C.3    64  PRO64       0.1402
     75  C         -1.9590   32.9650   -2.1790 C.2    64  PRO64       0.2269
     76  O         -2.0910   34.1630   -2.4870 O.2    64  PRO64      -0.2865
     77  CB        -1.6110   31.3180   -4.0610 C.3    64  PRO64       0.0296
     78  CG        -0.6120   30.2120   -4.2970 C.3    64  PRO64       0.0237
     79  CD        -0.2060   29.8110   -2.9250 C.3    64  PRO64       0.0939
     80  N          2.2130   23.0830    6.4130 N.3   273  TRP273     -0.1241
     81  CA         1.0660   23.3860    5.5680 C.3   273  TRP273      0.1605
     82  C         -0.2140   22.7110    6.0180 C.2   273  TRP273      0.2264
     83  O         -1.1520   22.5630    5.2510 O.2   273  TRP273     -0.2867
     84  CB         1.3320   23.0400    4.0870 C.3   273  TRP273      0.0550
     85  CG         2.6590   23.4910    3.5290 C.ar  273  TRP273      0.0003
     86  CD1        3.4450   24.5140    3.9670 C.ar  273  TRP273      0.0946
     87  CD2        3.3150   22.9220    2.3960 C.ar  273  TRP273      0.0152
     88  NE1        4.5700   24.6100    3.1730 N.ar  273  TRP273     -0.2442
     89  CE2        4.5190   23.6320    2.2080 C.ar  273  TRP273      0.0810
     90  CE3        3.0210   21.8470    1.5430 C.ar  273  TRP273      0.0012
     91  CZ2        5.4370   23.2980    1.1970 C.ar  273  TRP273      0.0191
     92  CZ3        3.9290   21.5280    0.5280 C.ar  273  TRP273      0.0001
     93  CH2        5.1180   22.2540    0.3700 C.ar  273  TRP273      0.0015
@<TRIPOS>BOND
     1    43    42    2
     2    42    41    1
     3    41    44    1
     4    41    40    1
     5    31    30    2
     6    44    45    1
     7    46    45   ar
     8    46    48   ar
     9    40    30   am
    10    30    29    1
    11    45    47   ar
    12    48    50   ar
    13    23    22    2
    14    19    18   ar
    15    19    17   ar
    16    47    49   ar
    17    26    25   ar
    18    29    32    1
    19    29    28    1
    20    18    16   ar
    21    50    49   ar
    22    50    51    1
    23    17    15   ar
    24    25    27   ar
    25    25    24    1
    26    22    28   am
    27    22    21    1
    28    32    33    1
    29    24    21    1
    30    34    33   ar
    31    34    36   ar
    32    16    14   ar
    33    15    14   ar
    34    21    20    1
    35    33    35   ar
    36    14    13    1
    37    20    11   am
    38    36    38   ar
    39    78    77    1
    40    78    79    1
    41    77    74    1
    42    35    37   ar
    43    11    10    1
    44    11    12    2
    45    13    10    1
    46    38    37   ar
    47    38    39    1
    48    10     9    1
    49    74    73    1
    50    74    75    1
    51    79    73    1
    52    76    75    2
    53    73    69   am
    54    62    61   ar
    55    62    60   ar
    56    61    59   ar
    57    69    70    2
    58    69    68    1
    59    60    58   ar
    60    68    71    1
    61    68    67    1
    62    59    57   ar
    63    71    72    1
    64    93    92   ar
    65    93    91   ar
    66    92    90   ar
    67    67    65   am
    68    66    65    2
    69     7     6    2
    70    58    57   ar
    71    57    56    1
    72    65    64    1
    73    91    89   ar
    74    90    87   ar
    75    52    53    1
    76     6     8   am
    77     6     5    1
    78    64    63    1
    79    89    87   ar
    80    89    88   ar
    81    55    54    2
    82    56    53    1
    83    87    85   ar
    84    53    54    1
    85     5     2    1
    86     2     1    1
    87     2     3    1
    88    88    86   ar
    89    85    86   ar
    90    85    84    1
    91     3     4    2
    92    84    81    1
    93    83    82    2
    94    81    82    1
    95    81    80    1
