@<TRIPOS>MOLECULE
tmp/5eqyB00.pdb
 172 171 0 0 0
SMALL
GASTEIGER

@<TRIPOS>ATOM
      1  N         27.2770   37.4180   37.1080 N.3   200  ASP200     -0.1239
      2  CA        28.4930   36.6820   37.4400 C.3   200  ASP200      0.1674
      3  C         28.1800   35.3710   38.1250 C.2   200  ASP200      0.2266
      4  O         28.8280   35.0010   39.0930 O.2   200  ASP200     -0.2867
      5  CB        29.4180   37.5170   38.3340 C.3   200  ASP200      0.1410
      6  CG        30.8380   36.9510   38.3970 C.2   200  ASP200      0.3668
      7  OD1       31.1980   36.1460   37.5140 O.co2 200  ASP200     -0.2456
      8  OD2       31.5890   37.3080   39.3270 O.co2 200  ASP200     -0.2456
      9  N         28.5110   32.2470   38.7260 N.3   202  GLN202     -0.1245
     10  CA        29.3680   31.0820   38.6160 C.3   202  GLN202      0.1566
     11  C         29.3840   30.3990   39.9740 C.2   202  GLN202      0.2260
     12  O         28.9860   30.9940   40.9760 O.2   202  GLN202     -0.2867
     13  CB        30.7890   31.5110   38.2110 C.3   202  GLN202      0.0367
     14  CG        31.4180   32.5680   39.1300 C.3   202  GLN202      0.0905
     15  CD        32.9410   32.7410   38.9390 C.2   202  GLN202      0.2608
     16  OE1       33.4710   32.6620   37.8180 O.2   202  GLN202     -0.2717
     17  NE2       33.6440   32.9870   40.0450 N.am  202  GLN202     -0.0878
     18  N         31.4410   29.7840   42.2650 N.3   204  GLY204     -0.1225
     19  CA        32.0880   30.4090   43.4100 C.3   204  GLY204      0.1811
     20  C         31.2020   31.4510   44.0730 C.2   204  GLY204      0.2280
     21  O         31.4730   31.8740   45.2000 O.2   204  GLY204     -0.2866
     22  N         28.9520   42.7180   40.0460 N.3   227  TYR227     -0.1241
     23  CA        28.8270   43.0770   38.6360 C.3   227  TYR227      0.1605
     24  C         27.3660   43.2770   38.2150 C.2   227  TYR227      0.2264
     25  O         27.0720   43.5260   37.0400 O.2   227  TYR227     -0.2867
     26  CB        29.4750   41.9990   37.7510 C.3   227  TYR227      0.0534
     27  CG        30.9750   41.8980   37.9010 C.ar  227  TYR227     -0.0201
     28  CD1       31.5370   41.0960   38.8790 C.ar  227  TYR227     -0.0009
     29  CD2       31.8280   42.6150   37.0690 C.ar  227  TYR227     -0.0009
     30  CE1       32.9100   41.0110   39.0360 C.ar  227  TYR227      0.0417
     31  CE2       33.2030   42.5360   37.2090 C.ar  227  TYR227      0.0417
     32  CZ        33.7400   41.7300   38.2000 C.ar  227  TYR227      0.1957
     33  OH        35.1070   41.6430   38.3660 O.3   227  TYR227     -0.2866
     34  N         29.4900   28.7880   32.4780 N.3   243  GLU243     -0.1245
     35  CA        30.2300   28.4190   33.6750 C.3   243  GLU243      0.1567
     36  C         30.2450   26.9240   33.9550 C.2   243  GLU243      0.2260
     37  O         31.0150   26.4550   34.7840 O.2   243  GLU243     -0.2867
     38  CB        29.6850   29.1580   34.8950 C.3   243  GLU243      0.0388
     39  CG        30.0560   30.6310   34.9530 C.3   243  GLU243      0.1160
     40  CD        31.5640   30.8810   35.0560 C.2   243  GLU243      0.3649
     41  OE1       31.9880   32.0290   34.8240 O.co2 243  GLU243     -0.2457
     42  OE2       32.3310   29.9540   35.3650 O.co2 243  GLU243     -0.2457
     43  N         37.5220   26.3410   38.3180 N.3   248  TYR248     -0.1227
     44  CA        38.5690   27.2290   38.7810 C.3   248  TYR248      0.1736
     45  C         39.3110   26.6980   39.9830 C.2   248  TYR248      0.2596
     46  O         40.0370   27.4320   40.6280 O.2   248  TYR248     -0.2718
     47  CB        37.9730   28.5890   39.1160 C.3   248  TYR248      0.0548
     48  CG        37.1740   29.1690   37.9720 C.ar  248  TYR248     -0.0200
     49  CD1       37.8050   29.6070   36.8000 C.ar  248  TYR248     -0.0009
     50  CD2       35.7930   29.2650   38.0500 C.ar  248  TYR248     -0.0009
     51  CE1       37.0800   30.1210   35.7480 C.ar  248  TYR248      0.0417
     52  CE2       35.0590   29.7770   36.9990 C.ar  248  TYR248      0.0417
     53  CZ        35.7030   30.2050   35.8510 C.ar  248  TYR248      0.1957
     54  OH        34.9510   30.7230   34.8230 O.3   248  TYR248     -0.2866
     55  N         39.1340   25.4270   40.3060 N.am  249  SER249     -0.1938
     56  CA        39.7480   24.9080   41.5260 C.3   249  SER249      0.2055
     57  C         41.0120   24.1070   41.1980 C.2   249  SER249      0.2643
     58  O         41.7150   23.6280   42.0880 O.2   249  SER249     -0.2714
     59  CB        38.7480   24.0390   42.2880 C.3   249  SER249      0.2130
     60  OG        38.4090   22.8890   41.5340 O.3   249  SER249     -0.2179
     61  N         41.2860   23.9720   39.9050 N.am  250  TYR250     -0.1959
     62  CA        42.4980   23.3190   39.4400 C.3   250  TYR250      0.1771
     63  C         43.7190   23.9050   40.1410 C.2   250  TYR250      0.2619
     64  O         43.8650   25.1230   40.2340 O.2   250  TYR250     -0.2715
     65  CB        42.6310   23.5060   37.9360 C.3   250  TYR250      0.0574
     66  CG        43.6630   22.6090   37.3050 C.ar  250  TYR250     -0.0198
     67  CD1       43.8820   21.3230   37.7890 C.ar  250  TYR250     -0.0009
     68  CD2       44.3980   23.0320   36.1980 C.ar  250  TYR250     -0.0009
     69  CE1       44.8040   20.4820   37.1820 C.ar  250  TYR250      0.0417
     70  CE2       45.3170   22.1980   35.5890 C.ar  250  TYR250      0.0417
     71  CZ        45.5150   20.9280   36.0830 C.ar  250  TYR250      0.1957
     72  OH        46.4220   20.0990   35.4700 O.3   250  TYR250     -0.2866
     73  N         44.5940   23.0280   40.6200 N.am  251  GLU251     -0.1977
     74  CA        45.6770   23.4180   41.5190 C.3   251  GLU251      0.1602
     75  C         47.0090   23.7020   40.8170 C.2   251  GLU251      0.2287
     76  O         47.9150   24.2670   41.4240 O.2   251  GLU251     -0.2864
     77  CB        45.8870   22.3370   42.5820 C.3   251  GLU251      0.0415
     78  CG        44.6920   21.4110   42.7640 C.3   251  GLU251      0.1163
     79  CD        44.4470   20.5190   41.5500 C.2   251  GLU251      0.3649
     80  OE1       45.3730   20.3470   40.7290 O.co2 251  GLU251     -0.2457
     81  OE2       43.3250   19.9910   41.4080 O.co2 251  GLU251     -0.2457
     82  N         45.4350   27.1430   36.4700 N.3   255  PHE255     -0.1241
     83  CA        44.5350   27.1010   37.6190 C.3   255  PHE255      0.1605
     84  C         43.0550   27.0300   37.2630 C.2   255  PHE255      0.2264
     85  O         42.1790   27.2250   38.1070 O.2   255  PHE255     -0.2867
     86  CB        44.8350   28.2760   38.5430 C.3   255  PHE255      0.0534
     87  CG        46.2460   28.2750   39.0320 C.ar  255  PHE255     -0.0203
     88  CD1       47.1140   29.3030   38.6940 C.ar  255  PHE255     -0.0042
     89  CD2       46.7390   27.1890   39.7500 C.ar  255  PHE255     -0.0042
     90  CE1       48.4450   29.2480   39.0570 C.ar  255  PHE255     -0.0003
     91  CE2       48.0730   27.1280   40.1150 C.ar  255  PHE255     -0.0003
     92  CZ        48.9260   28.1570   39.7680 C.ar  255  PHE255     -0.0000
     93  N         34.0310   38.3300   28.8730 N.3   314  TRP314     -0.1241
     94  CA        34.9540   37.8760   29.9010 C.3   314  TRP314      0.1605
     95  C         36.3200   37.5510   29.3210 C.2   314  TRP314      0.2264
     96  O         37.3220   37.6320   30.0260 O.2   314  TRP314     -0.2867
     97  CB        34.3960   36.6540   30.6450 C.3   314  TRP314      0.0550
     98  CG        33.1910   36.9730   31.4840 C.ar  314  TRP314      0.0003
     99  CD1       31.9850   36.3280   31.4680 C.ar  314  TRP314      0.0946
    100  CD2       33.0560   38.0410   32.4340 C.ar  314  TRP314      0.0152
    101  NE1       31.1130   36.9300   32.3390 N.ar  314  TRP314     -0.2442
    102  CE2       31.7430   37.9830   32.9430 C.ar  314  TRP314      0.0810
    103  CE3       33.9160   39.0450   32.8970 C.ar  314  TRP314      0.0012
    104  CZ2       31.2700   38.8850   33.8950 C.ar  314  TRP314      0.0191
    105  CZ3       33.4440   39.9430   33.8410 C.ar  314  TRP314      0.0001
    106  CH2       32.1290   39.8570   34.3290 C.ar  314  TRP314      0.0015
    107  N         37.8260   40.7460   29.3480 N.3   317  TRP317     -0.1241
    108  CA        38.0920   40.9910   30.7650 C.3   317  TRP317      0.1605
    109  C         39.3890   40.3130   31.1880 C.2   317  TRP317      0.2264
    110  O         40.1470   40.8320   31.9950 O.2   317  TRP317     -0.2867
    111  CB        36.9420   40.4570   31.6220 C.3   317  TRP317      0.0550
    112  CG        37.1490   40.5740   33.1250 C.ar  317  TRP317      0.0003
    113  CD1       36.8210   41.6440   33.9220 C.ar  317  TRP317      0.0946
    114  CD2       37.6380   39.5550   34.0130 C.ar  317  TRP317      0.0152
    115  NE1       37.0670   41.3440   35.2440 N.ar  317  TRP317     -0.2442
    116  CE2       37.5670   40.0720   35.3250 C.ar  317  TRP317      0.0810
    117  CE3       38.1190   38.2580   33.8260 C.ar  317  TRP317      0.0012
    118  CZ2       37.9620   39.3370   36.4410 C.ar  317  TRP317      0.0191
    119  CZ3       38.5090   37.5290   34.9380 C.ar  317  TRP317      0.0001
    120  CH2       38.4270   38.0680   36.2280 C.ar  317  TRP317      0.0015
    121  N         46.4960   38.6040   41.6650 N.3   327  ILE327     -0.1231
    122  CA        45.9980   37.2450   41.8440 C.3   327  ILE327      0.1692
    123  C         46.7390   36.3160   40.8950 C.2   327  ILE327      0.2592
    124  O         46.8690   36.6170   39.7100 O.2   327  ILE327     -0.2718
    125  CB        44.4950   37.1600   41.5090 C.3   327  ILE327      0.0266
    126  CG1       43.7020   38.1150   42.4100 C.3   327  ILE327      0.0019
    127  CG2       44.0170   35.7230   41.6550 C.3   327  ILE327      0.0020
    128  CD1       42.3050   38.4370   41.9050 C.3   327  ILE327      0.0001
    129  N         47.2190   35.1880   41.4070 N.am  328  GLU328     -0.1966
    130  CA        47.8900   34.2080   40.5610 C.3   328  GLU328      0.1733
    131  C         46.8880   33.3670   39.7660 C.2   328  GLU328      0.2616
    132  O         46.1070   32.6080   40.3410 O.2   328  GLU328     -0.2715
    133  CB        48.7570   33.2870   41.4100 C.3   328  GLU328      0.0429
    134  CG        49.5890   32.3200   40.5890 C.3   328  GLU328      0.1163
    135  CD        50.3470   31.3440   41.4560 C.2   328  GLU328      0.3649
    136  OE1       51.1990   30.5980   40.9150 O.co2 328  GLU328     -0.2457
    137  OE2       50.0860   31.3260   42.6820 O.co2 328  GLU328     -0.2457
    138  N         46.9220   33.4970   38.4440 N.am  329  PHE329     -0.1974
    139  CA        45.9420   32.8460   37.5840 C.3   329  PHE329      0.1639
    140  C         46.3030   33.0560   36.1180 C.2   329  PHE329      0.2290
    141  O         46.6700   34.1570   35.7140 O.2   329  PHE329     -0.2864
    142  CB        44.5480   33.4190   37.8440 C.3   329  PHE329      0.0560
    143  CG        43.4530   32.6670   37.1570 C.ar  329  PHE329     -0.0200
    144  CD1       42.9760   31.4730   37.6870 C.ar  329  PHE329     -0.0042
    145  CD2       42.9080   33.1410   35.9760 C.ar  329  PHE329     -0.0042
    146  CE1       41.9770   30.7610   37.0520 C.ar  329  PHE329     -0.0003
    147  CE2       41.9100   32.4390   35.3360 C.ar  329  PHE329     -0.0003
    148  CZ        41.4420   31.2410   35.8790 C.ar  329  PHE329     -0.0000
    149  N         45.4010   34.1470   33.3960 N.3   331  TYR331     -0.1241
    150  CA        44.3790   34.9370   32.7330 C.3   331  TYR331      0.1605
    151  C         44.4210   34.8090   31.2270 C.2   331  TYR331      0.2264
    152  O         43.3770   34.6980   30.5930 O.2   331  TYR331     -0.2867
    153  CB        44.4970   36.4040   33.1350 C.3   331  TYR331      0.0534
    154  CG        43.9930   36.6620   34.5280 C.ar  331  TYR331     -0.0201
    155  CD1       42.6350   36.7940   34.7790 C.ar  331  TYR331     -0.0009
    156  CD2       44.8670   36.7460   35.6020 C.ar  331  TYR331     -0.0009
    157  CE1       42.1550   37.0020   36.0710 C.ar  331  TYR331      0.0417
    158  CE2       44.4010   36.9540   36.8960 C.ar  331  TYR331      0.0417
    159  CZ        43.0460   37.0800   37.1220 C.ar  331  TYR331      0.1957
    160  OH        42.5840   37.2820   38.3970 O.3   331  TYR331     -0.2866
    161  N         43.0660   31.5800   29.9650 N.3   334  TYR334     -0.1241
    162  CA        41.6280   31.6140   30.1680 C.3   334  TYR334      0.1605
    163  C         40.9780   32.4620   29.0990 C.2   334  TYR334      0.2264
    164  O         39.8770   32.1590   28.6260 O.2   334  TYR334     -0.2867
    165  CB        41.2780   32.1960   31.5260 C.3   334  TYR334      0.0534
    166  CG        39.7930   32.1850   31.7820 C.ar  334  TYR334     -0.0201
    167  CD1       39.1330   30.9980   32.0800 C.ar  334  TYR334     -0.0009
    168  CD2       39.0480   33.3560   31.7460 C.ar  334  TYR334     -0.0009
    169  CE1       37.7770   30.9790   32.3370 C.ar  334  TYR334      0.0417
    170  CE2       37.6880   33.3390   32.0070 C.ar  334  TYR334      0.0417
    171  CZ        37.0650   32.1460   32.3010 C.ar  334  TYR334      0.1957
    172  OH        35.7210   32.1070   32.5720 O.3   334  TYR334     -0.2866
@<TRIPOS>BOND
     1   164   163    2
     2    93    94    1
     3   163   162    1
     4    95    94    1
     5    95    96    2
     6   107   108    1
     7    94    97    1
     8   161   162    1
     9   162   165    1
    10   152   151    2
    11    97    98    1
    12   108   109    1
    13   108   111    1
    14   109   110    2
    15   151   150    1
    16    99    98   ar
    17    99   101   ar
    18    98   100   ar
    19   165   166    1
    20   111   112    1
    21   168   166   ar
    22   168   170   ar
    23   166   167   ar
    24   170   171   ar
    25   167   169   ar
    26   171   169   ar
    27   171   172    1
    28   101   102   ar
    29   100   103   ar
    30   100   102   ar
    31    34    35    1
    32   150   153    1
    33   150   149    1
    34   103   105   ar
    35   102   104   ar
    36   112   113   ar
    37   112   114   ar
    38   153   154    1
    39    35    36    1
    40    35    38    1
    41   117   114   ar
    42   117   119   ar
    43   105   106   ar
    44   104   106   ar
    45   113   115   ar
    46    36    37    2
    47   114   116   ar
    48   154   155   ar
    49   154   156   ar
    50   155   157   ar
    51    54    53    1
    52    41    40   ar
    53    38    39    1
    54   119   120   ar
    55    39    40    1
    56    40    42   ar
    57   115   116   ar
    58   116   118   ar
    59   147   148   ar
    60   147   145   ar
    61    72    71    1
    62    70    71   ar
    63    70    68   ar
    64   156   158   ar
    65   141   140    2
    66    51    53   ar
    67    51    49   ar
    68    53    52   ar
    69   148   146   ar
    70   145   143   ar
    71   157   159   ar
    72    71    69   ar
    73   140   139    1
    74    68    66   ar
    75   120   118   ar
    76    82    83    1
    77    49    48   ar
    78   158   159   ar
    79    52    50   ar
    80    25    24    2
    81   146   144   ar
    82    29    31   ar
    83    29    27   ar
    84     1     2    1
    85   159   160    1
    86   143   144   ar
    87   143   142    1
    88    69    67   ar
    89    31    32   ar
    90    84    83    1
    91    84    85    2
    92    66    67   ar
    93    66    65    1
    94     2     3    1
    95     2     5    1
    96     7     6   ar
    97   139   142    1
    98   139   138    1
    99    83    86    1
   100    26    27    1
   101    26    23    1
   102    16    15    2
   103    27    28   ar
   104    65    62    1
   105    48    50   ar
   106    48    47    1
   107     3     4    2
   108    32    33    1
   109    32    30   ar
   110    13    10    1
   111    13    14    1
   112    24    23    1
   113    43    44    1
   114     5     6    1
   115     6     8   ar
   116   138   131   am
   117    86    87    1
   118    10     9    1
   119    10    11    1
   120    23    22    1
   121    88    87   ar
   122    88    90   ar
   123    44    47    1
   124    44    45    1
   125    28    30   ar
   126    15    14    1
   127    15    17   am
   128    87    89   ar
   129    90    92   ar
   130    62    61    1
   131    62    63    1
   132   124   123    2
   133    89    91   ar
   134   131   132    2
   135   131   130    1
   136    92    91   ar
   137    61    57   am
   138    11    12    2
   139    45    55   am
   140    45    46    2
   141    63    64    2
   142    63    73   am
   143    55    56    1
   144   130   129    1
   145   130   133    1
   146   134   133    1
   147   134   135    1
   148    73    74    1
   149    80    79   ar
   150    75    76    2
   151    75    74    1
   152   123   129   am
   153   123   122    1
   154   136   135   ar
   155    57    56    1
   156    57    58    2
   157    81    79   ar
   158   135   137   ar
   159   125   127    1
   160   125   122    1
   161   125   126    1
   162    74    77    1
   163    56    59    1
   164    60    59    1
   165    79    78    1
   166   121   122    1
   167   128   126    1
   168    18    19    1
   169    77    78    1
   170    19    20    1
   171    20    21    2
