@<TRIPOS>MOLECULE
tmp/5er1A00.pdb
 188 175 0 0 0
SMALL
GASTEIGER

@<TRIPOS>ATOM
      1  N         36.7700    1.9370    5.1160 N.3    33  ASP33      -0.1239
      2  CA        35.8010    0.8710    4.8900 C.3    33  ASP33       0.1674
      3  C         35.5710    0.0740    6.2040 C.2    33  ASP33       0.2266
      4  O         36.3900   -0.7700    6.5040 O.2    33  ASP33      -0.2867
      5  CB        36.2990   -0.1020    3.8220 C.3    33  ASP33       0.1410
      6  CG        35.2440   -0.9850    3.2500 C.2    33  ASP33       0.3668
      7  OD1       34.1670   -1.1930    3.8330 O.co2  33  ASP33      -0.2456
      8  OD2       35.3760   -1.5910    2.1840 O.co2  33  ASP33      -0.2456
      9  N         34.2530   -2.5630    8.5600 N.3    35  ASP35      -0.1239
     10  CA        34.1570   -3.9980    8.0750 C.3    35  ASP35       0.1674
     11  C         33.6870   -4.8920    9.1530 C.2    35  ASP35       0.2266
     12  O         34.4330   -5.2720   10.0990 O.2    35  ASP35      -0.2867
     13  CB        35.4850   -4.3390    7.4410 C.3    35  ASP35       0.1410
     14  CG        35.4460   -5.7510    6.7360 C.2    35  ASP35       0.3668
     15  OD1       34.4170   -6.3200    6.6630 O.co2  35  ASP35      -0.2456
     16  OD2       36.5520   -6.1370    6.3130 O.co2  35  ASP35      -0.2456
     17  N         33.1200   -7.8360    9.2510 N.3    37  GLY37      -0.1210
     18  CA        33.5510   -9.2740    9.1170 C.3    37  GLY37       0.1956
     19  C         35.0580   -9.3800    9.2010 C.2    37  GLY37       0.2613
     20  O         35.6410  -10.3340    8.6270 O.2    37  GLY37      -0.2717
     21  N         35.7310   -8.4580    9.8230 N.am   38  SER38      -0.1938
     22  CA        37.1950   -8.3580    9.9550 C.3    38  SER38       0.2055
     23  C         37.5250   -7.6790   11.3000 C.2    38  SER38       0.2644
     24  O         36.5990   -7.0540   11.8800 O.2    38  SER38      -0.2714
     25  CB        37.9780   -7.9000    8.8670 C.3    38  SER38       0.2130
     26  OG        38.0260   -6.4950    8.6130 O.3    38  SER38      -0.2179
     27  N         38.7400   -7.8230   11.7690 N.am   39  SER39      -0.1935
     28  CA        38.9780   -7.3890   13.1600 C.3    39  SER39       0.2055
     29  C         40.1430   -6.4700   13.2600 C.2    39  SER39       0.2639
     30  O         40.6220   -6.2400   14.4020 O.2    39  SER39      -0.2714
     31  CB        38.9670   -8.4260   14.1580 C.3    39  SER39       0.2130
     32  OG        37.7320   -9.0750   14.2180 O.3    39  SER39      -0.2179
     33  N         40.5580   -5.9580   12.1270 N.am   40  ASP40      -0.2024
     34  CA        41.7320   -5.1350   11.9030 C.3    40  ASP40       0.1395
     35  C         41.3420   -3.7120   11.4100 C.3    40  ASP40       0.2041
     36  O         40.6180   -3.6860   10.3890 O.3    40  ASP40      -0.2185
     37  CB        42.7700   -5.7120   11.0340 C.3    40  ASP40       0.1383
     38  CG        43.6020   -6.8880   11.6010 C.2    40  ASP40       0.3667
     39  OD1       43.1120   -7.8010   12.1730 O.co2  40  ASP40      -0.2456
     40  OD2       44.8600   -6.8940   11.4640 O.co2  40  ASP40      -0.2456
     41  N         49.2300   -9.4470    9.3550 N.3    76  SER76      -0.1202
     42  CA        48.9890   -9.8680    7.9490 C.3    76  SER76       0.2020
     43  C         47.5470  -10.3480    7.7780 C.2    76  SER76       0.2619
     44  O         47.1240  -11.1400    8.6420 O.2    76  SER76      -0.2717
     45  CB        49.9850  -11.0130    7.7010 C.3    76  SER76       0.2103
     46  OG        49.7500  -11.7050    6.5300 O.3    76  SER76      -0.2182
     47  N         46.8170   -9.9200    6.7530 N.am   77  ILE77      -0.1965
     48  CA        45.4440  -10.4620    6.5300 C.3    77  ILE77       0.1727
     49  C         45.2460  -10.9840    5.1230 C.2    77  ILE77       0.2617
     50  O         45.8730  -10.4580    4.2110 O.2    77  ILE77      -0.2715
     51  CB        44.3940   -9.4290    6.7980 C.3    77  ILE77       0.0290
     52  CG1       45.0460   -8.1340    7.1720 C.3    77  ILE77       0.0022
     53  CG2       43.3350   -9.8350    7.8050 C.3    77  ILE77       0.0023
     54  CD1       44.4680   -6.9580    6.4240 C.3    77  ILE77       0.0001
     55  N         44.3810  -11.9780    5.0120 N.am   78  SER78      -0.1936
     56  CA        43.8080  -12.4940    3.8160 C.3    78  SER78       0.2055
     57  C         42.3140  -12.2330    3.7740 C.2    78  SER78       0.2643
     58  O         41.6240  -12.5510    4.7640 O.2    78  SER78      -0.2714
     59  CB        44.1260  -13.9610    3.6060 C.3    78  SER78       0.2130
     60  OG        45.2680  -14.1460    2.7840 O.3    78  SER78      -0.2179
     61  N         41.8230  -11.6970    2.6890 N.am   79  TYR79      -0.1959
     62  CA        40.2810  -11.5270    2.6990 C.3    79  TYR79       0.1771
     63  C         39.7130  -12.5360    1.7040 C.2    79  TYR79       0.2620
     64  O         40.4800  -13.0750    0.9270 O.2    79  TYR79      -0.2715
     65  CB        39.9830  -10.1370    2.2230 C.3    79  TYR79       0.0574
     66  CG        40.4340   -9.0740    3.2670 C.ar   79  TYR79      -0.0198
     67  CD1       41.5760   -8.3320    3.1320 C.ar   79  TYR79      -0.0009
     68  CD2       39.5810   -8.9120    4.3820 C.ar   79  TYR79      -0.0009
     69  CE1       41.9710   -7.3780    4.0620 C.ar   79  TYR79       0.0417
     70  CE2       39.9560   -7.9590    5.3200 C.ar   79  TYR79       0.0417
     71  CZ        41.1120   -7.2100    5.1650 C.ar   79  TYR79       0.1957
     72  OH        41.3980   -6.2810    6.1510 O.3    79  TYR79      -0.2866
     73  N         38.4180  -12.7010    1.8250 N.am   80  GLY80      -0.1940
     74  CA        37.5660  -13.6130    1.1260 C.3    80  GLY80       0.2014
     75  C         37.6300  -13.3480   -0.3630 C.2    80  GLY80       0.2638
     76  O         37.5090  -14.2640   -1.1780 O.2    80  GLY80      -0.2714
     77  N         37.8370  -12.0550   -0.6140 N.am   81  ASP81      -0.1971
     78  CA        38.0140  -11.5640   -1.9850 C.3    81  ASP81       0.1709
     79  C         39.3690  -11.9050   -2.5350 C.2    81  ASP81       0.2293
     80  O         39.6620  -11.7220   -3.7200 O.2    81  ASP81      -0.2864
     81  CB        37.6320  -10.1270   -2.1650 C.3    81  ASP81       0.1436
     82  CG        38.5840   -9.0790   -1.6430 C.2    81  ASP81       0.3671
     83  OD1       38.2610   -8.3140   -0.7090 O.co2  81  ASP81      -0.2456
     84  OD2       39.7230   -8.9410   -2.1480 O.co2  81  ASP81      -0.2456
     85  N         43.4860   -3.3580   -3.3220 N.3   116  PHE116     -0.1241
     86  CA        43.5000   -2.1370   -2.5090 C.3   116  PHE116      0.1605
     87  C         44.1940   -0.9900   -3.2480 C.2   116  PHE116      0.2264
     88  O         43.8240    0.1810   -3.1050 O.2   116  PHE116     -0.2867
     89  CB        44.2290   -2.3880   -1.1900 C.3   116  PHE116      0.0534
     90  CG        43.4850   -3.3750   -0.2940 C.ar  116  PHE116     -0.0203
     91  CD1       42.1940   -3.0750    0.1560 C.ar  116  PHE116     -0.0042
     92  CD2       44.0940   -4.5790    0.0720 C.ar  116  PHE116     -0.0042
     93  CE1       41.5060   -3.9880    0.9650 C.ar  116  PHE116     -0.0003
     94  CE2       43.4060   -5.4940    0.8770 C.ar  116  PHE116     -0.0003
     95  CZ        42.1110   -5.1980    1.3230 C.ar  116  PHE116     -0.0000
     96  N         39.2410    4.3120   -0.9920 N.3   122  ILE122     -0.1245
     97  CA        39.4400    3.7090    0.3350 C.3   122  ILE122      0.1561
     98  C         40.8770    3.8990    0.8310 C.2   122  ILE122      0.2260
     99  O         41.8450    3.6590    0.1020 O.2   122  ILE122     -0.2867
    100  CB        39.0960    2.2300    0.2470 C.3   122  ILE122      0.0252
    101  CG1       37.6520    2.0040   -0.2090 C.3   122  ILE122      0.0019
    102  CG2       39.2450    1.4990    1.5780 C.3   122  ILE122      0.0019
    103  CD1       37.3550    0.5490   -0.5620 C.3   122  ILE122      0.0001
    104  N         41.0090   -0.1050    6.3080 N.3   125  LEU125     -0.1245
    105  CA        39.7700   -0.7710    6.8000 C.3   125  LEU125      0.1561
    106  C         39.6410   -0.5600    8.3050 C.2   125  LEU125      0.2260
    107  O         40.6570   -0.4010    8.9370 O.2   125  LEU125     -0.2867
    108  CB        39.8090   -2.2620    6.5380 C.3   125  LEU125      0.0270
    109  CG        39.2490   -2.4720    5.1460 C.3   125  LEU125      0.0019
    110  CD1       40.3840   -2.3750    4.1080 C.3   125  LEU125      0.0001
    111  CD2       38.4430   -3.7570    4.9790 C.3   125  LEU125      0.0001
    112  N         39.6870  -12.1070   15.9710 N.3   133  LEU133     -0.1245
    113  CA        40.0690  -12.3350   14.5530 C.3   133  LEU133      0.1561
    114  C         41.2300  -11.4350   14.1790 C.2   133  LEU133      0.2260
    115  O         41.8950  -11.5470   13.1960 O.2   133  LEU133     -0.2867
    116  CB        38.8930  -12.0620   13.6280 C.3   133  LEU133      0.0270
    117  CG        37.8370  -13.1420   13.7620 C.3   133  LEU133      0.0019
    118  CD1       36.5640  -12.8030   13.0090 C.3   133  LEU133      0.0001
    119  CD2       38.4550  -14.4780   13.2370 C.3   133  LEU133      0.0001
    120  N         44.6270   -9.8180   13.7900 N.3   135  THR135     -0.1218
    121  CA        45.7030  -10.4880   13.1440 C.3   135  THR135      0.1862
    122  C         47.0810  -10.2130   13.7270 C.2   135  THR135      0.2287
    123  O         48.0890  -10.7380   13.2540 O.2   135  THR135     -0.2866
    124  CB        45.7430  -10.0440   11.6700 C.3   135  THR135      0.1770
    125  OG1       45.6060  -11.1560   10.8320 O.3   135  THR135     -0.2211
    126  CG2       46.8670   -9.1740   11.4340 C.3   135  THR135      0.0375
    127  N         32.5670  -14.1020   14.1780 N.3   194  PHE194     -0.1241
    128  CA        31.7600  -13.2430   13.2480 C.3   194  PHE194      0.1605
    129  C         30.4610  -12.8290   13.9020 C.2   194  PHE194      0.2264
    130  O         30.0820  -13.3350   14.9490 O.2   194  PHE194     -0.2867
    131  CB        31.4520  -13.9390   11.9510 C.3   194  PHE194      0.0534
    132  CG        32.7010  -14.1610   11.0710 C.ar  194  PHE194     -0.0203
    133  CD1       33.0360  -15.4570   10.6950 C.ar  194  PHE194     -0.0042
    134  CD2       33.4510  -13.0900   10.6700 C.ar  194  PHE194     -0.0042
    135  CE1       34.1350  -15.7250    9.8940 C.ar  194  PHE194     -0.0003
    136  CE2       34.5570  -13.3730    9.8820 C.ar  194  PHE194     -0.0003
    137  CZ        34.8950  -14.6170    9.4870 C.ar  194  PHE194     -0.0000
    138  N         26.7620  -14.7120    7.9520 N.3   217  ILE217     -0.1245
    139  CA        27.2710  -13.5530    8.6900 C.3   217  ILE217      0.1561
    140  C         26.7630  -12.2390    8.1500 C.2   217  ILE217      0.2260
    141  O         26.6940  -11.8250    7.0140 O.2   217  ILE217     -0.2867
    142  CB        28.7850  -13.5170    8.7990 C.3   217  ILE217      0.0252
    143  CG1       29.4730  -13.4370    7.4350 C.3   217  ILE217      0.0019
    144  CG2       29.3590  -14.6270    9.6320 C.3   217  ILE217      0.0019
    145  CD1       30.9800  -13.3420    7.4790 C.3   217  ILE217      0.0001
    146  N         27.9660   -8.9740    7.1620 N.3   219  ASP219     -0.1239
    147  CA        29.2670   -8.3440    6.7740 C.3   219  ASP219      0.1674
    148  C         29.1050   -7.1380    5.8850 C.2   219  ASP219      0.2266
    149  O         28.9490   -7.2320    4.6920 O.2   219  ASP219     -0.2867
    150  CB        30.0760   -9.4100    6.0410 C.3   219  ASP219      0.1410
    151  CG        31.5020   -9.0300    5.7260 C.2   219  ASP219      0.3668
    152  OD1       32.1660   -9.7500    5.0110 O.co2 219  ASP219     -0.2456
    153  OD2       32.0910   -7.9790    6.0510 O.co2 219  ASP219     -0.2456
    154  N         31.3840   -5.3530    4.9620 N.3   221  GLY221     -0.1210
    155  CA        32.5650   -5.3370    4.1580 C.3   221  GLY221      0.1956
    156  C         32.4390   -6.1000    2.8060 C.2   221  GLY221      0.2612
    157  O         33.4150   -5.9820    2.0110 O.2   221  GLY221     -0.2717
    158  N         31.4040   -6.8140    2.5300 N.am  222  THR222     -0.1952
    159  CA        31.0500   -7.6600    1.3840 C.3   222  THR222      0.1897
    160  C         29.8840   -6.9310    0.6190 C.2   222  THR222      0.2313
    161  O         28.9520   -6.4410    1.1710 O.2   222  THR222     -0.2863
    162  CB        30.5040   -9.0260    1.8610 C.3   222  THR222      0.1794
    163  OG1       31.5960   -9.8720    2.3390 O.3   222  THR222     -0.2208
    164  CG2       30.0930   -9.8140    0.5520 C.3   222  THR222      0.0378
    165  N         32.5570  -20.3560   -1.3470 N.3   300  ILE300     -0.1245
    166  CA        33.1850  -19.6840   -0.2450 C.3   300  ILE300      0.1561
    167  C         33.1650  -20.4550    1.0630 C.2   300  ILE300      0.2260
    168  O         34.0790  -20.2010    1.8450 O.2   300  ILE300     -0.2867
    169  CB        32.4790  -18.3420    0.1480 C.3   300  ILE300      0.0252
    170  CG1       32.8000  -17.2720   -0.8140 C.3   300  ILE300      0.0019
    171  CG2       32.9990  -18.0500    1.5920 C.3   300  ILE300      0.0019
    172  CD1       32.2850  -17.4690   -2.2300 C.3   300  ILE300      0.0001
    173  N         30.7290  -20.1190    3.3780 N.3   302  ILE302     -0.1245
    174  CA        29.8830  -19.4060    4.3310 C.3   302  ILE302      0.1561
    175  C         28.8680  -18.5700    3.5390 C.2   302  ILE302      0.2260
    176  O         29.2680  -18.0680    2.4870 O.2   302  ILE302     -0.2867
    177  CB        30.6190  -18.6150    5.3700 C.3   302  ILE302      0.0252
    178  CG1       29.9840  -18.7670    6.7770 C.3   302  ILE302      0.0019
    179  CG2       30.8900  -17.1920    5.0850 C.3   302  ILE302      0.0019
    180  CD1       30.2400  -17.4720    7.5700 C.3   302  ILE302      0.0001
    181  N         27.1370  -15.1500    3.1930 N.3   304  ILE304     -0.1245
    182  CA        27.3700  -13.6900    3.6000 C.3   304  ILE304      0.1561
    183  C         26.1180  -12.8550    3.3030 C.2   304  ILE304      0.2260
    184  O         25.6780  -12.7130    2.1860 O.2   304  ILE304     -0.2867
    185  CB        28.5780  -13.1310    2.9320 C.3   304  ILE304      0.0252
    186  CG1       29.8040  -13.9620    3.2440 C.3   304  ILE304      0.0019
    187  CG2       28.9280  -11.6780    3.2620 C.3   304  ILE304      0.0019
    188  CD1       30.9820  -13.8630    2.3310 C.3   304  ILE304      0.0001
@<TRIPOS>BOND
     1    80    79    2
     2    85    86    1
     3    87    88    2
     4    87    86    1
     5    79    78    1
     6    86    89    1
     7   172   170    1
     8    81    78    1
     9    81    82    1
    10    84    82   ar
    11    78    77    1
    12    82    83   ar
    13   165   166    1
    14    89    90    1
    15    76    75    2
    16    96    97    1
    17   170   169    1
    18    77    75   am
    19   103   101    1
    20    75    74    1
    21    90    92   ar
    22    90    91   ar
    23   166   169    1
    24   166   167    1
    25   101   100    1
    26    92    94   ar
    27    99    98    2
    28   169   171    1
    29    91    93   ar
    30   100    97    1
    31   100   102    1
    32    97    98    1
    33   164   162    1
    34   160   161    2
    35   160   159    1
    36    94    95   ar
    37    64    63    2
    38    93    95   ar
    39   167   168    2
    40    74    73    1
    41   159   162    1
    42   159   158    1
    43    63    73   am
    44    63    62    1
    45   162   163    1
    46   157   156    2
    47     8     6   ar
    48   184   183    2
    49    65    62    1
    50    65    66    1
    51   188   186    1
    52   176   175    2
    53   158   156   am
    54    61    62    1
    55    61    57   am
    56    60    59    1
    57   156   155    1
    58   185   186    1
    59   185   187    1
    60   185   182    1
    61    67    66   ar
    62    67    69   ar
    63   181   182    1
    64     6     5    1
    65     6     7   ar
    66    66    68   ar
    67   183   182    1
    68   173   174    1
    69   175   174    1
    70    59    56    1
    71    57    56    1
    72    57    58    2
    73    56    55    1
    74     5     2    1
    75    69    71   ar
    76   110   109    1
    77   155   154    1
    78    50    49    2
    79   174   177    1
    80    68    70   ar
    81   149   148    2
    82     2     1    1
    83     2     3    1
    84   111   109    1
    85   152   151   ar
    86    55    49   am
    87   179   177    1
    88    49    48    1
    89   109   108    1
    90    71    70   ar
    91    71    72    1
    92   177   178    1
    93   151   150    1
    94   151   153   ar
    95   148   147    1
    96   150   147    1
    97     3     4    2
    98   104   105    1
    99    16    14   ar
   100    54    52    1
   101    46    45    1
   102    48    47    1
   103    48    51    1
   104   108   105    1
   105    15    14   ar
   106    14    13    1
   107    47    43   am
   108   147   146    1
   109   178   180    1
   110    51    52    1
   111    51    53    1
   112   105   106    1
   113   141   140    2
   114   143   145    1
   115   143   142    1
   116    13    10    1
   117    45    42    1
   118    43    42    1
   119    43    44    2
   120    42    41    1
   121   138   139    1
   122    10     9    1
   123    10    11    1
   124   140   139    1
   125   106   107    2
   126    26    25    1
   127    20    19    2
   128   139   142    1
   129   142   144    1
   130    25    22    1
   131    18    19    1
   132    18    17    1
   133    11    12    2
   134    19    21   am
   135   137   136   ar
   136   137   135   ar
   137    21    22    1
   138   136   134   ar
   139   135   133   ar
   140    22    23    1
   141    36    35    1
   142   134   132   ar
   143   133   132   ar
   144   125   124    1
   145    37    38    1
   146    37    34    1
   147   132   131    1
   148    23    27   am
   149    23    24    2
   150    35    34    1
   151   126   124    1
   152    40    38   ar
   153    38    39   ar
   154   124   121    1
   155    27    28    1
   156    34    33    1
   157   131   128    1
   158    33    29   am
   159   118   117    1
   160   121   122    1
   161   121   120    1
   162    28    29    1
   163    28    31    1
   164   115   114    2
   165   119   117    1
   166   128   129    1
   167   128   127    1
   168   123   122    2
   169    29    30    2
   170   116   117    1
   171   116   113    1
   172   129   130    2
   173    31    32    1
   174   114   113    1
   175   113   112    1
