@<TRIPOS>MOLECULE
tmp/5er8A00.pdb
 195 189 0 0 0
SMALL
GASTEIGER

@<TRIPOS>ATOM
      1  N        -53.8590    4.4700   -1.5540 N.3    64  PHE64      -0.1241
      2  CA       -53.0540    4.7130   -2.7360 C.3    64  PHE64       0.1605
      3  C        -53.0940    3.6090   -3.7780 C.2    64  PHE64       0.2264
      4  O        -53.7150    3.7540   -4.8170 O.2    64  PHE64      -0.2867
      5  CB       -51.6180    4.9580   -2.3230 C.3    64  PHE64       0.0534
      6  CG       -50.7870    5.5130   -3.4080 C.ar   64  PHE64      -0.0203
      7  CD1      -51.1850    6.6570   -4.0670 C.ar   64  PHE64      -0.0042
      8  CD2      -49.6120    4.9030   -3.7750 C.ar   64  PHE64      -0.0042
      9  CE1      -50.4290    7.1810   -5.0740 C.ar   64  PHE64      -0.0003
     10  CE2      -48.8500    5.4250   -4.7810 C.ar   64  PHE64      -0.0003
     11  CZ       -49.2610    6.5660   -5.4330 C.ar   64  PHE64      -0.0000
     12  N        -45.1360   -0.6940   -0.2450 N.3    84  ASN84      -0.1240
     13  CA       -45.3350    0.7270   -0.3700 C.3    84  ASN84       0.1653
     14  C        -45.2430    1.4740    0.9470 C.2    84  ASN84       0.2266
     15  O        -44.6720    2.5530    1.0040 O.2    84  ASN84      -0.2867
     16  CB       -46.6760    0.9960   -1.0160 C.3    84  ASN84       0.1155
     17  CG       -46.6780    2.2660   -1.8120 C.2    84  ASN84       0.2627
     18  OD1      -47.3330    3.2380   -1.4540 O.2    84  ASN84      -0.2716
     19  ND2      -45.9270    2.2770   -2.8940 N.am   84  ASN84      -0.0877
     20  N        -42.9620    4.2410    1.9810 N.3    88  PHE88      -0.1241
     21  CA       -43.4470    5.4790    2.5760 C.3    88  PHE88       0.1605
     22  C        -42.7470    5.7750    3.8880 C.2    88  PHE88       0.2264
     23  O        -42.5770    6.9310    4.2690 O.2    88  PHE88      -0.2867
     24  CB       -44.9550    5.4190    2.7970 C.3    88  PHE88       0.0534
     25  CG       -45.7470    6.0850    1.7180 C.ar   88  PHE88      -0.0203
     26  CD1      -45.6170    7.4420    1.4900 C.ar   88  PHE88      -0.0042
     27  CD2      -46.6200    5.3630    0.9370 C.ar   88  PHE88      -0.0042
     28  CE1      -46.3380    8.0650    0.5060 C.ar   88  PHE88      -0.0003
     29  CE2      -47.3450    5.9840   -0.0460 C.ar   88  PHE88      -0.0003
     30  CZ       -47.2050    7.3370   -0.2620 C.ar   88  PHE88      -0.0000
     31  N        -38.8220    6.8660    3.5030 N.3    91  ASP91      -0.1239
     32  CA       -38.7820    8.2030    2.9180 C.3    91  ASP91       0.1674
     33  C        -38.7910    9.2630    4.0140 C.2    91  ASP91       0.2266
     34  O        -38.1030   10.2790    3.9180 O.2    91  ASP91      -0.2867
     35  CB       -39.9630    8.4130    1.9650 C.3    91  ASP91       0.1410
     36  CG       -40.0440    9.8320    1.4310 C.2    91  ASP91       0.3668
     37  OD1      -40.8210   10.6330    1.9920 O.co2  91  ASP91      -0.2456
     38  OD2      -39.3360   10.1480    0.4500 O.co2  91  ASP91      -0.2456
     39  N        -36.4460   12.2990    4.6700 N.3    95  ASP95      -0.1239
     40  CA       -36.8110   13.7050    4.7440 C.3    95  ASP95       0.1674
     41  C        -37.4660   14.0320    6.0810 C.2    95  ASP95       0.2266
     42  O        -36.9710   14.8420    6.8340 O.2    95  ASP95      -0.2867
     43  CB       -37.7480   14.0590    3.5850 C.3    95  ASP95       0.1410
     44  CG       -37.3870   13.3380    2.3080 C.2    95  ASP95       0.3668
     45  OD1      -36.1960   13.3120    1.9590 O.co2  95  ASP95      -0.2456
     46  OD2      -38.2930   12.7730    1.6730 O.co2  95  ASP95      -0.2456
     47  N        -36.1190   15.1690   -9.2250 N.3   138  ARG138     -0.1245
     48  CA       -37.3130   14.7070   -8.5210 C.3   138  ARG138      0.1563
     49  C        -37.9190   13.4800   -9.1660 C.2   138  ARG138      0.2260
     50  O        -38.4940   12.6340   -8.4820 O.2   138  ARG138     -0.2867
     51  CB       -38.3630   15.8150   -8.4450 C.3   138  ARG138      0.0307
     52  CG       -39.6830   15.4280   -7.7520 C.3   138  ARG138      0.0489
     53  CD       -39.4890   14.9230   -6.3230 C.3   138  ARG138      0.2205
     54  NE       -40.7340   14.8760   -5.5550 N.pl3 138  ARG138     -0.0865
     55  CZ       -40.8260   14.3740   -4.3280 C.cat 138  ARG138      0.5346
     56  NH1      -39.7460   13.8710   -3.7440 N.pl3 138  ARG138      0.1354
     57  NH2      -41.9900   14.3710   -3.6810 N.pl3 138  ARG138      0.1354
     58  N        -36.5420   11.1750   -7.1470 N.3   141  ASP141     -0.1225
     59  CA       -36.7530   11.4070   -5.7130 C.3   141  ASP141      0.1805
     60  C        -38.1830   11.0440   -5.3370 C.2   141  ASP141      0.2597
     61  O        -38.5320   10.9660   -4.1550 O.2   141  ASP141     -0.2718
     62  CB       -36.4650   12.8530   -5.3070 C.3   141  ASP141      0.1424
     63  CG       -36.4490   13.0400   -3.7910 C.2   141  ASP141      0.3668
     64  OD1      -35.4010   12.7700   -3.1730 O.co2 141  ASP141     -0.2456
     65  OD2      -37.4810   13.4430   -3.2090 O.co2 141  ASP141     -0.2456
     66  N        -39.0070   10.8230   -6.3550 N.am  142  VAL142     -0.1980
     67  CA       -40.3620   10.3590   -6.1490 C.3   142  VAL142      0.1595
     68  C        -40.4010    8.8340   -6.2660 C.2   142  VAL142      0.2287
     69  O        -41.2560    8.1790   -5.6670 O.2   142  VAL142     -0.2864
     70  CB       -41.3250   11.0150   -7.1420 C.3   142  VAL142      0.0276
     71  CG1      -41.0380   10.5460   -8.5610 C.3   142  VAL142      0.0022
     72  CG2      -42.7560   10.7340   -6.7440 C.3   142  VAL142      0.0022
     73  N        -38.4850    2.2270   -8.3500 N.3   146  PHE146     -0.1227
     74  CA       -39.2600    1.5070   -7.3510 C.3   146  PHE146      0.1736
     75  C        -40.6240    1.1820   -7.8980 C.2   146  PHE146      0.2595
     76  O        -41.0090    0.0190   -7.9940 O.2   146  PHE146     -0.2718
     77  CB       -39.3930    2.3390   -6.0720 C.3   146  PHE146      0.0547
     78  CG       -40.4740    1.8690   -5.1430 C.ar  146  PHE146     -0.0202
     79  CD1      -41.6410    2.5910   -4.9940 C.ar  146  PHE146     -0.0042
     80  CD2      -40.3190    0.7150   -4.4090 C.ar  146  PHE146     -0.0042
     81  CE1      -42.6300    2.1620   -4.1360 C.ar  146  PHE146     -0.0003
     82  CE2      -41.3050    0.2880   -3.5520 C.ar  146  PHE146     -0.0003
     83  CZ       -42.4590    1.0100   -3.4180 C.ar  146  PHE146     -0.0000
     84  N        -41.3400    2.2330   -8.2710 N.am  147  TRP147     -0.1976
     85  CA       -42.7110    2.1070   -8.7110 C.3   147  TRP147      0.1640
     86  C        -42.7950    1.1820   -9.8880 C.2   147  TRP147      0.2290
     87  O        -43.6900    0.3450   -9.9920 O.2   147  TRP147     -0.2864
     88  CB       -43.2790    3.4560   -9.0920 C.3   147  TRP147      0.0576
     89  CG       -44.6940    3.3550   -9.4730 C.ar  147  TRP147      0.0006
     90  CD1      -45.2110    3.3590  -10.7300 C.ar  147  TRP147      0.0946
     91  CD2      -45.7970    3.1990   -8.5800 C.ar  147  TRP147      0.0152
     92  NE1      -46.5790    3.2340  -10.6750 N.ar  147  TRP147     -0.2442
     93  CE2      -46.9610    3.1320   -9.3640 C.ar  147  TRP147      0.0810
     94  CE3      -45.9130    3.1220   -7.1900 C.ar  147  TRP147      0.0012
     95  CZ2      -48.2230    2.9880   -8.8060 C.ar  147  TRP147      0.0191
     96  CZ3      -47.1650    2.9790   -6.6380 C.ar  147  TRP147      0.0001
     97  CH2      -48.3040    2.9150   -7.4430 C.ar  147  TRP147      0.0015
     98  N        -44.4740   10.6880  -15.1180 N.3   175  TRP175     -0.1241
     99  CA       -43.6560   10.8910  -13.9470 C.3   175  TRP175      0.1605
    100  C        -43.4860   12.3480  -13.6250 C.2   175  TRP175      0.2264
    101  O        -43.3890   12.7350  -12.4670 O.2   175  TRP175     -0.2867
    102  CB       -42.3040   10.2550  -14.1560 C.3   175  TRP175      0.0550
    103  CG       -42.3770    8.8180  -13.9470 C.ar  175  TRP175      0.0003
    104  CD1      -42.2510    7.8380  -14.8870 C.ar  175  TRP175      0.0946
    105  CD2      -42.6410    8.1660  -12.7130 C.ar  175  TRP175      0.0152
    106  NE1      -42.3990    6.6090  -14.3030 N.ar  175  TRP175     -0.2442
    107  CE2      -42.6410    6.7850  -12.9660 C.ar  175  TRP175      0.0810
    108  CE3      -42.8670    8.6160  -11.4130 C.ar  175  TRP175      0.0012
    109  CZ2      -42.8580    5.8530  -11.9690 C.ar  175  TRP175      0.0191
    110  CZ3      -43.0820    7.6970  -10.4330 C.ar  175  TRP175      0.0001
    111  CH2      -43.0780    6.3300  -10.7100 C.ar  175  TRP175      0.0015
    112  N        -46.8870   13.5740  -11.9200 N.3   178  VAL178     -0.1245
    113  CA       -47.1140   13.1170  -10.5720 C.3   178  VAL178      0.1561
    114  C        -46.1390   13.7680   -9.6190 C.2   178  VAL178      0.2260
    115  O        -46.4970   14.0660   -8.4840 O.2   178  VAL178     -0.2867
    116  CB       -47.0150   11.5940  -10.4750 C.3   178  VAL178      0.0252
    117  CG1      -48.1160   10.9520  -11.2930 C.3   178  VAL178      0.0019
    118  CG2      -45.6740   11.1220  -10.9620 C.3   178  VAL178      0.0019
    119  N        -47.3860   15.6400   -6.1510 N.3   182  ASN182     -0.1240
    120  CA       -46.8870   15.4020   -4.8210 C.3   182  ASN182      0.1653
    121  C        -46.4110   16.7040   -4.2340 C.2   182  ASN182      0.2266
    122  O        -46.7730   17.0640   -3.1220 O.2   182  ASN182     -0.2867
    123  CB       -45.7590   14.3820   -4.8350 C.3   182  ASN182      0.1155
    124  CG       -45.0240   14.3230   -3.5180 C.2   182  ASN182      0.2627
    125  OD1      -43.8630   14.7060   -3.4210 O.2   182  ASN182     -0.2716
    126  ND2      -45.7110   13.8670   -2.4840 N.am  182  ASN182     -0.0877
    127  N        -47.7580   17.6250   -0.9710 N.3   186  SER186     -0.1217
    128  CA       -46.8100   17.4000    0.1060 C.3   186  SER186      0.1889
    129  C        -46.1370   18.7140    0.4500 C.2   186  SER186      0.2288
    130  O        -45.2660   18.7720    1.3060 O.2   186  SER186     -0.2866
    131  CB       -45.7750   16.3200   -0.2610 C.3   186  SER186      0.2089
    132  OG       -45.0890   16.6190   -1.4580 O.3   186  SER186     -0.2183
    133  N        -46.4010   20.1020    4.1910 N.3   189  LYS189     -0.1231
    134  CA       -45.5840   19.1140    4.8810 C.3   189  LYS189      0.1693
    135  C        -44.1310   19.4480    4.6690 C.2   189  LYS189      0.2591
    136  O        -43.4190   19.8150    5.5950 O.2   189  LYS189     -0.2718
    137  CB       -45.8660   17.6910    4.3680 C.3   189  LYS189      0.0285
    138  CG       -44.7370   16.6720    4.6410 C.3   189  LYS189      0.0035
    139  CD       -45.0850   15.2380    4.2230 C.3   189  LYS189      0.0206
    140  CE       -44.4840   14.8380    2.8640 C.3   189  LYS189      0.1093
    141  NZ       -43.2920   13.9030    2.9120 N.3   189  LYS189     -0.1314
    142  N        -43.7080   19.3480    3.4190 N.am  190  GLU190     -0.1979
    143  CA       -42.3050   19.4720    3.0790 C.3   190  GLU190      0.1602
    144  C        -41.8530   20.9120    3.3240 C.2   190  GLU190      0.2287
    145  O        -40.6680   21.1860    3.4620 O.2   190  GLU190     -0.2864
    146  CB       -42.0710   18.9900    1.6200 C.3   190  GLU190      0.0415
    147  CG       -42.3080   17.4440    1.4690 C.3   190  GLU190      0.1163
    148  CD       -42.2440   16.8360    0.0460 C.2   190  GLU190      0.3649
    149  OE1      -42.7770   17.4070   -0.9280 O.co2 190  GLU190     -0.2457
    150  OE2      -41.6910   15.7200   -0.0770 O.co2 190  GLU190     -0.2457
    151  N        -53.1590    9.1650   -7.9310 N.3   266  ASN266     -0.1240
    152  CA       -52.3780   10.0920   -7.1330 C.3   266  ASN266      0.1653
    153  C        -53.1970   11.3060   -6.7180 C.2   266  ASN266      0.2266
    154  O        -53.1560   11.7290   -5.5690 O.2   266  ASN266     -0.2867
    155  CB       -51.1390   10.5270   -7.9100 C.3   266  ASN266      0.1155
    156  CG       -50.1330   11.2400   -7.0470 C.2   266  ASN266      0.2627
    157  OD1      -49.9800   10.9340   -5.8680 O.2   266  ASN266     -0.2716
    158  ND2      -49.4360   12.2000   -7.6310 N.am  266  ASN266     -0.0877
    159  N        -56.1580   10.4580   -4.1110 N.3   269  TRP269     -0.1241
    160  CA       -55.5260   10.0170   -2.8920 C.3   269  TRP269      0.1605
    161  C        -54.8930   11.1900   -2.1860 C.2   269  TRP269      0.2264
    162  O        -55.1940   11.4480   -1.0300 O.2   269  TRP269     -0.2867
    163  CB       -54.4930    8.9540   -3.1910 C.3   269  TRP269      0.0550
    164  CG       -53.6750    8.5850   -2.0310 C.ar  269  TRP269      0.0003
    165  CD1      -54.0020    7.7050   -1.0440 C.ar  269  TRP269      0.0946
    166  CD2      -52.3630    9.0580   -1.7340 C.ar  269  TRP269      0.0152
    167  NE1      -52.9720    7.6050   -0.1480 N.ar  269  TRP269     -0.2442
    168  CE2      -51.9530    8.4240   -0.5510 C.ar  269  TRP269      0.0810
    169  CE3      -51.4930    9.9530   -2.3580 C.ar  269  TRP269      0.0012
    170  CZ2      -50.7190    8.6640    0.0270 C.ar  269  TRP269      0.0191
    171  CZ3      -50.2690   10.1880   -1.7850 C.ar  269  TRP269      0.0001
    172  CH2      -49.8900    9.5480   -0.6040 C.ar  269  TRP269      0.0015
    173  N        -51.8300   11.4130    5.2240 N.3   275  ARG275     -0.1231
    174  CA       -50.4520   11.8220    5.0790 C.3   275  ARG275      0.1694
    175  C        -50.3500   13.2910    4.7320 C.2   275  ARG275      0.2592
    176  O        -49.6820   14.0400    5.4260 O.2   275  ARG275     -0.2718
    177  CB       -49.7490   11.0010    4.0130 C.3   275  ARG275      0.0321
    178  CG       -48.3220   11.4570    3.7820 C.3   275  ARG275      0.0489
    179  CD       -47.6010   10.5960    2.7670 C.3   275  ARG275      0.2205
    180  NE       -46.5260    9.8340    3.3820 N.pl3 275  ARG275     -0.0865
    181  CZ       -45.2350   10.1120    3.2590 C.cat 275  ARG275      0.5346
    182  NH1      -44.3410    9.3470    3.8630 N.pl3 275  ARG275      0.1354
    183  NH2      -44.8380   11.1380    2.5300 N.pl3 275  ARG275      0.1354
    184  N        -51.0050   13.7240    3.6670 N.am  276  TYR276     -0.1976
    185  CA       -50.9100   15.1340    3.3240 C.3   276  TYR276      0.1639
    186  C        -52.0280   15.8980    3.9940 C.2   276  TYR276      0.2290
    187  O        -51.9590   17.1080    4.1230 O.2   276  TYR276     -0.2864
    188  CB       -50.9440   15.3420    1.8100 C.3   276  TYR276      0.0560
    189  CG       -49.9170   14.5320    1.0730 C.ar  276  TYR276     -0.0198
    190  CD1      -48.7140   14.2130    1.6680 C.ar  276  TYR276     -0.0009
    191  CD2      -50.1530   14.0690   -0.2110 C.ar  276  TYR276     -0.0009
    192  CE1      -47.7740   13.4600    1.0140 C.ar  276  TYR276      0.0417
    193  CE2      -49.2170   13.3000   -0.8660 C.ar  276  TYR276      0.0417
    194  CZ       -48.0270   13.0010   -0.2490 C.ar  276  TYR276      0.1957
    195  OH       -47.0760   12.2450   -0.9020 O.3   276  TYR276     -0.2866
@<TRIPOS>BOND
     1    98    99    1
     2   104   106   ar
     3   104   103   ar
     4   106   107   ar
     5   102   103    1
     6   102    99    1
     7   103   105   ar
     8    99   100    1
     9   100   101    2
    10   107   105   ar
    11   107   109   ar
    12   105   108   ar
    13   109   111   ar
    14   112   113    1
    15   108   110   ar
    16   117   116    1
    17   118   116    1
    18    90    92   ar
    19    90    89   ar
    20   111   110   ar
    21    92    93   ar
    22   113   116    1
    23   113   114    1
    24    87    86    2
    25    86    85    1
    26   114   115    2
    27    89    88    1
    28    89    91   ar
    29    93    95   ar
    30    93    91   ar
    31    47    48    1
    32    49    48    1
    33    49    50    2
    34    88    85    1
    35    95    97   ar
    36    85    84    1
    37    91    94   ar
    38    71    70    1
    39    48    51    1
    40    51    52    1
    41    73    74    1
    42    84    75   am
    43    76    75    2
    44   151   152    1
    45   155   152    1
    46   155   156    1
    47    75    74    1
    48    52    53    1
    49   158   156   am
    50    97    96   ar
    51    74    77    1
    52    94    96   ar
    53    58    59    1
    54    70    72    1
    55    70    67    1
    56   152   153    1
    57   156   157    2
    58   153   154    2
    59    66    67    1
    60    66    60   am
    61    53    54    1
    62    68    67    1
    63    68    69    2
    64   119   120    1
    65    77    78    1
    66    59    60    1
    67    59    62    1
    68    54    55    2
    69    11     9   ar
    70    11    10   ar
    71    60    61    2
    72    62    63    1
    73    78    79   ar
    74    78    80   ar
    75     9     7   ar
    76    79    81   ar
    77   123   120    1
    78   123   124    1
    79   120   121    1
    80     4     3    2
    81    10     8   ar
    82    80    82   ar
    83    55    56    1
    84    55    57    1
    85   121   122    2
    86    81    83   ar
    87   159   160    1
    88     7     6   ar
    89    63    65   ar
    90    63    64   ar
    91     3     2    1
    92     8     6   ar
    93    82    83   ar
    94   124   125    2
    95   124   126   am
    96     6     5    1
    97   163   160    1
    98   163   164    1
    99    19    17   am
   100   160   161    1
   101     2     5    1
   102     2     1    1
   103   169   171   ar
   104   169   166   ar
   105   161   162    2
   106   164   166   ar
   107   164   165   ar
   108    17    18    2
   109    17    16    1
   110   171   172   ar
   111   166   168   ar
   112   132   131    1
   113   165   167   ar
   114    16    13    1
   115   127   128    1
   116   149   148   ar
   117   195   194    1
   118   193   194   ar
   119   193   191   ar
   120   172   170   ar
   121   168   167   ar
   122   168   170   ar
   123    13    12    1
   124    13    14    1
   125    30    29   ar
   126    30    28   ar
   127   131   128    1
   128   194   192   ar
   129   191   189   ar
   130   150   148   ar
   131    29    27   ar
   132   148   147    1
   133   128   129    1
   134   129   130    2
   135    38    36   ar
   136    28    26   ar
   137    27    25   ar
   138    14    15    2
   139   192   190   ar
   140   189   190   ar
   141   189   188    1
   142    36    35    1
   143    36    37   ar
   144   147   146    1
   145    26    25   ar
   146   146   143    1
   147    46    44   ar
   148    25    24    1
   149   188   185    1
   150    45    44   ar
   151    35    32    1
   152    20    21    1
   153    44    43    1
   154   183   181    1
   155    21    24    1
   156    21    22    1
   157   179   180    1
   158   179   178    1
   159   140   141    1
   160   140   139    1
   161    32    31    1
   162    32    33    1
   163   143   144    1
   164   143   142    1
   165   181   180    2
   166   181   182    1
   167   185   184    1
   168   185   186    1
   169   144   145    2
   170   142   135   am
   171    43    40    1
   172   184   175   am
   173   178   177    1
   174    22    23    2
   175    34    33    2
   176   186   187    2
   177   177   174    1
   178   133   134    1
   179   139   138    1
   180   137   138    1
   181   137   134    1
   182   135   134    1
   183   135   136    2
   184    39    40    1
   185   175   174    1
   186   175   176    2
   187    40    41    1
   188   174   173    1
   189    41    42    2
