@<TRIPOS>MOLECULE
tmp/5er8B00.pdb
 191 186 0 0 0
SMALL
GASTEIGER

@<TRIPOS>ATOM
      1  N        -69.9190  -21.4360    1.6580 N.3    64  PHE64      -0.1241
      2  CA       -69.9490  -22.2480    2.8520 C.3    64  PHE64       0.1605
      3  C        -68.9970  -21.8230    3.9500 C.2    64  PHE64       0.2264
      4  O        -69.4140  -21.4720    5.0420 O.2    64  PHE64      -0.2867
      5  CB       -69.6620  -23.6910    2.4990 C.3    64  PHE64       0.0534
      6  CG       -69.6420  -24.5720    3.6810 C.ar   64  PHE64      -0.0203
      7  CD1      -70.8220  -24.9110    4.3140 C.ar   64  PHE64      -0.0042
      8  CD2      -68.4480  -25.0180    4.2010 C.ar   64  PHE64      -0.0042
      9  CE1      -70.8150  -25.7090    5.4290 C.ar   64  PHE64      -0.0003
     10  CE2      -68.4320  -25.8170    5.3170 C.ar   64  PHE64      -0.0003
     11  CZ       -69.6150  -26.1660    5.9310 C.ar   64  PHE64      -0.0000
     12  N        -64.4140  -31.7360   -1.1900 N.3    88  PHE88      -0.1241
     13  CA       -65.6620  -31.9390   -1.8930 C.3    88  PHE88       0.1605
     14  C        -65.4560  -32.8560   -3.0620 C.2    88  PHE88       0.2264
     15  O        -66.1570  -33.8470   -3.2330 O.2    88  PHE88      -0.2867
     16  CB       -66.2170  -30.6120   -2.3710 C.3    88  PHE88       0.0534
     17  CG       -67.2600  -30.0590   -1.4800 C.ar   88  PHE88      -0.0203
     18  CD1      -68.2650  -30.8790   -1.0110 C.ar   88  PHE88      -0.0042
     19  CD2      -67.2350  -28.7320   -1.0890 C.ar   88  PHE88      -0.0042
     20  CE1      -69.2420  -30.3930   -0.1850 C.ar   88  PHE88      -0.0003
     21  CE2      -68.2120  -28.2310   -0.2570 C.ar   88  PHE88      -0.0003
     22  CZ       -69.2210  -29.0650    0.1960 C.ar   88  PHE88      -0.0000
     23  N        -64.7430  -36.2340   -2.3140 N.3    91  ASP91      -0.1239
     24  CA       -65.9310  -36.8770   -1.7600 C.3    91  ASP91       0.1674
     25  C        -66.8120  -37.4200   -2.8800 C.2    91  ASP91       0.2266
     26  O        -67.3870  -38.5020   -2.7660 O.2    91  ASP91      -0.2867
     27  CB       -66.7220  -35.8960   -0.8890 C.3    91  ASP91       0.1410
     28  CG       -68.0370  -36.4740   -0.3960 C.2    91  ASP91       0.3668
     29  OD1      -69.0800  -36.1950   -1.0240 O.co2  91  ASP91      -0.2456
     30  OD2      -68.0310  -37.2030    0.6200 O.co2  91  ASP91      -0.2456
     31  N        -68.3530  -40.9510   -3.4600 N.3    95  ASP95      -0.1239
     32  CA       -69.7590  -41.2990   -3.5900 C.3    95  ASP95       0.1674
     33  C        -70.2870  -40.9370   -4.9740 C.2    95  ASP95       0.2266
     34  O        -70.7290  -41.7890   -5.7130 O.2    95  ASP95      -0.2867
     35  CB       -70.5720  -40.5920   -2.5020 C.3    95  ASP95       0.1410
     36  CG       -69.8320  -40.5110   -1.1870 C.2    95  ASP95       0.3668
     37  OD1      -69.2650  -41.5310   -0.7640 O.co2  95  ASP95      -0.2456
     38  OD2      -69.7940  -39.4190   -0.5970 O.co2  95  ASP95      -0.2456
     39  N        -70.8470  -42.3200   10.4440 N.3   148  ARG148     -0.1245
     40  CA       -70.9920  -41.1560    9.5900 C.3   148  ARG148      0.1563
     41  C        -70.2890  -39.9770   10.2300 C.2   148  ARG148      0.2260
     42  O        -69.7740  -39.1120    9.5340 O.2   148  ARG148     -0.2867
     43  CB       -72.4710  -40.8500    9.3300 C.3   148  ARG148      0.0307
     44  CG       -72.7790  -39.5210    8.6190 C.3   148  ARG148      0.0489
     45  CD       -72.2890  -39.4560    7.1700 C.3   148  ARG148      0.2205
     46  NE       -72.8950  -38.3280    6.4630 N.pl3 148  ARG148     -0.0865
     47  CZ       -72.5020  -37.8760    5.2790 C.cat 148  ARG148      0.5346
     48  NH1      -71.4860  -38.4440    4.6440 N.pl3 148  ARG148      0.1354
     49  NH2      -73.1280  -36.8490    4.7330 N.pl3 148  ARG148      0.1354
     50  N        -67.2920  -39.9190    8.7580 N.3   151  ASP151     -0.1225
     51  CA       -67.5340  -39.9330    7.3080 C.3   151  ASP151      0.1805
     52  C        -67.9170  -38.5520    6.8080 C.2   151  ASP151      0.2598
     53  O        -67.9980  -38.3070    5.6050 O.2   151  ASP151     -0.2718
     54  CB       -68.6400  -40.9280    6.9350 C.3   151  ASP151      0.1424
     55  CG       -68.8640  -41.0230    5.4290 C.2   151  ASP151      0.3668
     56  OD1      -68.1370  -41.7930    4.7670 O.co2 151  ASP151     -0.2456
     57  OD2      -69.7540  -40.3210    4.8970 O.co2 151  ASP151     -0.2456
     58  N        -68.1800  -37.6490    7.7390 N.am  152  VAL152     -0.1966
     59  CA       -68.5370  -36.2960    7.3650 C.3   152  VAL152      0.1727
     60  C        -67.3560  -35.4100    7.7520 C.2   152  VAL152      0.2616
     61  O        -67.4300  -34.1870    7.8200 O.2   152  VAL152     -0.2715
     62  CB       -69.8580  -35.8720    8.0200 C.3   152  VAL152      0.0290
     63  CG1      -69.6400  -35.5250    9.4770 C.3   152  VAL152      0.0023
     64  CG2      -70.4980  -34.7270    7.2480 C.3   152  VAL152      0.0023
     65  N        -66.2340  -36.0770    7.9660 N.am  153  GLY153     -0.1955
     66  CA       -64.9620  -35.4050    8.0670 C.3   153  GLY153      0.1869
     67  C        -64.8740  -34.6450    9.3500 C.2   153  GLY153      0.2309
     68  O        -64.7440  -33.4270    9.3680 O.2   153  GLY153     -0.2863
     69  N        -61.2390  -34.0020    9.7560 N.3   156  PHE156     -0.1227
     70  CA       -60.9940  -33.0730    8.6800 C.3   156  PHE156      0.1736
     71  C        -61.3670  -31.6780    9.0940 C.2   156  PHE156      0.2595
     72  O        -60.5510  -30.7670    9.0720 O.2   156  PHE156     -0.2718
     73  CB       -61.7950  -33.4460    7.4510 C.3   156  PHE156      0.0547
     74  CG       -61.8680  -32.3490    6.4540 C.ar  156  PHE156     -0.0202
     75  CD1      -63.0620  -31.7260    6.1750 C.ar  156  PHE156     -0.0042
     76  CD2      -60.7230  -31.9060    5.8270 C.ar  156  PHE156     -0.0042
     77  CE1      -63.1120  -30.7000    5.2640 C.ar  156  PHE156     -0.0003
     78  CE2      -60.7700  -30.8820    4.9190 C.ar  156  PHE156     -0.0003
     79  CZ       -61.9620  -30.2770    4.6370 C.ar  156  PHE156     -0.0000
     80  N        -62.6280  -31.5330    9.4610 N.am  157  TRP157     -0.1976
     81  CA       -63.1650  -30.2620    9.8750 C.3   157  TRP157      0.1640
     82  C        -62.3000  -29.6460   10.9400 C.2   157  TRP157      0.2290
     83  O        -61.9410  -28.4690   10.8830 O.2   157  TRP157     -0.2864
     84  CB       -64.5720  -30.4450   10.3930 C.3   157  TRP157      0.0576
     85  CG       -65.2630  -29.1670   10.6260 C.ar  157  TRP157      0.0006
     86  CD1      -65.7980  -28.7320   11.7910 C.ar  157  TRP157      0.0946
     87  CD2      -65.4930  -28.1330    9.6650 C.ar  157  TRP157      0.0152
     88  NE1      -66.3590  -27.4930   11.6200 N.ar  157  TRP157     -0.2442
     89  CE2      -66.1850  -27.1020   10.3210 C.ar  157  TRP157      0.0810
     90  CE3      -65.1860  -27.9820    8.3120 C.ar  157  TRP157      0.0012
     91  CZ2      -66.5710  -25.9340    9.6760 C.ar  157  TRP157      0.0191
     92  CZ3      -65.5740  -26.8180    7.6680 C.ar  157  TRP157      0.0001
     93  CH2      -66.2590  -25.8110    8.3520 C.ar  157  TRP157      0.0015
     94  N        -71.5920  -31.6950   16.1890 N.3   185  TRP185     -0.1241
     95  CA       -71.1670  -32.4160   15.0180 C.3   185  TRP185      0.1605
     96  C        -72.2430  -33.3720   14.5450 C.2   185  TRP185      0.2264
     97  O        -72.3850  -33.6000   13.3610 O.2   185  TRP185     -0.2867
     98  CB       -69.8650  -33.1460   15.3110 C.3   185  TRP185      0.0550
     99  CG       -69.1100  -33.5080   14.0960 C.ar  185  TRP185      0.0003
    100  CD1      -68.6590  -34.7450   13.7560 C.ar  185  TRP185      0.0946
    101  CD2      -68.7260  -32.6310   13.0360 C.ar  185  TRP185      0.0152
    102  NE1      -68.0170  -34.7000   12.5410 N.ar  185  TRP185     -0.2442
    103  CE2      -68.0340  -33.4130   12.0820 C.ar  185  TRP185      0.0810
    104  CE3      -68.8870  -31.2720   12.7910 C.ar  185  TRP185      0.0012
    105  CZ2      -67.5220  -32.8770   10.9160 C.ar  185  TRP185      0.0191
    106  CZ3      -68.3720  -30.7450   11.6360 C.ar  185  TRP185      0.0001
    107  CH2      -67.6970  -31.5450   10.7130 C.ar  185  TRP185      0.0015
    108  N        -75.1670  -31.4420   12.5100 N.3   188  VAL188     -0.1245
    109  CA       -74.8150  -31.0780   11.1460 C.3   188  VAL188      0.1561
    110  C        -74.8540  -32.2780   10.2100 C.2   188  VAL188      0.2260
    111  O        -75.1300  -32.1260    9.0330 O.2   188  VAL188     -0.2867
    112  CB       -73.4190  -30.4190   11.0670 C.3   188  VAL188      0.0252
    113  CG1      -73.2240  -29.4890   12.2300 C.3   188  VAL188      0.0019
    114  CG2      -72.3160  -31.4530   11.0470 C.3   188  VAL188      0.0019
    115  N        -76.8170  -32.4110    6.6350 N.3   192  ASN192     -0.1240
    116  CA       -76.3850  -32.7110    5.2780 C.3   192  ASN192      0.1653
    117  C        -77.1910  -33.8640    4.7500 C.2   192  ASN192      0.2266
    118  O        -77.5750  -33.8760    3.5970 O.2   192  ASN192     -0.2867
    119  CB       -74.9000  -33.0540    5.1860 C.3   192  ASN192      0.1155
    120  CG       -74.6280  -34.1440    4.1500 C.2   192  ASN192      0.2627
    121  OD1      -74.4880  -35.3150    4.4730 O.2   192  ASN192     -0.2716
    122  ND2      -74.6250  -33.7640    2.8970 N.am  192  ASN192     -0.0877
    123  N        -78.5310  -33.3680    1.5420 N.3   196  SER196     -0.1217
    124  CA       -77.8070  -34.0640    0.4890 C.3   196  SER196      0.1889
    125  C        -78.6320  -35.2710    0.0850 C.2   196  SER196      0.2288
    126  O        -78.2230  -36.0670   -0.7430 O.2   196  SER196     -0.2866
    127  CB       -76.3710  -34.4600    0.9180 C.3   196  SER196      0.2089
    128  OG       -76.2830  -35.1510    2.1610 O.3   196  SER196     -0.2183
    129  N        -79.8330  -35.6890   -3.8340 N.3   199  LYS199     -0.1231
    130  CA       -78.5330  -35.9130   -4.4210 C.3   199  LYS199      0.1693
    131  C        -78.1540  -37.3630   -4.2510 C.2   199  LYS199      0.2591
    132  O        -78.0460  -38.1110   -5.2130 O.2   199  LYS199     -0.2718
    133  CB       -77.4920  -35.0070   -3.7610 C.3   199  LYS199      0.0285
    134  CG       -76.0510  -35.4530   -3.9580 C.3   199  LYS199      0.0035
    135  CD       -75.0530  -34.4610   -3.3630 C.3   199  LYS199      0.0206
    136  CE       -74.4710  -34.9630   -2.0540 C.3   199  LYS199      0.1093
    137  NZ       -72.9940  -35.1730   -2.1190 N.3   199  LYS199     -0.1314
    138  N        -78.0200  -37.7630   -2.9990 N.am  200  GLU200     -0.1979
    139  CA       -77.5590  -39.0890   -2.6610 C.3   200  GLU200      0.1602
    140  C        -78.6110  -40.1330   -3.0110 C.2   200  GLU200      0.2287
    141  O        -78.2750  -41.2200   -3.4700 O.2   200  GLU200     -0.2864
    142  CB       -77.1750  -39.1250   -1.1760 C.3   200  GLU200      0.0415
    143  CG       -75.9570  -38.2040   -0.8490 C.3   200  GLU200      0.1163
    144  CD       -75.7860  -37.8950    0.6450 C.2   200  GLU200      0.3649
    145  OE1      -76.6080  -38.3810    1.4340 O.co2 200  GLU200     -0.2457
    146  OE2      -74.8430  -37.1740    1.0420 O.co2 200  GLU200     -0.2457
    147  N        -74.0990  -23.9170    8.3710 N.3   276  ASN276     -0.1240
    148  CA       -74.5260  -25.0800    7.6220 C.3   276  ASN276      0.1653
    149  C        -75.9440  -24.9550    7.1220 C.2   276  ASN276      0.2266
    150  O        -76.2600  -25.3280    6.0020 O.2   276  ASN276     -0.2867
    151  CB       -74.4140  -26.3310    8.4810 C.3   276  ASN276      0.1155
    152  CG       -74.5890  -27.5880    7.6780 C.2   276  ASN276      0.2627
    153  OD1      -74.1540  -27.6620    6.5300 O.2   276  ASN276     -0.2716
    154  ND2      -75.2350  -28.5850    8.2660 N.am  276  ASN276     -0.0877
    155  N        -76.4780  -22.2530    4.4170 N.3   279  TRP279     -0.1241
    156  CA       -75.7030  -22.5830    3.2430 C.3   279  TRP279      0.1605
    157  C        -76.4400  -23.6170    2.4330 C.2   279  TRP279      0.2264
    158  O        -76.8090  -23.3790    1.2950 O.2   279  TRP279     -0.2867
    159  CB       -74.3300  -23.0940    3.6260 C.3   279  TRP279      0.0550
    160  CG       -73.5620  -23.5920    2.4660 C.ar  279  TRP279      0.0003
    161  CD1      -72.8920  -22.8500    1.5460 C.ar  279  TRP279      0.0946
    162  CD2      -73.3810  -24.9520    2.0940 C.ar  279  TRP279      0.0152
    163  NE1      -72.2950  -23.6690    0.6260 N.ar  279  TRP279     -0.2442
    164  CE2      -72.5810  -24.9670    0.9440 C.ar  279  TRP279      0.0810
    165  CE3      -73.8140  -26.1640    2.6300 C.ar  279  TRP279      0.0012
    166  CZ2      -72.2130  -26.1370    0.3150 C.ar  279  TRP279      0.0191
    167  CZ3      -73.4480  -27.3240    2.0040 C.ar  279  TRP279      0.0001
    168  CH2      -72.6550  -27.3050    0.8580 C.ar  279  TRP279      0.0015
    169  N        -74.8980  -26.8810   -4.6660 N.3   285  ARG285     -0.1231
    170  CA       -74.5110  -28.2730   -4.6480 C.3   285  ARG285      0.1694
    171  C        -75.6810  -29.1710   -4.3390 C.2   285  ARG285      0.2592
    172  O        -75.7980  -30.2520   -4.8860 O.2   285  ARG285     -0.2718
    173  CB       -73.4240  -28.4900   -3.6320 C.3   285  ARG285      0.0321
    174  CG       -73.0100  -29.9080   -3.4790 C.3   285  ARG285      0.0489
    175  CD       -72.0800  -29.9830   -2.3070 C.3   285  ARG285      0.2205
    176  NE       -71.5400  -31.3140   -2.1010 N.pl3 285  ARG285     -0.0865
    177  CZ       -70.6890  -31.9040   -2.9250 C.cat 285  ARG285      0.5346
    178  NH1      -70.2810  -31.2760   -4.0160 N.pl3 285  ARG285      0.1354
    179  NH2      -70.2530  -33.1220   -2.6520 N.pl3 285  ARG285      0.1354
    180  N        -76.5610  -28.7070   -3.4690 N.am  286  TYR286     -0.1976
    181  CA       -77.7520  -29.4640   -3.1560 C.3   286  TYR286      0.1639
    182  C        -78.9660  -28.8410   -3.8050 C.2   286  TYR286      0.2290
    183  O        -80.0410  -29.4180   -3.7840 O.2   286  TYR286     -0.2864
    184  CB       -77.9510  -29.5510   -1.6460 C.3   286  TYR286      0.0560
    185  CG       -76.7560  -30.1050   -0.9150 C.ar  286  TYR286     -0.0198
    186  CD1      -75.9350  -31.0470   -1.5090 C.ar  286  TYR286     -0.0009
    187  CD2      -76.4400  -29.6770    0.3640 C.ar  286  TYR286     -0.0009
    188  CE1      -74.8340  -31.5560   -0.8510 C.ar  286  TYR286      0.0417
    189  CE2      -75.3330  -30.1790    1.0300 C.ar  286  TYR286      0.0417
    190  CZ       -74.5360  -31.1200    0.4160 C.ar  286  TYR286      0.1957
    191  OH       -73.4410  -31.6320    1.0740 O.3   286  TYR286     -0.2866
@<TRIPOS>BOND
     1    34    33    2
     2   132   131    2
     3    33    32    1
     4   172   171    2
     5   169   170    1
     6   170   171    1
     7   170   173    1
     8   130   131    1
     9   130   129    1
    10   130   133    1
    11   171   180   am
    12   131   138   am
    13   178   177    1
    14   134   133    1
    15   134   135    1
    16   182   183    2
    17   182   181    1
    18   173   174    1
    19    32    31    1
    20    32    35    1
    21   174   175    1
    22   141   140    2
    23   180   181    1
    24   135   136    1
    25    15    14    2
    26   181   184    1
    27    14    13    1
    28   140   139    1
    29   138   139    1
    30   177   179    1
    31   177   176    2
    32    25    26    2
    33    25    24    1
    34   139   142    1
    35    35    36    1
    36    16    13    1
    37    16    17    1
    38    23    24    1
    39   175   176    1
    40   137   136    1
    41    13    12    1
    42    24    27    1
    43   184   185    1
    44   186   185   ar
    45   186   188   ar
    46    17    19   ar
    47    17    18   ar
    48    36    37   ar
    49    36    38   ar
    50   142   143    1
    51    19    21   ar
    52    29    28   ar
    53    18    20   ar
    54   185   187   ar
    55    27    28    1
    56   188   190   ar
    57   143   144    1
    58   126   125    2
    59    28    30   ar
    60    21    22   ar
    61    20    22   ar
    62   125   124    1
    63   166   168   ar
    64   166   164   ar
    65   187   189   ar
    66   190   189   ar
    67   190   191    1
    68   124   127    1
    69   124   123    1
    70   163   164   ar
    71   163   161   ar
    72   144   146   ar
    73   144   145   ar
    74   168   167   ar
    75   127   128    1
    76   164   162   ar
    77   158   157    2
    78   161   160   ar
    79     1     2    1
    80   167   165   ar
    81   162   160   ar
    82   162   165   ar
    83   157   156    1
    84   160   159    1
    85     5     2    1
    86     5     6    1
    87     2     3    1
    88   122   120   am
    89   156   159    1
    90   156   155    1
    91   118   117    2
    92     6     8   ar
    93     6     7   ar
    94     3     4    2
    95   120   121    2
    96   120   119    1
    97     8    10   ar
    98     7     9   ar
    99    79    78   ar
   100    79    77   ar
   101    48    47    1
   102    49    47    1
   103   117   116    1
   104    56    55   ar
   105    57    55   ar
   106    78    76   ar
   107   119   116    1
   108    77    75   ar
   109   116   115    1
   110    47    46    2
   111    10    11   ar
   112    55    54    1
   113     9    11   ar
   114    53    52    2
   115    76    74   ar
   116   150   149    2
   117    75    74   ar
   118    74    73    1
   119    46    45    1
   120   153   152    2
   121    52    51    1
   122    52    58   am
   123    54    51    1
   124   149   148    1
   125    45    44    1
   126    64    62    1
   127    51    50    1
   128    59    58    1
   129    59    60    1
   130    59    62    1
   131    73    70    1
   132   148   147    1
   133   148   151    1
   134    92    90   ar
   135    92    93   ar
   136   152   154   am
   137   152   151    1
   138    60    61    2
   139    60    65   am
   140    65    66    1
   141    62    63    1
   142    66    67    1
   143    90    87   ar
   144    93    91   ar
   145    44    43    1
   146    70    71    1
   147    70    69    1
   148   111   110    2
   149    72    71    2
   150    71    80   am
   151    43    40    1
   152    67    68    2
   153    80    81    1
   154    42    41    2
   155    40    41    1
   156    40    39    1
   157    87    89   ar
   158    87    85   ar
   159    91    89   ar
   160    81    84    1
   161    81    82    1
   162   110   109    1
   163    89    88   ar
   164    84    85    1
   165    85    86   ar
   166   107   105   ar
   167   107   106   ar
   168    83    82    2
   169   105   103   ar
   170   114   112    1
   171   112   109    1
   172   112   113    1
   173   109   108    1
   174    88    86   ar
   175   106   104   ar
   176   103   102   ar
   177   103   101   ar
   178   102   100   ar
   179   104   101   ar
   180   101    99   ar
   181    97    96    2
   182   100    99   ar
   183    99    98    1
   184    96    95    1
   185    95    98    1
   186    95    94    1
