@<TRIPOS>MOLECULE
tmp/5er9A00.pdb
 168 163 0 0 0
SMALL
GASTEIGER

@<TRIPOS>ATOM
      1  N         30.2400   32.7590   79.0320 N.3    90  ALA90      -0.1245
      2  CA        30.0330   31.4900   78.3350 C.3    90  ALA90       0.1562
      3  C         28.6670   30.9140   78.7020 C.2    90  ALA90       0.2260
      4  O         28.3680   30.7510   79.8800 O.2    90  ALA90      -0.2867
      5  CB        31.1270   30.5070   78.6800 C.3    90  ALA90       0.0290
      6  N         34.0960   33.5850   82.6730 N.3    99  PHE99      -0.1241
      7  CA        34.9810   32.9260   81.7250 C.3    99  PHE99       0.1605
      8  C         36.1510   33.9010   81.5290 C.2    99  PHE99       0.2264
      9  O         35.9540   35.0990   81.6830 O.2    99  PHE99      -0.2867
     10  CB        34.2210   32.6250   80.4260 C.3    99  PHE99       0.0534
     11  CG        34.9010   31.6360   79.5360 C.ar   99  PHE99      -0.0203
     12  CD1       34.8960   30.2810   79.8530 C.ar   99  PHE99      -0.0042
     13  CD2       35.5600   32.0570   78.3850 C.ar   99  PHE99      -0.0042
     14  CE1       35.5340   29.3660   79.0350 C.ar   99  PHE99      -0.0003
     15  CE2       36.1970   31.1380   77.5690 C.ar   99  PHE99      -0.0003
     16  CZ        36.1780   29.8010   77.8900 C.ar   99  PHE99      -0.0000
     17  N         43.1680   15.2750   71.1190 N.3   138  PHE138     -0.1241
     18  CA        42.7630   16.5590   71.6970 C.3   138  PHE138      0.1605
     19  C         41.9420   16.3720   72.9690 C.2   138  PHE138      0.2264
     20  O         42.1970   17.0100   73.9850 O.2   138  PHE138     -0.2867
     21  CB        41.9590   17.3650   70.6690 C.3   138  PHE138      0.0534
     22  CG        41.7180   18.8050   71.0590 C.ar  138  PHE138     -0.0203
     23  CD1       40.7250   19.1460   71.9670 C.ar  138  PHE138     -0.0042
     24  CD2       42.4760   19.8200   70.4980 C.ar  138  PHE138     -0.0042
     25  CE1       40.5070   20.4730   72.3140 C.ar  138  PHE138     -0.0003
     26  CE2       42.2660   21.1410   70.8390 C.ar  138  PHE138     -0.0003
     27  CZ        41.2810   21.4720   71.7460 C.ar  138  PHE138     -0.0000
     28  N         32.8570   23.0860   78.6580 N.3   154  PHE154     -0.1227
     29  CA        33.1530   24.3900   78.0540 C.3   154  PHE154      0.1736
     30  C         34.0940   24.3620   76.8620 C.2   154  PHE154      0.2595
     31  O         34.1740   25.3410   76.1250 O.2   154  PHE154     -0.2718
     32  CB        33.7280   25.3320   79.1120 C.3   154  PHE154      0.0547
     33  CG        32.7490   25.6590   80.1970 C.ar  154  PHE154     -0.0202
     34  CD1       31.7270   26.5690   79.9630 C.ar  154  PHE154     -0.0042
     35  CD2       32.8260   25.0370   81.4320 C.ar  154  PHE154     -0.0042
     36  CE1       30.7910   26.8600   80.9500 C.ar  154  PHE154     -0.0003
     37  CE2       31.8830   25.3160   82.4280 C.ar  154  PHE154     -0.0003
     38  CZ        30.8810   26.2340   82.1890 C.ar  154  PHE154     -0.0000
     39  N         34.7930   23.2560   76.6580 N.am  155  ILE155     -0.1980
     40  CA        35.7400   23.2040   75.5430 C.3   155  ILE155      0.1595
     41  C         35.2650   22.2500   74.4460 C.2   155  ILE155      0.2287
     42  O         35.3030   22.6110   73.2670 O.2   155  ILE155     -0.2864
     43  CB        37.1660   22.7870   76.0160 C.3   155  ILE155      0.0276
     44  CG1       37.6350   23.6460   77.1970 C.3   155  ILE155      0.0022
     45  CG2       38.1740   22.8920   74.8700 C.3   155  ILE155      0.0022
     46  CD1       37.8130   25.1030   76.8650 C.3   155  ILE155      0.0001
     47  N         32.2400   23.4070   71.9970 N.3   158  TYR158     -0.1227
     48  CA        32.5740   24.7010   71.4060 C.3   158  TYR158      0.1736
     49  C         33.6850   24.5270   70.3670 C.2   158  TYR158      0.2596
     50  O         33.6570   25.1340   69.2850 O.2   158  TYR158     -0.2718
     51  CB        33.0060   25.7050   72.4830 C.3   158  TYR158      0.0548
     52  CG        33.3370   27.0830   71.9570 C.ar  158  TYR158     -0.0200
     53  CD1       32.3590   28.0650   71.8370 C.ar  158  TYR158     -0.0009
     54  CD2       34.6220   27.4060   71.5730 C.ar  158  TYR158     -0.0009
     55  CE1       32.6630   29.3210   71.3600 C.ar  158  TYR158      0.0417
     56  CE2       34.9320   28.6620   71.0990 C.ar  158  TYR158      0.0417
     57  CZ        33.9530   29.6160   70.9890 C.ar  158  TYR158      0.1957
     58  OH        34.2720   30.8640   70.5080 O.3   158  TYR158     -0.2866
     59  N         34.6580   23.6920   70.7200 N.am  159  THR159     -0.1953
     60  CA        35.7670   23.3560   69.8320 C.3   159  THR159      0.1897
     61  C         35.2310   22.6350   68.6010 C.2   159  THR159      0.2313
     62  O         35.6150   22.9470   67.4720 O.2   159  THR159     -0.2863
     63  CB        36.8190   22.4810   70.5510 C.3   159  THR159      0.1794
     64  OG1       37.5850   23.3000   71.4460 O.3   159  THR159     -0.2208
     65  CG2       37.7640   21.8350   69.5460 C.3   159  THR159      0.0378
     66  N         33.7380   24.9440   66.1590 N.3   162  GLN162     -0.1231
     67  CA        34.8150   25.6270   65.4690 C.3   162  GLN162      0.1698
     68  C         35.5070   24.7540   64.4340 C.2   162  GLN162      0.2592
     69  O         36.0900   25.2690   63.4880 O.2   162  GLN162     -0.2718
     70  CB        35.8420   26.1130   66.4690 C.3   162  GLN162      0.0381
     71  CG        35.3480   27.2110   67.3460 C.3   162  GLN162      0.0905
     72  CD        36.2970   27.4360   68.4700 C.2   162  GLN162      0.2608
     73  OE1       36.6820   26.4870   69.1500 O.2   162  GLN162     -0.2717
     74  NE2       36.7120   28.6810   68.6630 N.am  162  GLN162     -0.0878
     75  N         35.4630   23.4380   64.6150 N.am  163  TRP163     -0.1976
     76  CA        36.1890   22.5540   63.7060 C.3   163  TRP163      0.1640
     77  C         35.2660   21.5990   62.9450 C.2   163  TRP163      0.2290
     78  O         35.6960   20.9410   61.9960 O.2   163  TRP163     -0.2864
     79  CB        37.2600   21.7690   64.4780 C.3   163  TRP163      0.0576
     80  CG        38.3090   22.6490   65.1230 C.ar  163  TRP163      0.0006
     81  CD1       38.2510   23.2190   66.3600 C.ar  163  TRP163      0.0946
     82  CD2       39.5660   23.0510   64.5590 C.ar  163  TRP163      0.0152
     83  NE1       39.3860   23.9530   66.6050 N.ar  163  TRP163     -0.2442
     84  CE2       40.2120   23.8640   65.5150 C.ar  163  TRP163      0.0810
     85  CE3       40.2080   22.8030   63.3410 C.ar  163  TRP163      0.0012
     86  CZ2       41.4660   24.4300   65.2900 C.ar  163  TRP163      0.0191
     87  CZ3       41.4530   23.3660   63.1210 C.ar  163  TRP163      0.0001
     88  CH2       42.0690   24.1710   64.0910 C.ar  163  TRP163      0.0015
     89  N         39.7300   38.9520   79.9500 N.3   188  TYR188     -0.1241
     90  CA        39.8990   37.9030   78.9400 C.3   188  TYR188      0.1605
     91  C         41.3240   37.7880   78.4200 C.2   188  TYR188      0.2264
     92  O         41.7940   36.6920   78.1610 O.2   188  TYR188     -0.2867
     93  CB        38.9600   38.1030   77.7580 C.3   188  TYR188      0.0534
     94  CG        38.8800   36.9020   76.8630 C.ar  188  TYR188     -0.0201
     95  CD1       38.2480   35.7500   77.2830 C.ar  188  TYR188     -0.0009
     96  CD2       39.4510   36.9080   75.5870 C.ar  188  TYR188     -0.0009
     97  CE1       38.1550   34.6430   76.4690 C.ar  188  TYR188      0.0417
     98  CE2       39.3570   35.8030   74.7630 C.ar  188  TYR188      0.0417
     99  CZ        38.7120   34.6730   75.2100 C.ar  188  TYR188      0.1957
    100  OH        38.6120   33.5540   74.4110 O.3   188  TYR188     -0.2866
    101  N         29.8610   33.5710   74.3960 N.3   279  ASN279     -0.1240
    102  CA        30.1420   32.2950   73.7570 C.3   279  ASN279      0.1653
    103  C         28.9780   31.3660   74.0030 C.2   279  ASN279      0.2266
    104  O         28.3530   31.4270   75.0620 O.2   279  ASN279     -0.2867
    105  CB        31.4300   31.6590   74.2820 C.3   279  ASN279      0.1155
    106  CG        32.6620   32.4220   73.8580 C.2   279  ASN279      0.2627
    107  OD1       32.5610   33.4600   73.2070 O.2   279  ASN279     -0.2716
    108  ND2       33.8350   31.9130   74.2240 N.am  279  ASN279     -0.0877
    109  N         28.4790   27.4760   74.2480 N.3   281  ASN281     -0.1240
    110  CA        29.3190   26.2980   74.3260 C.3   281  ASN281      0.1653
    111  C         28.6040   24.9970   73.9730 C.2   281  ASN281      0.2266
    112  O         29.2430   23.9540   73.9030 O.2   281  ASN281     -0.2867
    113  CB        29.9350   26.2250   75.7270 C.3   281  ASN281      0.1155
    114  CG        30.7920   27.4450   76.0300 C.2   281  ASN281      0.2627
    115  OD1       30.2780   28.5570   76.1800 O.2   281  ASN281     -0.2716
    116  ND2       32.1050   27.2560   76.0610 N.am  281  ASN281     -0.0877
    117  N         29.2250   32.1010   68.8150 N.3   289  ARG289     -0.1245
    118  CA        29.2160   33.3030   69.6450 C.3   289  ARG289      0.1563
    119  C         28.1900   34.3100   69.1650 C.2   289  ARG289      0.2260
    120  O         27.8120   34.3100   67.9990 O.2   289  ARG289     -0.2867
    121  CB        30.5900   34.0050   69.6330 C.3   289  ARG289      0.0307
    122  CG        31.8070   33.1470   69.8510 C.3   289  ARG289      0.0489
    123  CD        33.0460   34.0240   69.9580 C.3   289  ARG289      0.2205
    124  NE        33.6030   34.3550   68.6480 N.pl3 289  ARG289     -0.0865
    125  CZ        34.8740   34.6910   68.4700 C.cat 289  ARG289      0.5346
    126  NH1       35.6710   34.7530   69.5310 N.pl3 289  ARG289      0.1354
    127  NH2       35.3490   34.9600   67.2530 N.pl3 289  ARG289      0.1354
    128  N         27.7650   34.3750   64.9870 N.3   312  GLU312     -0.1245
    129  CA        28.9640   33.8780   64.3160 C.3   312  GLU312      0.1567
    130  C         28.8940   32.3780   64.0940 C.2   312  GLU312      0.2260
    131  O         28.6760   31.6230   65.0350 O.2   312  GLU312     -0.2867
    132  CB        30.2070   34.2390   65.1420 C.3   312  GLU312      0.0388
    133  CG        31.5030   33.6650   64.6530 C.3   312  GLU312      0.1160
    134  CD        32.6980   34.3340   65.3180 C.2   312  GLU312      0.3649
    135  OE1       32.6600   35.5660   65.4940 O.co2 312  GLU312     -0.2457
    136  OE2       33.6590   33.6260   65.6570 O.co2 312  GLU312     -0.2457
    137  N         41.0920   31.1820   59.6830 N.3   325  TYR325     -0.1241
    138  CA        42.0020   30.4790   60.5820 C.3   325  TYR325      0.1605
    139  C         42.6690   29.2570   59.9330 C.2   325  TYR325      0.2264
    140  O         41.9810   28.4030   59.3880 O.2   325  TYR325     -0.2867
    141  CB        41.2490   30.0140   61.8370 C.3   325  TYR325      0.0534
    142  CG        40.4100   31.0520   62.5680 C.ar  325  TYR325     -0.0201
    143  CD1       40.8800   31.6690   63.7170 C.ar  325  TYR325     -0.0009
    144  CD2       39.1280   31.3730   62.1360 C.ar  325  TYR325     -0.0009
    145  CE1       40.1040   32.6030   64.3970 C.ar  325  TYR325      0.0417
    146  CE2       38.3450   32.3040   62.8090 C.ar  325  TYR325      0.0417
    147  CZ        38.8410   32.9110   63.9360 C.ar  325  TYR325      0.1957
    148  OH        38.0690   33.8280   64.6000 O.3   325  TYR325     -0.2866
    149  N         47.7970   32.0930   62.1870 N.3   363  TYR363     -0.1241
    150  CA        46.8630   33.0470   62.7040 C.3   363  TYR363      0.1605
    151  C         47.7130   34.0700   63.4210 C.2   363  TYR363      0.2264
    152  O         48.7090   33.7780   64.0610 O.2   363  TYR363     -0.2867
    153  CB        45.7960   32.4800   63.6280 C.3   363  TYR363      0.0534
    154  CG        44.9690   33.6300   64.1610 C.ar  363  TYR363     -0.0201
    155  CD1       44.0360   34.2840   63.3530 C.ar  363  TYR363     -0.0009
    156  CD2       45.1950   34.1240   65.4310 C.ar  363  TYR363     -0.0009
    157  CE1       43.3130   35.3720   63.8310 C.ar  363  TYR363      0.0417
    158  CE2       44.4840   35.1940   65.9140 C.ar  363  TYR363      0.0417
    159  CZ        43.5480   35.8170   65.1190 C.ar  363  TYR363      0.1957
    160  OH        42.8600   36.8820   65.6450 O.3   363  TYR363     -0.2866
    161  N         46.8990   37.7410   65.6000 N.3   365  ASP365     -0.1239
    162  CA        46.1510   38.8800   66.1250 C.3   365  ASP365      0.1674
    163  C         46.7060   40.1670   65.5180 C.2   365  ASP365      0.2266
    164  O         47.8130   40.1770   64.9870 O.2   365  ASP365     -0.2867
    165  CB        46.2590   38.9670   67.6520 C.3   365  ASP365      0.1410
    166  CG        45.3950   37.9420   68.3650 C.2   365  ASP365      0.3668
    167  OD1       44.3490   37.5380   67.8200 O.co2 365  ASP365     -0.2456
    168  OD2       45.7640   37.5520   69.4840 O.co2 365  ASP365     -0.2456
@<TRIPOS>BOND
     1   140   139    2
     2   137   138    1
     3   139   138    1
     4   138   141    1
     5   141   142    1
     6    78    77    2
     7   144   142   ar
     8   144   146   ar
     9   149   150    1
    10   142   143   ar
    11   150   151    1
    12   150   153    1
    13   146   147   ar
    14    77    76    1
    15    87    85   ar
    16    87    88   ar
    17    85    82   ar
    18   155   157   ar
    19   155   154   ar
    20   151   152    2
    21    69    68    2
    22   153   154    1
    23    76    79    1
    24    76    75    1
    25   143   145   ar
    26   157   159   ar
    27   147   145   ar
    28   147   148    1
    29    88    86   ar
    30   130   129    1
    31   130   131    2
    32   154   156   ar
    33   129   128    1
    34   129   132    1
    35    68    75   am
    36    68    67    1
    37    79    80    1
    38    82    80   ar
    39    82    84   ar
    40   133   132    1
    41   133   134    1
    42   164   163    2
    43   159   160    1
    44   159   158   ar
    45    80    81   ar
    46    86    84   ar
    47   134   135   ar
    48   134   136   ar
    49   156   158   ar
    50    67    66    1
    51    67    70    1
    52    84    83   ar
    53   163   162    1
    54   161   162    1
    55   162   165    1
    56    81    83   ar
    57    70    71    1
    58   127   125    1
    59    71    72    1
    60    62    61    2
    61   165   166    1
    62   167   166   ar
    63   120   119    2
    64   166   168   ar
    65    72    74   am
    66    72    73    2
    67   125   124    2
    68   125   126    1
    69    61    60    1
    70   124   123    1
    71   117   118    1
    72   119   118    1
    73    50    49    2
    74    65    63    1
    75   121   118    1
    76   121   122    1
    77    60    63    1
    78    60    59    1
    79   122   123    1
    80    49    59   am
    81    49    48    1
    82    24    26   ar
    83    24    22   ar
    84    58    57    1
    85    63    64    1
    86    21    22    1
    87    21    18    1
    88    26    27   ar
    89    57    56   ar
    90    57    55   ar
    91    22    23   ar
    92    56    54   ar
    93    17    18    1
    94    55    53   ar
    95    48    47    1
    96    48    51    1
    97    54    52   ar
    98    18    19    1
    99    27    25   ar
   100    53    52   ar
   101    52    51    1
   102    23    25   ar
   103    19    20    2
   104   107   106    2
   105    42    41    2
   106   102   103    1
   107   102   105    1
   108   102   101    1
   109   106   108   am
   110   106   105    1
   111   112   111    2
   112   111   110    1
   113   103   104    2
   114   109   110    1
   115   110   113    1
   116   100    99    1
   117    41    40    1
   118    98    99   ar
   119    98    96   ar
   120    45    43    1
   121    99    97   ar
   122    40    43    1
   123    40    39    1
   124    96    94   ar
   125   113   114    1
   126    43    44    1
   127   114   116   am
   128   114   115    2
   129    31    30    2
   130    97    95   ar
   131    39    30   am
   132    30    29    1
   133    94    95   ar
   134    94    93    1
   135    46    44    1
   136    15    16   ar
   137    15    13   ar
   138    93    90    1
   139    16    14   ar
   140    29    28    1
   141    29    32    1
   142    92    91    2
   143     2     5    1
   144     2     3    1
   145     2     1    1
   146    13    11   ar
   147    91    90    1
   148     3     4    2
   149    90    89    1
   150    14    12   ar
   151    32    33    1
   152    11    12   ar
   153    11    10    1
   154    34    33   ar
   155    34    36   ar
   156    33    35   ar
   157    10     7    1
   158    36    38   ar
   159    35    37   ar
   160     8     9    2
   161     8     7    1
   162     7     6    1
   163    38    37   ar
