@<TRIPOS>MOLECULE
tmp/5ereA00.pdb
 115 111 0 0 0
SMALL
GASTEIGER

@<TRIPOS>ATOM
      1  N         24.0400   10.6130    4.2190 N.3     9  PRO9       -0.2116
      2  CA        23.1270    9.6050    3.6740 C.3     9  PRO9        0.1372
      3  C         22.0330   10.2360    2.8120 C.2     9  PRO9        0.2244
      4  O         20.8600   10.1610    3.1740 O.2     9  PRO9       -0.2868
      5  CB        22.5650    8.9530    4.9380 C.3     9  PRO9        0.0268
      6  CG        22.5940   10.0960    5.9710 C.3     9  PRO9        0.0207
      7  CD        23.8030   10.8640    5.6510 C.3     9  PRO9        0.0892
      8  N         16.9690    9.1420    5.5520 N.3    14  PHE14      -0.1241
      9  CA        17.4910   10.2700    6.3490 C.3    14  PHE14       0.1605
     10  C         18.0380   11.3890    5.4630 C.2    14  PHE14       0.2264
     11  O         18.9190   12.1770    5.8600 O.2    14  PHE14      -0.2867
     12  CB        18.5150    9.7130    7.3400 C.3    14  PHE14       0.0534
     13  CG        18.0000    8.4730    8.0430 C.ar   14  PHE14      -0.0203
     14  CD1       16.9350    8.5800    8.9190 C.ar   14  PHE14      -0.0042
     15  CD2       18.5490    7.2110    7.7940 C.ar   14  PHE14      -0.0042
     16  CE1       16.4140    7.4450    9.5620 C.ar   14  PHE14      -0.0003
     17  CE2       18.0250    6.0520    8.4320 C.ar   14  PHE14      -0.0003
     18  CZ        16.9690    6.1810    9.3170 C.ar   14  PHE14      -0.0000
     19  N         18.1290   14.8730    7.1080 N.3    17  ILE17      -0.1245
     20  CA        19.2570   15.0610    8.0170 C.3    17  ILE17       0.1561
     21  C         20.5130   15.3600    7.1980 C.2    17  ILE17       0.2260
     22  O         21.2710   16.3000    7.4950 O.2    17  ILE17      -0.2867
     23  CB        19.4360   13.8130    8.9060 C.3    17  ILE17       0.0252
     24  CG1       18.3410   13.8010    9.9880 C.3    17  ILE17       0.0019
     25  CG2       20.8500   13.7220    9.5460 C.3    17  ILE17       0.0019
     26  CD1       18.0780   12.4170   10.5700 C.3    17  ILE17       0.0001
     27  N         28.4870   10.6360    8.3220 N.3    70  CYS70      -0.1221
     28  CA        27.2610   10.6330    9.0910 C.3    70  CYS70       0.1808
     29  C         26.7050    9.1990    9.1830 C.2    70  CYS70       0.2602
     30  O         26.7690    8.4810    8.2080 O.2    70  CYS70      -0.2717
     31  CB        26.2180   11.5460    8.4530 C.3    70  CYS70       0.0970
     32  SG        24.6040   11.2950    9.2540 S.3    70  CYS70      -0.0800
     33  N         26.1810    8.8570   10.3640 N.am   71  SER71      -0.1938
     34  CA        25.3690    7.6610   10.7090 C.3    71  SER71       0.2055
     35  C         26.2410    6.6310   11.4170 C.2    71  SER71       0.2644
     36  O         27.4180    6.4730   11.1070 O.2    71  SER71      -0.2714
     37  CB        24.6680    7.0170    9.5000 C.3    71  SER71       0.2130
     38  OG        25.5450    6.1880    8.7770 O.3    71  SER71      -0.2179
     39  N         25.6690    5.9930   12.4300 N.am   72  SER72      -0.1935
     40  CA        26.3700    4.9630   13.2010 C.3    72  SER72       0.2055
     41  C         26.8720    3.8230   12.3190 C.2    72  SER72       0.2643
     42  O         27.9560    3.2980   12.5540 O.2    72  SER72      -0.2714
     43  CB        25.4560    4.4170   14.2940 C.3    72  SER72       0.2130
     44  OG        25.0490    5.4810   15.1410 O.3    72  SER72      -0.2179
     45  N         26.1120    3.4770   11.2820 N.am   73  TRP73      -0.1973
     46  CA        26.5130    2.3720   10.4110 C.3    73  TRP73       0.1640
     47  C         27.6060    2.7610    9.4390 C.2    73  TRP73       0.2290
     48  O         28.5840    2.0210    9.2780 O.2    73  TRP73      -0.2864
     49  CB        25.3060    1.7910    9.6390 C.3    73  TRP73       0.0576
     50  CG        24.3580    2.7740    9.0070 C.ar   73  TRP73       0.0006
     51  CD1       24.2830    3.1070    7.6870 C.ar   73  TRP73       0.0946
     52  CD2       23.3240    3.5160    9.6660 C.ar   73  TRP73       0.0152
     53  NE1       23.2860    4.0230    7.4860 N.ar   73  TRP73      -0.2442
     54  CE2       22.6810    4.2870    8.6900 C.ar   73  TRP73       0.0810
     55  CE3       22.8880    3.6070   10.9970 C.ar   73  TRP73       0.0012
     56  CZ2       21.6240    5.1360    8.9900 C.ar   73  TRP73       0.0191
     57  CZ3       21.8380    4.4610   11.2950 C.ar   73  TRP73       0.0001
     58  CH2       21.2280    5.2130   10.2970 C.ar   73  TRP73       0.0015
     59  N         26.5180   12.4300   13.7700 N.3    93  GLY93      -0.1225
     60  CA        25.2630   11.6650   13.7600 C.3    93  GLY93       0.1811
     61  C         25.5200   10.1730   13.9620 C.2    93  GLY93       0.2280
     62  O         25.0280    9.3110   13.2090 O.2    93  GLY93      -0.2866
     63  N         25.6260    7.9100   17.2240 N.3    95  ALA95      -0.1245
     64  CA        25.6090    7.4090   18.6210 C.3    95  ALA95       0.1562
     65  C         26.0590    5.9290   18.8300 C.2    95  ALA95       0.2260
     66  O         26.4590    5.5610   19.9330 O.2    95  ALA95      -0.2867
     67  CB        24.2560    7.5720   19.2040 C.3    95  ALA95       0.0290
     68  N         22.2640    1.3260   14.9530 N.3   137  LEU137     -0.1245
     69  CA        21.7360    2.2280   15.9700 C.3   137  LEU137      0.1561
     70  C         20.5200    1.5910   16.6490 C.2   137  LEU137      0.2260
     71  O         20.4250    1.5770   17.8720 O.2   137  LEU137     -0.2867
     72  CB        21.3520    3.6030   15.3830 C.3   137  LEU137      0.0270
     73  CG        20.7940    4.6150   16.4080 C.3   137  LEU137      0.0019
     74  CD1       21.8760    5.1750   17.3340 C.3   137  LEU137      0.0001
     75  CD2       20.0780    5.7810   15.7360 C.3   137  LEU137      0.0001
     76  N         13.9750    6.1010   16.1380 N.3   183  SER183     -0.1202
     77  CA        13.5280    6.6900   14.8970 C.3   183  SER183      0.2020
     78  C         13.9920    8.1420   14.7810 C.2   183  SER183      0.2618
     79  O         14.0970    8.8790   15.7680 O.2   183  SER183     -0.2717
     80  CB        11.9880    6.6780   14.7940 C.3   183  SER183      0.2103
     81  OG        11.4190    5.4470   15.1640 O.3   183  SER183     -0.2182
     82  N         14.2130    8.5620   13.5500 N.am  184  ALA184     -0.1979
     83  CA        14.3080    9.9760   13.2500 C.3   184  ALA184      0.1597
     84  C         12.9230   10.4490   12.7780 C.2   184  ALA184      0.2287
     85  O         11.9080   10.1110   13.4030 O.2   184  ALA184     -0.2864
     86  CB        15.4180   10.2330   12.2040 C.3   184  ALA184      0.0319
     87  N         17.4580   11.2370   20.5780 N.3   207  ARG207     -0.1231
     88  CA        17.9830   12.4590   19.9440 C.3   207  ARG207      0.1679
     89  C         17.5070   12.7320   18.4990 C.2   207  ARG207      0.2434
     90  O         17.0510   13.8160   18.2050 O.2   207  ARG207     -0.2733
     91  CB        19.5380   12.4130   20.0100 C.3   207  ARG207      0.0321
     92  CG        20.2730   13.4270   19.1130 C.3   207  ARG207      0.0489
     93  CD        21.8290   13.1140   19.1100 C.3   207  ARG207      0.2205
     94  NE        22.0120   11.6790   18.9140 N.pl3 207  ARG207     -0.0865
     95  CZ        22.0870   11.0700   17.7410 C.cat 207  ARG207      0.5346
     96  NH1       22.0520   11.7580   16.6250 N.pl3 207  ARG207      0.1354
     97  NH2       22.1840    9.7420   17.6850 N.pl3 207  ARG207      0.1354
     98  N         17.6040   11.7500   17.5920 N.am  208  PRO208     -0.2729
     99  CA        17.2110   11.9060   16.1830 C.3   208  PRO208      0.1401
    100  C         15.7540   12.2910   15.9220 C.2   208  PRO208      0.2269
    101  O         15.4400   12.7560   14.8230 O.2   208  PRO208     -0.2865
    102  CB        17.4670   10.5080   15.6050 C.3   208  PRO208      0.0296
    103  CG        18.4830    9.9300   16.5050 C.3   208  PRO208      0.0237
    104  CD        18.0750   10.3810   17.8490 C.3   208  PRO208      0.0939
    105  N         21.6300   17.7900   13.9980 N.3   251  PHE251     -0.1241
    106  CA        22.6750   17.3970   13.0720 C.3   251  PHE251      0.1605
    107  C         23.3580   18.5950   12.4260 C.2   251  PHE251      0.2264
    108  O         24.5560   18.5660   12.2370 O.2   251  PHE251     -0.2867
    109  CB        22.1140   16.4900   12.0090 C.3   251  PHE251      0.0534
    110  CG        21.5090   15.2360   12.5760 C.ar  251  PHE251     -0.0203
    111  CD1       22.2940   14.1200   12.7910 C.ar  251  PHE251     -0.0042
    112  CD2       20.1540   15.1940   12.9240 C.ar  251  PHE251     -0.0042
    113  CE1       21.7510   12.9400   13.3270 C.ar  251  PHE251     -0.0003
    114  CE2       19.6020   14.0120   13.4730 C.ar  251  PHE251     -0.0003
    115  CZ        20.4110   12.8910   13.6720 C.ar  251  PHE251     -0.0000
@<TRIPOS>BOND
     1     3     4    2
     2     3     2    1
     3     2     1    1
     4     2     5    1
     5     1     7    1
     6     5     6    1
     7    10    11    2
     8    10     9    1
     9     8     9    1
    10     7     6    1
    11     9    12    1
    12    19    20    1
    13    21    22    2
    14    21    20    1
    15    12    13    1
    16    53    51   ar
    17    53    54   ar
    18    51    50   ar
    19    15    13   ar
    20    15    17   ar
    21    20    23    1
    22    13    14   ar
    23    30    29    2
    24    27    28    1
    25    17    18   ar
    26    31    28    1
    27    31    32    1
    28    54    56   ar
    29    54    52   ar
    30    38    37    1
    31    23    25    1
    32    23    24    1
    33    14    16   ar
    34    56    58   ar
    35    50    49    1
    36    50    52   ar
    37    28    29    1
    38    29    33   am
    39    48    47    2
    40    18    16   ar
    41    47    46    1
    42    37    34    1
    43    49    46    1
    44    52    55   ar
    45    24    26    1
    46    58    57   ar
    47    33    34    1
    48    46    45    1
    49    34    35    1
    50    55    57   ar
    51    36    35    2
    52    45    41   am
    53    35    39   am
    54   109   110    1
    55   109   106    1
    56    86    83    1
    57   108   107    2
    58    41    42    2
    59    41    40    1
    60   107   106    1
    61    39    40    1
    62   110   111   ar
    63   110   112   ar
    64    84    83    1
    65    84    85    2
    66   111   113   ar
    67   112   114   ar
    68   106   105    1
    69    40    43    1
    70    62    61    2
    71    83    82    1
    72   113   115   ar
    73   114   115   ar
    74    82    78   am
    75    60    59    1
    76    60    61    1
    77    43    44    1
    78    78    77    1
    79    78    79    2
    80    80    77    1
    81    80    81    1
    82   101   100    2
    83    77    76    1
    84    68    69    1
    85    72    69    1
    86    72    73    1
    87   102    99    1
    88   102   103    1
    89    75    73    1
    90   100    99    1
    91    69    70    1
    92    99    98    1
    93    73    74    1
    94   103   104    1
    95    96    95    1
    96    70    71    2
    97    63    64    1
    98    98   104    1
    99    98    89   am
   100    97    95    1
   101    95    94    2
   102    90    89    2
   103    89    88    1
   104    64    65    1
   105    64    67    1
   106    65    66    2
   107    94    93    1
   108    93    92    1
   109    92    91    1
   110    88    91    1
   111    88    87    1
