@<TRIPOS>MOLECULE
tmp/5ereA01.pdb
 105 93 0 0 0
SMALL
GASTEIGER

@<TRIPOS>ATOM
      1  N         32.6490    2.5880   59.1780 N.3   374  ASN374     -0.1240
      2  CA        32.7860    1.5210   60.1650 C.3   374  ASN374      0.1653
      3  C         31.5970    1.4390   61.1100 C.2   374  ASN374      0.2266
      4  O         30.6480    2.2190   61.0120 O.2   374  ASN374     -0.2867
      5  CB        34.0970    1.6470   60.9630 C.3   374  ASN374      0.1155
      6  CG        34.1750    2.8880   61.8520 C.2   374  ASN374      0.2627
      7  OD1       33.1820    3.4500   62.2690 O.2   374  ASN374     -0.2716
      8  ND2       35.3930    3.2790   62.1810 N.am  374  ASN374     -0.0877
      9  N         30.6640    0.7100   65.3790 N.3   376  VAL376     -0.1245
     10  CA        31.1650    0.6360   66.7340 C.3   376  VAL376      0.1561
     11  C         30.0750    0.3490   67.7360 C.2   376  VAL376      0.2260
     12  O         28.8650    0.5420   67.4760 O.2   376  VAL376     -0.2867
     13  CB        31.8690    1.9270   67.1560 C.3   376  VAL376      0.0252
     14  CG1       33.0220    2.2460   66.2350 C.3   376  VAL376      0.0019
     15  CG2       30.8770    3.0970   67.2040 C.3   376  VAL376      0.0019
     16  N         33.8420    4.4890   73.0950 N.3   384  ILE384     -0.1245
     17  CA        33.8740    3.4400   72.0950 C.3   384  ILE384      0.1561
     18  C         34.6260    2.2430   72.6600 C.2   384  ILE384      0.2260
     19  O         35.7690    2.3850   73.0910 O.2   384  ILE384     -0.2867
     20  CB        34.5390    3.9080   70.7940 C.3   384  ILE384      0.0252
     21  CG1       33.7430    5.0810   70.1960 C.3   384  ILE384      0.0019
     22  CG2       34.5980    2.7600   69.8080 C.3   384  ILE384      0.0019
     23  CD1       34.3440    5.6710   68.9420 C.3   384  ILE384      0.0001
     24  N         33.5160    9.8640   73.1980 N.3   400  ILE400     -0.1245
     25  CA        32.6520   10.6440   72.2960 C.3   400  ILE400      0.1561
     26  C         31.3750   11.0830   73.0340 C.2   400  ILE400      0.2260
     27  O         30.3260   11.3150   72.4120 O.2   400  ILE400     -0.2867
     28  CB        32.3090    9.8230   71.0160 C.3   400  ILE400      0.0252
     29  CG1       31.4760    8.5820   71.3720 C.3   400  ILE400      0.0019
     30  CG2       33.6200    9.3910   70.2930 C.3   400  ILE400      0.0019
     31  CD1       30.9380    7.8450   70.1850 C.3   400  ILE400      0.0001
     32  N         29.6960   14.3130   71.8230 N.3   403  GLN403     -0.1245
     33  CA        29.1380   14.4480   70.4810 C.3   403  GLN403      0.1566
     34  C         27.6120   14.6620   70.5870 C.2   403  GLN403      0.2260
     35  O         26.9240   14.0120   71.3780 O.2   403  GLN403     -0.2867
     36  CB        29.4930   13.2300   69.6120 C.3   403  GLN403      0.0367
     37  CG        30.9960   13.1560   69.2920 C.3   403  GLN403      0.0905
     38  CD        31.3870   12.0560   68.2910 C.2   403  GLN403      0.2608
     39  OE1       30.5480   11.3060   67.7790 O.2   403  GLN403     -0.2717
     40  NE2       32.6790   11.9470   68.0390 N.am  403  GLN403     -0.0878
     41  N         24.8710   13.9440   68.9950 N.3   405  GLN405     -0.1245
     42  CA        23.9490   12.7960   68.8640 C.3   405  GLN405      0.1566
     43  C         24.0440   11.8310   70.0340 C.2   405  GLN405      0.2260
     44  O         23.0580   11.1730   70.3820 O.2   405  GLN405     -0.2867
     45  CB        24.1890   12.0390   67.5500 C.3   405  GLN405      0.0367
     46  CG        25.3270   10.9860   67.5310 C.3   405  GLN405      0.0905
     47  CD        26.7060   11.6300   67.4590 C.2   405  GLN405      0.2608
     48  OE1       26.8440   12.8280   67.6560 O.2   405  GLN405     -0.2717
     49  NE2       27.7160   10.8410   67.1020 N.am  405  GLN405     -0.0878
     50  N         32.5790   16.3460   62.9640 N.3   422  LYS422     -0.1245
     51  CA        33.9100   15.7240   62.8780 C.3   422  LYS422      0.1561
     52  C         33.9600   14.4650   63.7500 C.2   422  LYS422      0.2260
     53  O         33.6600   14.4820   64.9440 O.2   422  LYS422     -0.2867
     54  CB        35.0000   16.7270   63.2830 C.3   422  LYS422      0.0271
     55  CG        36.4500   16.2030   63.1640 C.3   422  LYS422      0.0035
     56  CD        36.9460   16.1170   61.7150 C.3   422  LYS422      0.0206
     57  CE        38.4110   15.6680   61.6470 C.3   422  LYS422      0.1093
     58  NZ        39.3880   16.7040   62.1220 N.3   422  LYS422     -0.1314
     59  N         36.0360   10.9210   65.2500 N.3   423  VAL423     -0.1231
     60  CA        37.4110   10.5650   65.6790 C.3   423  VAL423      0.1692
     61  C         38.1990    9.9230   64.5550 C.2   423  VAL423      0.2591
     62  O         39.4390    9.9360   64.5670 O.2   423  VAL423     -0.2718
     63  CB        37.4430    9.5990   66.9000 C.3   423  VAL423      0.0266
     64  CG1       36.9270   10.2780   68.1430 C.3   423  VAL423      0.0020
     65  CG2       36.6790    8.3110   66.6280 C.3   423  VAL423      0.0020
     66  N         37.4720    9.3530   63.5900 N.am  424  GLU424     -0.1979
     67  CA        38.0810    8.7100   62.4340 C.3   424  GLU424      0.1602
     68  C         38.7910    9.6830   61.4900 C.2   424  GLU424      0.2287
     69  O         39.5300    9.2420   60.6140 O.2   424  GLU424     -0.2864
     70  CB        37.0170    7.9230   61.6590 C.3   424  GLU424      0.0415
     71  CG        36.5710    6.6570   62.3570 C.3   424  GLU424      0.1163
     72  CD        35.5370    6.8270   63.4470 C.2   424  GLU424      0.3649
     73  OE1       35.0650    7.9680   63.7520 O.co2 424  GLU424     -0.2457
     74  OE2       35.1890    5.7770   64.0210 O.co2 424  GLU424     -0.2457
     75  N         26.5670    9.7840   61.6940 N.3   430  ASP430     -0.1239
     76  CA        26.4580    8.6180   62.5730 C.3   430  ASP430      0.1674
     77  C         24.9910    8.2420   62.8280 C.2   430  ASP430      0.2266
     78  O         24.1950    9.1000   63.2200 O.2   430  ASP430     -0.2867
     79  CB        27.1590    8.9490   63.9120 C.3   430  ASP430      0.1410
     80  CG        27.1850    7.7640   64.8950 C.2   430  ASP430      0.3668
     81  OD1       27.1020    6.6060   64.4630 O.co2 430  ASP430     -0.2456
     82  OD2       27.3050    8.0020   66.1150 O.co2 430  ASP430     -0.2456
     83  N         22.8270    5.8330   65.2730 N.3   432  GLU432     -0.1245
     84  CA        22.9550    4.9960   66.4800 C.3   432  GLU432      0.1567
     85  C         21.6390    4.5040   67.0400 C.2   432  GLU432      0.2260
     86  O         20.6420    5.2260   67.0600 O.2   432  GLU432     -0.2867
     87  CB        23.6770    5.7420   67.5930 C.3   432  GLU432      0.0388
     88  CG        25.0590    6.2840   67.2150 C.3   432  GLU432      0.1160
     89  CD        26.1850    5.9190   68.2060 C.2   432  GLU432      0.3649
     90  OE1       25.9760    5.0920   69.1280 O.co2 432  GLU432     -0.2457
     91  OE2       27.3110    6.4530   68.0410 O.co2 432  GLU432     -0.2457
     92  N         26.4500    1.7360   66.5020 N.3   447  SER447     -0.1217
     93  CA        26.5940    2.7910   65.4740 C.3   447  SER447      0.1889
     94  C         27.0040    2.3200   64.0660 C.2   447  SER447      0.2288
     95  O         27.7800    1.3680   63.9170 O.2   447  SER447     -0.2866
     96  CB        27.6330    3.7940   65.9590 C.3   447  SER447      0.2089
     97  OG        28.1950    4.5630   64.9010 O.3   447  SER447     -0.2183
     98  N         28.7200    4.5510   61.1020 N.3   449  LEU449     -0.1245
     99  CA        29.2470    5.8050   60.6070 C.3   449  LEU449      0.1561
    100  C         29.3560    5.7310   59.0750 C.2   449  LEU449      0.2260
    101  O         29.9600    4.8110   58.5200 O.2   449  LEU449     -0.2867
    102  CB        30.6150    6.0860   61.2640 C.3   449  LEU449      0.0270
    103  CG        31.4730    7.1660   60.6200 C.3   449  LEU449      0.0019
    104  CD1       30.8120    8.5170   60.7160 C.3   449  LEU449      0.0001
    105  CD2       32.8810    7.2070   61.2750 C.3   449  LEU449      0.0001
@<TRIPOS>BOND
     1   101   100    2
     2   100    99    1
     3     1     2    1
     4     2     5    1
     5     2     3    1
     6    99    98    1
     7    99   102    1
     8    69    68    2
     9   103   104    1
    10   103   102    1
    11   103   105    1
    12     5     6    1
    13     4     3    2
    14    68    67    1
    15    57    56    1
    16    57    58    1
    17    70    71    1
    18    70    67    1
    19    75    76    1
    20    56    55    1
    21     6     8   am
    22     6     7    2
    23    71    72    1
    24    67    66    1
    25    76    77    1
    26    76    79    1
    27    77    78    2
    28    51    50    1
    29    51    54    1
    30    51    52    1
    31    55    54    1
    32    72    73   ar
    33    72    74   ar
    34    66    61   am
    35    52    53    2
    36    79    80    1
    37    95    94    2
    38    94    93    1
    39    81    80   ar
    40    61    62    2
    41    61    60    1
    42    80    82   ar
    43    97    96    1
    44    59    60    1
    45    83    84    1
    46     9    10    1
    47    93    96    1
    48    93    92    1
    49    60    63    1
    50    14    13    1
    51    84    85    1
    52    84    87    1
    53    65    63    1
    54    10    13    1
    55    10    11    1
    56    63    64    1
    57    85    86    2
    58    49    47   am
    59    13    15    1
    60    88    87    1
    61    88    89    1
    62    47    46    1
    63    47    48    2
    64    12    11    2
    65    46    45    1
    66    45    42    1
    67    39    38    2
    68    40    38   am
    69    91    89   ar
    70    89    90   ar
    71    38    37    1
    72    42    41    1
    73    42    43    1
    74    23    21    1
    75    37    36    1
    76    36    33    1
    77    22    20    1
    78    43    44    2
    79    31    29    1
    80    21    20    1
    81    30    28    1
    82    33    34    1
    83    33    32    1
    84    34    35    2
    85    20    17    1
    86    28    29    1
    87    28    25    1
    88    17    18    1
    89    17    16    1
    90    25    26    1
    91    25    24    1
    92    27    26    2
    93    18    19    2
