@<TRIPOS>MOLECULE
tmp/5ergB00.pdb
 209 208 0 0 0
SMALL
GASTEIGER

@<TRIPOS>ATOM
      1  N         77.7330    7.1770  -15.0830 N.3    84  GLN84      -0.1231
      2  CA        78.3170    5.9880  -15.6800 C.3    84  GLN84       0.1698
      3  C         77.8480    4.7290  -14.9590 C.2    84  GLN84       0.2592
      4  O         78.5130    4.2200  -14.0600 O.2    84  GLN84      -0.2718
      5  CB        79.8350    6.0730  -15.6450 C.3    84  GLN84       0.0381
      6  CG        80.3780    7.4520  -15.9550 C.3    84  GLN84       0.0905
      7  CD        81.6140    7.3800  -16.8110 C.2    84  GLN84       0.2608
      8  OE1       82.3500    6.3930  -16.7680 O.2    84  GLN84      -0.2717
      9  NE2       81.8520    8.4220  -17.6030 N.am   84  GLN84      -0.0878
     10  N         76.6780    4.2430  -15.3460 N.am   85  ILE85      -0.1966
     11  CA        76.1240    3.0400  -14.7600 C.3    85  ILE85       0.1727
     12  C         75.5960    2.1200  -15.8480 C.2    85  ILE85       0.2616
     13  O         75.4060    2.5360  -16.9980 O.2    85  ILE85      -0.2715
     14  CB        74.9940    3.3620  -13.7780 C.3    85  ILE85       0.0290
     15  CG1       73.7150    3.7030  -14.5180 C.3    85  ILE85       0.0022
     16  CG2       75.3620    4.5460  -12.9150 C.3    85  ILE85       0.0023
     17  CD1       72.6030    4.0570  -13.6030 C.3    85  ILE85       0.0001
     18  N         75.3570    0.8690  -15.4870 N.am   86  VAL86      -0.1977
     19  CA        74.8200   -0.0920  -16.4350 C.3    86  VAL86       0.1596
     20  C         73.3090   -0.1170  -16.3240 C.2    86  VAL86       0.2287
     21  O         72.7630   -0.2870  -15.2250 O.2    86  VAL86      -0.2864
     22  CB        75.4120   -1.5140  -16.1990 C.3    86  VAL86       0.0276
     23  CG1       74.8720   -2.5050  -17.2330 C.3    86  VAL86       0.0022
     24  CG2       76.9300   -1.4550  -16.2810 C.3    86  VAL86       0.0022
     25  N         82.7650   -8.9590  -10.0310 N.3   108  GLU108     -0.1231
     26  CA        82.4770   -7.6760  -10.6690 C.3   108  GLU108      0.1699
     27  C         83.5480   -6.6180  -10.3460 C.2   108  GLU108      0.2592
     28  O         83.8790   -6.3990   -9.1780 O.2   108  GLU108     -0.2718
     29  CB        81.1000   -7.1800  -10.2310 C.3   108  GLU108      0.0402
     30  CG        80.9010   -5.6970  -10.4090 C.3   108  GLU108      0.1161
     31  CD        79.5990   -5.1950   -9.7960 C.2   108  GLU108      0.3649
     32  OE1       79.4490   -5.2120   -8.5510 O.co2 108  GLU108     -0.2457
     33  OE2       78.7160   -4.7880  -10.5780 O.co2 108  GLU108     -0.2457
     34  N         84.1020   -5.9750  -11.3730 N.am  109  ALA109     -0.1966
     35  CA        84.9660   -4.7990  -11.1680 C.3   109  ALA109      0.1728
     36  C         84.8000   -3.8120  -12.3210 C.2   109  ALA109      0.2617
     37  O         84.8260   -4.2290  -13.4630 O.2   109  ALA109     -0.2715
     38  CB        86.4250   -5.2180  -11.0340 C.3   109  ALA109      0.0334
     39  N         84.6090   -2.5180  -12.0490 N.am  110  GLY110     -0.1940
     40  CA        84.5060   -1.9690  -10.7140 C.3   110  GLY110      0.2014
     41  C         83.0680   -1.8620  -10.2560 C.2   110  GLY110      0.2640
     42  O         82.1390   -2.0620  -11.0380 O.2   110  GLY110     -0.2714
     43  N         82.8750   -1.5450   -8.9840 N.am  111  THR111     -0.1936
     44  CA        81.5380   -1.4820   -8.4110 C.3   111  THR111      0.2028
     45  C         80.7420   -0.2870   -8.9380 C.2   111  THR111      0.2643
     46  O         79.5370   -0.3820   -9.1680 O.2   111  THR111     -0.2714
     47  CB        81.6010   -1.3900   -6.8730 C.3   111  THR111      0.1808
     48  OG1       82.5370   -2.3460   -6.3690 O.3   111  THR111     -0.2208
     49  CG2       80.2420   -1.6520   -6.2650 C.3   111  THR111      0.0379
     50  N         81.4260    0.8430   -9.0960 N.am  112  GLY112     -0.1939
     51  CA        80.7950    2.0910   -9.4870 C.3   112  GLY112      0.2014
     52  C         79.6390    2.4170   -8.5700 C.2   112  GLY112      0.2640
     53  O         79.7420    2.2730   -7.3580 O.2   112  GLY112     -0.2714
     54  N         78.5110    2.8030   -9.1440 N.am  113  SER113     -0.1935
     55  CA        77.3770    3.1970   -8.3140 C.3   113  SER113      0.2055
     56  C         76.5300    2.0160   -7.8650 C.2   113  SER113      0.2644
     57  O         75.4980    2.2030   -7.2390 O.2   113  SER113     -0.2714
     58  CB        76.5030    4.1830   -9.0640 C.3   113  SER113      0.2130
     59  OG        76.0770    3.5680  -10.2580 O.3   113  SER113     -0.2179
     60  N         76.9600    0.7980   -8.1940 N.am  114  GLY114     -0.1939
     61  CA        76.2780   -0.3970   -7.7230 C.3   114  GLY114      0.2014
     62  C         74.9740   -0.7400   -8.4210 C.2   114  GLY114      0.2640
     63  O         74.1750   -1.5060   -7.8920 O.2   114  GLY114     -0.2714
     64  N         74.7520   -0.1700   -9.5990 N.am  115  SER115     -0.1935
     65  CA        73.5820   -0.5030  -10.4040 C.3   115  SER115      0.2055
     66  C         73.5620   -1.9900  -10.7830 C.2   115  SER115      0.2643
     67  O         72.5880   -2.6920  -10.5160 O.2   115  SER115     -0.2714
     68  CB        73.5410    0.3460  -11.6800 C.3   115  SER115      0.2130
     69  OG        72.3510    0.0900  -12.4070 O.3   115  SER115     -0.2179
     70  N         74.6210   -2.4780  -11.3880 N.am  116  PHE116     -0.1973
     71  CA        74.6870   -3.8630  -11.7420 C.3   116  PHE116      0.1639
     72  C         74.7640   -4.7220  -10.4870 C.2   116  PHE116      0.2290
     73  O         74.2120   -5.7820  -10.4400 O.2   116  PHE116     -0.2864
     74  CB        75.8830   -4.1150  -12.6510 C.3   116  PHE116      0.0560
     75  CG        75.6910   -5.2310  -13.6140 C.ar  116  PHE116     -0.0200
     76  CD1       74.8050   -6.2190  -13.3560 C.ar  116  PHE116     -0.0042
     77  CD2       76.4070   -5.2890  -14.7610 C.ar  116  PHE116     -0.0042
     78  CE1       74.6250   -7.2510  -14.2170 C.ar  116  PHE116     -0.0003
     79  CE2       76.2440   -6.3250  -15.6310 C.ar  116  PHE116     -0.0003
     80  CZ        75.3460   -7.3080  -15.3600 C.ar  116  PHE116     -0.0000
     81  N         84.6240   -5.4010   -6.6260 N.3   130  PHE130     -0.1227
     82  CA        85.8850   -4.7140   -6.3670 C.3   130  PHE130      0.1736
     83  C         85.8440   -3.2470   -6.8170 C.2   130  PHE130      0.2595
     84  O         85.3990   -2.9460   -7.9220 O.2   130  PHE130     -0.2718
     85  CB        87.0300   -5.4320   -7.0790 C.3   130  PHE130      0.0547
     86  CG        87.2750   -6.8320   -6.5870 C.ar  130  PHE130     -0.0202
     87  CD1       86.4620   -7.8870   -7.0030 C.ar  130  PHE130     -0.0042
     88  CD2       88.3290   -7.1030   -5.7170 C.ar  130  PHE130     -0.0042
     89  CE1       86.6900   -9.1940   -6.5540 C.ar  130  PHE130     -0.0003
     90  CE2       88.5680   -8.4150   -5.2620 C.ar  130  PHE130     -0.0003
     91  CZ        87.7440   -9.4560   -5.6750 C.ar  130  PHE130     -0.0000
     92  N         86.3110   -2.3430   -5.9640 N.am  131  GLU131     -0.1965
     93  CA        86.3330   -0.9170   -6.2720 C.3   131  GLU131      0.1733
     94  C         87.6930   -0.2930   -5.9310 C.2   131  GLU131      0.2616
     95  O         88.1780   -0.4010   -4.8120 O.2   131  GLU131     -0.2715
     96  CB        85.2050   -0.1970   -5.5230 C.3   131  GLU131      0.0429
     97  CG        85.2150    1.3390   -5.6450 C.3   131  GLU131      0.1163
     98  CD        85.1770    1.8280   -7.0900 C.2   131  GLU131      0.3649
     99  OE1       86.1080    2.5690   -7.4990 O.co2 131  GLU131     -0.2457
    100  OE2       84.2180    1.4640   -7.8200 O.co2 131  GLU131     -0.2457
    101  N         88.2850    0.3560   -6.9230 N.am  132  PHE132     -0.1960
    102  CA        89.6010    1.0000   -6.8760 C.3   132  PHE132      0.1771
    103  C         89.6400    2.2910   -6.0330 C.2   132  PHE132      0.2619
    104  O         90.5630    2.5140   -5.2560 O.2   132  PHE132     -0.2715
    105  CB        89.9920    1.2500   -8.3380 C.3   132  PHE132      0.0574
    106  CG        90.9410    2.3690   -8.5790 C.ar  132  PHE132     -0.0200
    107  CD1       92.2920    2.2210   -8.3240 C.ar  132  PHE132     -0.0042
    108  CD2       90.4860    3.5530   -9.1540 C.ar  132  PHE132     -0.0042
    109  CE1       93.1780    3.2560   -8.5760 C.ar  132  PHE132     -0.0003
    110  CE2       91.3600    4.5940   -9.4050 C.ar  132  PHE132     -0.0003
    111  CZ        92.7120    4.4450   -9.1160 C.ar  132  PHE132     -0.0000
    112  N         88.6090    3.1170   -6.1740 N.am  133  HIS133     -0.1973
    113  CA        88.5250    4.4280   -5.5450 C.3   133  HIS133      0.1656
    114  C         88.0550    4.3050   -4.0980 C.2   133  HIS133      0.2291
    115  O         86.9620    3.8060   -3.8440 O.2   133  HIS133     -0.2864
    116  CB        87.5610    5.3030   -6.3480 C.3   133  HIS133      0.0771
    117  CG        87.6810    6.7660   -6.0700 C.ar  133  HIS133      0.0820
    118  ND1       87.1710    7.3510   -4.9340 N.ar  133  HIS133     -0.2267
    119  CD2       88.2190    7.7700   -6.8050 C.ar  133  HIS133      0.1154
    120  CE1       87.4130    8.6510   -4.9650 C.ar  133  HIS133      0.1986
    121  NE2       88.0460    8.9280   -6.0910 N.ar  133  HIS133     -0.2212
    122  N         84.6460    5.9180   -3.1590 N.3   136  ARG136     -0.1245
    123  CA        83.5880    5.1540   -3.7870 C.3   136  ARG136      0.1563
    124  C         83.4320    3.8310   -3.0390 C.2   136  ARG136      0.2260
    125  O         82.3400    3.4260   -2.7420 O.2   136  ARG136     -0.2867
    126  CB        83.8730    4.9410   -5.2600 C.3   136  ARG136      0.0307
    127  CG        83.6430    6.1750   -6.0920 C.3   136  ARG136      0.0489
    128  CD        83.3840    5.8540   -7.5380 C.3   136  ARG136      0.2205
    129  NE        84.4760    6.2830   -8.3810 N.pl3 136  ARG136     -0.0865
    130  CZ        84.5690    7.4840   -8.9090 C.cat 136  ARG136      0.5346
    131  NH1       83.6420    8.3770   -8.6750 N.pl3 136  ARG136      0.1354
    132  NH2       85.5910    7.7880   -9.6630 N.pl3 136  ARG136      0.1354
    133  N         90.2580   -2.4470   -3.9370 N.3   159  ARG159     -0.1231
    134  CA        91.3150   -3.0860   -4.7030 C.3   159  ARG159      0.1694
    135  C         91.5040   -2.4440   -6.0610 C.2   159  ARG159      0.2592
    136  O         90.5340   -2.0870   -6.7310 O.2   159  ARG159     -0.2718
    137  CB        91.0050   -4.5760   -4.8990 C.3   159  ARG159      0.0321
    138  CG        91.9840   -5.3120   -5.7880 C.3   159  ARG159      0.0489
    139  CD        93.3560   -5.5280   -5.1020 C.3   159  ARG159      0.2205
    140  NE        93.2000   -6.0540   -3.7460 N.pl3 159  ARG159     -0.0865
    141  CZ        92.9420   -7.3280   -3.4580 C.cat 159  ARG159      0.5346
    142  NH1       92.8180   -8.2150   -4.4280 N.pl3 159  ARG159      0.1354
    143  NH2       92.7920   -7.7110   -2.2010 N.pl3 159  ARG159      0.1354
    144  N         92.7580   -2.3100   -6.4760 N.am  160  ASP160     -0.1960
    145  CA        93.0600   -2.0830   -7.8790 C.3   160  ASP160      0.1840
    146  C         93.3140   -3.4660   -8.5000 C.2   160  ASP160      0.2622
    147  O         94.3870   -4.0420   -8.3130 O.2   160  ASP160     -0.2715
    148  CB        94.2660   -1.1360   -8.0250 C.3   160  ASP160      0.1450
    149  CG        94.6380   -0.8600   -9.4690 C.2   160  ASP160      0.3671
    150  OD1       94.2770   -1.6630  -10.3490 O.co2 160  ASP160     -0.2456
    151  OD2       95.2600    0.1870   -9.7230 O.co2 160  ASP160     -0.2456
    152  N         92.3300   -3.9770   -9.2450 N.am  161  VAL161     -0.1963
    153  CA        92.3700   -5.3340   -9.7800 C.3   161  VAL161      0.1727
    154  C         93.3540   -5.4960  -10.9370 C.2   161  VAL161      0.2616
    155  O         93.8170   -6.6060  -11.2050 O.2   161  VAL161     -0.2715
    156  CB        90.9570   -5.8030  -10.2440 C.3   161  VAL161      0.0290
    157  CG1       90.0060   -5.8270   -9.0700 C.3   161  VAL161      0.0023
    158  CG2       90.4100   -4.9140  -11.3730 C.3   161  VAL161      0.0023
    159  N         93.6820   -4.4010  -11.6160 N.am  162  CYS162     -0.1968
    160  CA        94.6620   -4.4370  -12.7040 C.3   162  CYS162      0.1712
    161  C         96.1020   -4.5760  -12.1760 C.2   162  CYS162      0.2296
    162  O         96.9460   -5.2300  -12.7930 O.2   162  CYS162     -0.2864
    163  CB        94.5370   -3.1770  -13.5740 C.3   162  CYS162      0.0983
    164  SG        92.9240   -3.0240  -14.4290 S.3   162  CYS162     -0.0798
    165  N         82.2890  -10.1170  -14.6920 N.3   193  PHE193     -0.1241
    166  CA        81.9130   -8.9060  -15.4370 C.3   193  PHE193      0.1605
    167  C         82.9210   -7.7970  -15.1800 C.2   193  PHE193      0.2264
    168  O         83.0750   -7.3760  -14.0500 O.2   193  PHE193     -0.2867
    169  CB        80.5130   -8.4310  -15.0460 C.3   193  PHE193      0.0534
    170  CG        80.1310   -7.1040  -15.6550 C.ar  193  PHE193     -0.0203
    171  CD1       79.8750   -7.0000  -17.0170 C.ar  193  PHE193     -0.0042
    172  CD2       80.0440   -5.9520  -14.8690 C.ar  193  PHE193     -0.0042
    173  CE1       79.5470   -5.7690  -17.5940 C.ar  193  PHE193     -0.0003
    174  CE2       79.7040   -4.7230  -15.4330 C.ar  193  PHE193     -0.0003
    175  CZ        79.4460   -4.6280  -16.7910 C.ar  193  PHE193     -0.0000
    176  N         83.8720   -3.9060  -15.8970 N.3   195  ASP195     -0.1225
    177  CA        83.5490   -2.5370  -16.3120 C.3   195  ASP195      0.1805
    178  C         84.6640   -1.6000  -15.8310 C.2   195  ASP195      0.2598
    179  O         84.5700   -1.0080  -14.7560 O.2   195  ASP195     -0.2718
    180  CB        82.1930   -2.1110  -15.7310 C.3   195  ASP195      0.1424
    181  CG        81.7380   -0.7130  -16.1870 C.2   195  ASP195      0.3668
    182  OD1       82.5070    0.0200  -16.8570 O.co2 195  ASP195     -0.2456
    183  OD2       80.5830   -0.3440  -15.8510 O.co2 195  ASP195     -0.2456
    184  N         85.7040   -1.4760  -16.6480 N.am  196  LEU196     -0.1966
    185  CA        86.9610   -0.8310  -16.2710 C.3   196  LEU196      0.1713
    186  C         87.5190   -0.1350  -17.4900 C.2   196  LEU196      0.2458
    187  O         87.1980   -0.5230  -18.6050 O.2   196  LEU196     -0.2730
    188  CB        88.0020   -1.8550  -15.7730 C.3   196  LEU196      0.0310
    189  CG        87.7610   -2.8750  -14.6560 C.3   196  LEU196      0.0022
    190  CD1       88.7550   -4.0230  -14.8020 C.3   196  LEU196      0.0001
    191  CD2       87.9170   -2.2270  -13.3030 C.3   196  LEU196      0.0001
    192  N         88.4000    0.8580  -17.2900 N.am  197  PRO197     -0.2727
    193  CA        89.0370    1.5270  -18.4330 C.3   197  PRO197      0.1402
    194  C         89.9420    0.6000  -19.2290 C.2   197  PRO197      0.2269
    195  O         90.0370    0.7360  -20.4500 O.2   197  PRO197     -0.2865
    196  CB        89.8580    2.6500  -17.7780 C.3   197  PRO197      0.0296
    197  CG        89.2020    2.8820  -16.4430 C.3   197  PRO197      0.0237
    198  CD        88.7440    1.5010  -16.0080 C.3   197  PRO197      0.0939
    199  N         82.9110   -4.7620  -20.6710 N.3   221  PHE221     -0.1241
    200  CA        82.0490   -3.6310  -20.9720 C.3   221  PHE221      0.1605
    201  C         82.9380   -2.4380  -21.3600 C.2   221  PHE221      0.2264
    202  O         83.5810   -1.8410  -20.4970 O.2   221  PHE221     -0.2867
    203  CB        81.2240   -3.3570  -19.7160 C.3   221  PHE221      0.0534
    204  CG        80.1420   -2.3300  -19.8510 C.ar  221  PHE221     -0.0203
    205  CD1       78.8480   -2.7130  -20.1710 C.ar  221  PHE221     -0.0042
    206  CD2       80.3830   -1.0010  -19.5390 C.ar  221  PHE221     -0.0042
    207  CE1       77.8250   -1.7800  -20.2490 C.ar  221  PHE221     -0.0003
    208  CE2       79.3590   -0.0580  -19.6070 C.ar  221  PHE221     -0.0003
    209  CZ        78.0840   -0.4490  -19.9580 C.ar  221  PHE221     -0.0000
@<TRIPOS>BOND
     1   201   200    1
     2   201   202    2
     3   200   199    1
     4   200   203    1
     5   195   194    2
     6   207   205   ar
     7   207   209   ar
     8   205   204   ar
     9   209   208   ar
    10   204   203    1
    11   204   206   ar
    12   208   206   ar
    13   194   193    1
    14   187   186    2
    15   193   196    1
    16   193   192    1
    17   196   197    1
    18     9     7   am
    19   173   171   ar
    20   173   175   ar
    21   186   192   am
    22   186   185    1
    23   192   198    1
    24    23    22    1
    25   171   170   ar
    26    13    12    2
    27   182   181   ar
    28     7     8    2
    29     7     6    1
    30   175   174   ar
    31   184   185    1
    32   184   178   am
    33   197   198    1
    34    19    20    1
    35    19    22    1
    36    19    18    1
    37    20    21    2
    38   177   176    1
    39   177   178    1
    40   177   180    1
    41    24    22    1
    42   185   188    1
    43   181   183   ar
    44   181   180    1
    45     6     5    1
    46    12    18   am
    47    12    11    1
    48   178   179    2
    49   188   189    1
    50     2     5    1
    51     2     1    1
    52     2     3    1
    53   170   169    1
    54   170   172   ar
    55    79    80   ar
    56    79    77   ar
    57   166   167    1
    58   166   169    1
    59   166   165    1
    60   174   172   ar
    61    80    78   ar
    62    10     3   am
    63    10    11    1
    64   167   168    2
    65     3     4    2
    66   190   189    1
    67    77    75   ar
    68    11    14    1
    69   189   191    1
    70    15    14    1
    71    15    17    1
    72   164   163    1
    73    78    76   ar
    74    14    16    1
    75    75    76   ar
    76    75    74    1
    77   163   160    1
    78    37    36    2
    79   162   161    2
    80   160   161    1
    81   160   159    1
    82    74    71    1
    83    69    68    1
    84    36    39   am
    85    36    35    1
    86    39    40    1
    87    71    70    1
    88    71    72    1
    89    68    65    1
    90   159   154   am
    91    70    66   am
    92   158   156    1
    93    34    35    1
    94    34    27   am
    95   155   154    2
    96    35    38    1
    97    42    41    2
    98   154   153    1
    99    66    67    2
   100    66    65    1
   101    40    41    1
   102    26    27    1
   103    26    29    1
   104    26    25    1
   105    33    31   ar
   106    72    73    2
   107    30    29    1
   108    30    31    1
   109    65    64    1
   110   150   149   ar
   111    27    28    2
   112    59    58    1
   113    41    43   am
   114   156   153    1
   115   156   157    1
   116    31    32   ar
   117   153   152    1
   118   151   149   ar
   119   132   130    1
   120    64    62   am
   121    51    50    1
   122    51    52    1
   123   149   148    1
   124   110   108   ar
   125   110   111   ar
   126   152   146   am
   127    46    45    2
   128   108   106   ar
   129    54    52   am
   130    54    55    1
   131   111   109   ar
   132    50    45   am
   133    58    55    1
   134    43    44    1
   135    45    44    1
   136   130   131    1
   137   130   129    2
   138   106   105    1
   139   106   107   ar
   140   109   107   ar
   141    52    53    2
   142   146   147    2
   143   146   145    1
   144    62    63    2
   145    62    61    1
   146    44    47    1
   147   129   128    1
   148   105   102    1
   149    55    56    1
   150    60    56   am
   151    60    61    1
   152   148   145    1
   153    84    83    2
   154   145   144    1
   155    56    57    2
   156   100    98   ar
   157   128   127    1
   158    99    98   ar
   159    98    97    1
   160    85    86    1
   161    85    82    1
   162    87    86   ar
   163    87    89   ar
   164   101   102    1
   165   101    94   am
   166   102   103    1
   167    47    48    1
   168    47    49    1
   169    83    82    1
   170    83    92   am
   171   119   121   ar
   172   119   117   ar
   173   136   135    2
   174    81    82    1
   175    86    88   ar
   176    89    91   ar
   177   144   135   am
   178   116   117    1
   179   116   113    1
   180    93    92    1
   181    93    94    1
   182    93    96    1
   183   112   103   am
   184   112   113    1
   185   127   126    1
   186   121   120   ar
   187   117   118   ar
   188   135   134    1
   189   103   104    2
   190    94    95    2
   191   138   139    1
   192   138   137    1
   193    88    90   ar
   194    91    90   ar
   195    97    96    1
   196   113   114    1
   197   126   123    1
   198   139   140    1
   199   120   118   ar
   200   137   134    1
   201   134   133    1
   202   142   141    1
   203   114   115    2
   204   123   122    1
   205   123   124    1
   206   140   141    2
   207   141   143    1
   208   124   125    2
