@<TRIPOS>MOLECULE
tmp/5erlD00.pdb
 132 126 0 0 0
SMALL
GASTEIGER

@<TRIPOS>ATOM
      1  N         58.3500  103.3120  161.0830 N.3    49  TRP49      -0.1241
      2  CA        58.4680  104.7140  160.7120 C.3    49  TRP49       0.1605
      3  C         57.5160  104.8060  159.5500 C.2    49  TRP49       0.2264
      4  O         57.7230  104.1810  158.5280 O.2    49  TRP49      -0.2867
      5  CB        59.9030  105.1020  160.3150 C.3    49  TRP49       0.0550
      6  CG        60.0610  106.4270  159.6310 C.ar   49  TRP49       0.0003
      7  CD1       59.1180  107.4080  159.4400 C.ar   49  TRP49       0.0946
      8  CD2       61.2810  106.9280  159.0520 C.ar   49  TRP49       0.0152
      9  NE1       59.6710  108.4620  158.7590 N.ar   49  TRP49      -0.2442
     10  CE2       61.0010  108.2100  158.5300 C.ar   49  TRP49       0.0810
     11  CE3       62.5940  106.4230  158.9410 C.ar   49  TRP49       0.0012
     12  CZ2       61.9890  109.0060  157.9040 C.ar   49  TRP49       0.0191
     13  CZ3       63.5840  107.2140  158.3000 C.ar   49  TRP49       0.0001
     14  CH2       63.2700  108.4870  157.7870 C.ar   49  TRP49       0.0015
     15  N         59.6910  102.6820  156.4240 N.3    57  MET57      -0.1245
     16  CA        60.4350  101.4730  156.7210 C.3    57  MET57       0.1570
     17  C         60.0350  100.9200  158.0650 C.2    57  MET57       0.2261
     18  O         59.4210  101.5830  158.9000 O.2    57  MET57      -0.2867
     19  CB        61.9210  101.7350  156.7560 C.3    57  MET57       0.0387
     20  CG        62.3270  102.7280  157.8340 C.3    57  MET57       0.0595
     21  SD        64.1100  103.0430  157.8870 S.3    57  MET57      -0.1393
     22  CE        64.3910  104.0130  156.4130 C.3    57  MET57       0.0692
     23  N         67.5190   97.9160  159.0050 N.3    99  LEU99      -0.1245
     24  CA        66.4820   98.5790  158.1580 C.3    99  LEU99       0.1561
     25  C         65.7840   97.7110  157.1130 C.2    99  LEU99       0.2260
     26  O         66.4200   96.9510  156.3900 O.2    99  LEU99      -0.2867
     27  CB        67.0780   99.7790  157.4140 C.3    99  LEU99       0.0270
     28  CG        67.8790  100.8240  158.1720 C.3    99  LEU99       0.0019
     29  CD1       68.1490  101.9650  157.1950 C.3    99  LEU99       0.0001
     30  CD2       67.1770  101.3280  159.4190 C.3    99  LEU99       0.0001
     31  N         61.5790  107.1970  151.3420 N.3   112  THR112     -0.1218
     32  CA        62.1270  107.9750  152.4590 C.3   112  THR112      0.1862
     33  C         62.2550  109.3940  151.9510 C.2   112  THR112      0.2287
     34  O         63.0460  109.6700  151.0450 O.2   112  THR112     -0.2866
     35  CB        63.5250  107.5020  152.8900 C.3   112  THR112      0.1770
     36  OG1       63.4850  106.1010  153.1100 O.3   112  THR112     -0.2211
     37  CG2       63.9470  108.1830  154.1450 C.3   112  THR112      0.0375
     38  N         65.6520  114.4700  153.9850 N.3   115  HIS115     -0.1241
     39  CA        65.8050  114.8990  155.3360 C.3   115  HIS115      0.1621
     40  C         67.2720  115.2430  155.6380 C.2   115  HIS115      0.2264
     41  O         68.1320  115.1380  154.7830 O.2   115  HIS115     -0.2867
     42  CB        65.2920  113.8440  156.2280 C.3   115  HIS115      0.0745
     43  CG        66.1260  112.6080  156.2690 C.ar  115  HIS115      0.0817
     44  ND1       66.0910  111.6340  155.3020 N.ar  115  HIS115     -0.2268
     45  CD2       66.9740  112.1610  157.2120 C.ar  115  HIS115      0.1154
     46  CE1       66.8400  110.6110  155.6820 C.ar  115  HIS115      0.1986
     47  NE2       67.5030  110.9730  156.7690 N.ar  115  HIS115     -0.2212
     48  N         69.6890  114.5630  158.7810 N.3   117  ASP117     -0.1239
     49  CA        69.8180  113.7320  160.0240 C.3   117  ASP117      0.1674
     50  C         70.3860  114.4910  161.2710 C.2   117  ASP117      0.2266
     51  O         70.1260  114.1630  162.4160 O.2   117  ASP117     -0.2867
     52  CB        70.6720  112.4720  159.7520 C.3   117  ASP117      0.1410
     53  CG        69.8660  111.3380  159.1410 C.2   117  ASP117      0.3668
     54  OD1       68.7040  111.1150  159.6210 O.co2 117  ASP117     -0.2456
     55  OD2       70.3900  110.6930  158.1780 O.co2 117  ASP117     -0.2456
     56  N         77.3620  108.7660  159.2470 N.3   131  THR131     -0.1218
     57  CA        76.5280  107.5930  159.1600 C.3   131  THR131      0.1862
     58  C         77.0930  106.6390  158.1030 C.2   131  THR131      0.2287
     59  O         77.3420  107.0460  156.9750 O.2   131  THR131     -0.2866
     60  CB        75.1120  107.9700  158.6790 C.3   131  THR131      0.1770
     61  OG1       74.4940  108.9200  159.5640 O.3   131  THR131     -0.2211
     62  CG2       74.2530  106.7500  158.5840 C.3   131  THR131      0.0375
     63  N         76.0630  103.2140  155.9390 N.3   133  TRP133     -0.1241
     64  CA        74.8660  102.4800  155.4430 C.3   133  TRP133      0.1605
     65  C         75.3460  101.3410  154.5720 C.2   133  TRP133      0.2264
     66  O         75.9840  101.5610  153.5450 O.2   133  TRP133     -0.2867
     67  CB        74.0060  103.3930  154.5980 C.3   133  TRP133      0.0550
     68  CG        72.6180  103.0230  154.3340 C.ar  133  TRP133      0.0003
     69  CD1       71.5290  103.6180  154.8860 C.ar  133  TRP133      0.0946
     70  CD2       72.1230  102.0860  153.3720 C.ar  133  TRP133      0.0152
     71  NE1       70.3750  103.0840  154.3570 N.ar  133  TRP133     -0.2442
     72  CE2       70.7100  102.1380  153.4290 C.ar  133  TRP133      0.0810
     73  CE3       72.7180  101.2010  152.4940 C.ar  133  TRP133      0.0012
     74  CZ2       69.8920  101.3460  152.6370 C.ar  133  TRP133      0.0191
     75  CZ3       71.8960  100.4030  151.7060 C.ar  133  TRP133      0.0001
     76  CH2       70.5020  100.4920  151.7760 C.ar  133  TRP133      0.0015
     77  N         69.6190  104.9510  147.9970 N.3   146  MET146     -0.1245
     78  CA        69.6050  106.3290  148.4450 C.3   146  MET146      0.1570
     79  C         69.9210  107.3220  147.3360 C.2   146  MET146      0.2261
     80  O         70.4260  106.9740  146.2850 O.2   146  MET146     -0.2867
     81  CB        70.5190  106.5440  149.6160 C.3   146  MET146      0.0387
     82  CG        69.7380  106.3540  150.9040 C.3   146  MET146      0.0595
     83  SD        70.6700  106.7310  152.4100 S.3   146  MET146     -0.1393
     84  CE        71.8140  105.3650  152.1280 C.3   146  MET146      0.0692
     85  N         77.8550  108.9020  154.8250 N.3   192  HIS192     -0.1241
     86  CA        77.4470  110.2940  154.6670 C.3   192  HIS192      0.1621
     87  C         77.4590  111.1440  155.9180 C.2   192  HIS192      0.2264
     88  O         77.1620  110.7060  157.0010 O.2   192  HIS192     -0.2867
     89  CB        76.1070  110.4320  153.9700 C.3   192  HIS192      0.0745
     90  CG        74.9510  109.9840  154.7920 C.ar  192  HIS192      0.0817
     91  ND1       74.5300  108.6740  154.8260 N.ar  192  HIS192     -0.2268
     92  CD2       74.1240  110.6840  155.6120 C.ar  192  HIS192      0.1154
     93  CE1       73.4920  108.5900  155.6430 C.ar  192  HIS192      0.1986
     94  NE2       73.2390  109.7900  156.1420 N.ar  192  HIS192     -0.2212
     95  N         69.7430  113.8850  152.0790 N.3   198  HIS198     -0.1226
     96  CA        69.5750  112.6350  151.3700 C.3   198  HIS198      0.1752
     97  C         68.1830  112.0730  151.5440 C.2   198  HIS198      0.2597
     98  O         67.4440  112.4740  152.3830 O.2   198  HIS198     -0.2718
     99  CB        70.5590  111.6170  151.8520 C.3   198  HIS198      0.0759
    100  CG        70.4410  111.3410  153.2980 C.ar  198  HIS198      0.0818
    101  ND1       70.8620  112.2290  154.2550 N.ar  198  HIS198     -0.2268
    102  CD2       69.8850  110.3070  153.9540 C.ar  198  HIS198      0.1154
    103  CE1       70.6270  111.7100  155.4490 C.ar  198  HIS198      0.1986
    104  NE2       69.9010  110.6110  155.2880 N.ar  198  HIS198     -0.2212
    105  N         67.8630  111.1390  150.6760 N.am  199  SER199     -0.1938
    106  CA        66.5300  110.5940  150.5130 C.3   199  SER199      0.2055
    107  C         66.6950  109.1510  150.0490 C.2   199  SER199      0.2642
    108  O         67.8160  108.6680  149.8310 O.2   199  SER199     -0.2714
    109  CB        65.7430  111.3920  149.4850 C.3   199  SER199      0.2130
    110  OG        66.1000  110.9760  148.1800 O.3   199  SER199     -0.2179
    111  N         65.5740  108.4520  149.9190 N.am  200  ALA200     -0.1977
    112  CA        65.5730  107.1280  149.2710 C.3   200  ALA200      0.1597
    113  C         64.2840  106.8780  148.5550 C.2   200  ALA200      0.2287
    114  O         63.2470  107.3840  148.9350 O.2   200  ALA200     -0.2864
    115  CB        65.8150  106.0330  150.2830 C.3   200  ALA200      0.0319
    116  N         64.2370   95.0880  150.8630 N.3   209  ARG209     -0.1245
    117  CA        65.4540   95.8980  150.9810 C.3   209  ARG209      0.1563
    118  C         65.9880   95.8310  152.3920 C.2   209  ARG209      0.2260
    119  O         65.3740   96.3360  153.3310 O.2   209  ARG209     -0.2867
    120  CB        65.2170   97.3610  150.5950 C.3   209  ARG209      0.0307
    121  CG        66.5080   98.1420  150.3830 C.3   209  ARG209      0.0489
    122  CD        66.2970   99.6330  150.5780 C.3   209  ARG209      0.2205
    123  NE        66.1700  100.0140  151.9910 N.pl3 209  ARG209     -0.0865
    124  CZ        66.0640  101.2700  152.4350 C.cat 209  ARG209      0.5346
    125  NH1       66.0580  102.3170  151.6210 N.pl3 209  ARG209      0.1354
    126  NH2       65.9610  101.4880  153.7200 N.pl3 209  ARG209      0.1354
    127  N         72.1940  100.7660  159.1610 N.3   213  SER213     -0.1217
    128  CA        72.6010  102.1750  159.2690 C.3   213  SER213      0.1889
    129  C         73.2500  102.4130  160.6090 C.2   213  SER213      0.2288
    130  O         72.6180  102.2440  161.6450 O.2   213  SER213     -0.2866
    131  CB        71.4050  103.0850  159.1400 C.3   213  SER213      0.2089
    132  OG        71.8470  104.3830  158.8900 O.3   213  SER213     -0.2183
@<TRIPOS>BOND
     1    80    79    2
     2    79    78    1
     3    77    78    1
     4   110   109    1
     5    78    81    1
     6   113   114    2
     7   113   112    1
     8   112   111    1
     9   112   115    1
    10   109   106    1
    11    81    82    1
    12   108   107    2
    13   111   107   am
    14   107   106    1
    15   121   122    1
    16   121   120    1
    17   106   105    1
    18   122   123    1
    19   120   117    1
    20   105    97   am
    21   116   117    1
    22    82    83    1
    23   117   118    1
    24    34    33    2
    25    31    32    1
    26    96    97    1
    27    96    99    1
    28    96    95    1
    29    97    98    2
    30   125   124    1
    31    75    76   ar
    32    75    73   ar
    33    76    74   ar
    34    99   100    1
    35    33    32    1
    36   123   124    2
    37    84    83    1
    38   118   119    2
    39   124   126    1
    40    32    35    1
    41    73    70   ar
    42    74    72   ar
    43    35    36    1
    44    35    37    1
    45   100   102   ar
    46   100   101   ar
    47    70    72   ar
    48    70    68   ar
    49    72    71   ar
    50    66    65    2
    51   102   104   ar
    52    89    86    1
    53    89    90    1
    54    38    39    1
    55   101   103   ar
    56    68    67    1
    57    68    69   ar
    58    71    69   ar
    59    65    64    1
    60    67    64    1
    61    86    85    1
    62    86    87    1
    63    41    40    2
    64    90    91   ar
    65    90    92   ar
    66    91    93   ar
    67   104   103   ar
    68    44    46   ar
    69    44    43   ar
    70    39    40    1
    71    39    42    1
    72    64    63    1
    73    92    94   ar
    74    93    94   ar
    75    46    47   ar
    76    87    88    2
    77    42    43    1
    78    43    45   ar
    79    26    25    2
    80    22    21    1
    81    15    16    1
    82    16    19    1
    83    16    17    1
    84    19    20    1
    85    47    45   ar
    86    59    58    2
    87    25    24    1
    88    29    28    1
    89    27    24    1
    90    27    28    1
    91    14    12   ar
    92    14    13   ar
    93    20    21    1
    94    12    10   ar
    95    17    18    2
    96    58    57    1
    97    24    23    1
    98    28    30    1
    99    55    53   ar
   100    13    11   ar
   101     4     3    2
   102    10     9   ar
   103    10     8   ar
   104    62    60    1
   105    60    57    1
   106    60    61    1
   107     9     7   ar
   108    48    49    1
   109   132   131    1
   110    11     8   ar
   111     8     6   ar
   112   131   128    1
   113    53    54   ar
   114    53    52    1
   115    57    56    1
   116   127   128    1
   117   128   129    1
   118     7     6   ar
   119     3     2    1
   120     6     5    1
   121    52    49    1
   122    49    50    1
   123     5     2    1
   124   129   130    2
   125     2     1    1
   126    50    51    2
