@<TRIPOS>MOLECULE
tmp/5erlD01.pdb
 171 164 0 0 0
SMALL
GASTEIGER

@<TRIPOS>ATOM
      1  N         58.3500  103.3120  161.0830 N.3    49  TRP49      -0.1227
      2  CA        58.4680  104.7140  160.7120 C.3    49  TRP49       0.1737
      3  C         57.5160  104.8060  159.5500 C.2    49  TRP49       0.2596
      4  O         57.7230  104.1810  158.5280 O.2    49  TRP49      -0.2718
      5  CB        59.9030  105.1020  160.3150 C.3    49  TRP49       0.0564
      6  CG        60.0610  106.4270  159.6310 C.ar   49  TRP49       0.0003
      7  CD1       59.1180  107.4080  159.4400 C.ar   49  TRP49       0.0946
      8  CD2       61.2810  106.9280  159.0520 C.ar   49  TRP49       0.0152
      9  NE1       59.6710  108.4620  158.7590 N.ar   49  TRP49      -0.2442
     10  CE2       61.0010  108.2100  158.5300 C.ar   49  TRP49       0.0810
     11  CE3       62.5940  106.4230  158.9410 C.ar   49  TRP49       0.0012
     12  CZ2       61.9890  109.0060  157.9040 C.ar   49  TRP49       0.0191
     13  CZ3       63.5840  107.2140  158.3000 C.ar   49  TRP49       0.0001
     14  CH2       63.2700  108.4870  157.7870 C.ar   49  TRP49       0.0015
     15  N         56.4990  105.6240  159.7050 N.am   50  GLY50      -0.1942
     16  CA        55.4690  105.7100  158.7100 C.3    50  GLY50       0.2014
     17  C         55.0790  107.1140  158.3320 C.2    50  GLY50       0.2640
     18  O         55.4180  108.0860  159.0040 O.2    50  GLY50      -0.2714
     19  N         54.3920  107.1610  157.2010 N.am   51  SER51      -0.1935
     20  CA        53.3630  108.1610  156.9090 C.3    51  SER51       0.2055
     21  C         51.9780  107.4090  157.0420 C.2    51  SER51       0.2643
     22  O         51.9370  106.2210  157.3900 O.2    51  SER51      -0.2714
     23  CB        53.6260  108.8000  155.5380 C.3    51  SER51       0.2130
     24  OG        52.5500  109.6050  155.0950 O.3    51  SER51      -0.2179
     25  N         50.8590  108.1100  156.8400 N.am   52  GLY52      -0.1954
     26  CA        49.5250  107.4930  156.4590 C.3    52  GLY52       0.1869
     27  C         49.4520  107.1940  154.9410 C.2    52  GLY52       0.2309
     28  O         48.5290  106.5320  154.4740 O.2    52  GLY52      -0.2863
     29  N         59.6910  102.6820  156.4240 N.3    57  MET57      -0.1245
     30  CA        60.4350  101.4730  156.7210 C.3    57  MET57       0.1570
     31  C         60.0350  100.9200  158.0650 C.2    57  MET57       0.2261
     32  O         59.4210  101.5830  158.9000 O.2    57  MET57      -0.2867
     33  CB        61.9210  101.7350  156.7560 C.3    57  MET57       0.0387
     34  CG        62.3270  102.7280  157.8340 C.3    57  MET57       0.0595
     35  SD        64.1100  103.0430  157.8870 S.3    57  MET57      -0.1393
     36  CE        64.3910  104.0130  156.4130 C.3    57  MET57       0.0692
     37  N         62.1490   99.1950  161.1990 N.3    59  TYR59      -0.1241
     38  CA        63.5300   98.9920  161.6630 C.3    59  TYR59       0.1605
     39  C         63.6420   98.4850  163.0920 C.2    59  TYR59       0.2264
     40  O         62.7370   98.6630  163.8950 O.2    59  TYR59      -0.2867
     41  CB        64.3520  100.2600  161.5300 C.3    59  TYR59       0.0534
     42  CG        63.8960  101.3940  162.4160 C.ar   59  TYR59      -0.0201
     43  CD1       62.8510  102.2330  162.0260 C.ar   59  TYR59      -0.0009
     44  CD2       64.5300  101.6520  163.6490 C.ar   59  TYR59      -0.0009
     45  CE1       62.4450  103.2910  162.8260 C.ar   59  TYR59       0.0417
     46  CE2       64.1270  102.7090  164.4610 C.ar   59  TYR59       0.0417
     47  CZ        63.0910  103.5240  164.0440 C.ar   59  TYR59       0.1957
     48  OH        62.6830  104.5710  164.8150 O.3    59  TYR59      -0.2866
     49  N         74.8460  104.5200  167.5580 N.3    95  LYS95      -0.1245
     50  CA        73.7920  103.5180  167.3160 C.3    95  LYS95       0.1561
     51  C         73.9650  102.7580  166.0250 C.2    95  LYS95       0.2260
     52  O         74.5570  103.2400  165.1090 O.2    95  LYS95      -0.2867
     53  CB        72.3710  104.1480  167.3820 C.3    95  LYS95       0.0271
     54  CG        71.8960  104.8890  166.1410 C.3    95  LYS95       0.0035
     55  CD        70.4840  105.4260  166.3320 C.3    95  LYS95       0.0206
     56  CE        70.1560  106.5110  165.3040 C.3    95  LYS95       0.1093
     57  NZ        68.7160  106.8720  165.1630 N.3    95  LYS95      -0.1314
     58  N         71.2210  100.4880  163.4490 N.3    97  GLU97      -0.1245
     59  CA        69.8080  100.1360  163.1540 C.3    97  GLU97       0.1567
     60  C         69.7090   99.1550  162.0080 C.2    97  GLU97       0.2260
     61  O         70.4140   99.2660  161.0240 O.2    97  GLU97      -0.2867
     62  CB        68.9710  101.3760  162.8350 C.3    97  GLU97       0.0388
     63  CG        68.9300  102.3280  164.0070 C.3    97  GLU97       0.1160
     64  CD        68.0990  103.5670  163.7630 C.2    97  GLU97       0.3649
     65  OE1       68.2850  104.2040  162.6960 O.co2  97  GLU97      -0.2457
     66  OE2       67.3030  103.9390  164.6810 O.co2  97  GLU97      -0.2457
     67  N         67.5190   97.9160  159.0050 N.3    99  LEU99      -0.1245
     68  CA        66.4820   98.5790  158.1580 C.3    99  LEU99       0.1561
     69  C         65.7840   97.7110  157.1130 C.2    99  LEU99       0.2260
     70  O         66.4200   96.9510  156.3900 O.2    99  LEU99      -0.2867
     71  CB        67.0780   99.7790  157.4140 C.3    99  LEU99       0.0270
     72  CG        67.8790  100.8240  158.1720 C.3    99  LEU99       0.0019
     73  CD1       68.1490  101.9650  157.1950 C.3    99  LEU99       0.0001
     74  CD2       67.1770  101.3280  159.4190 C.3    99  LEU99       0.0001
     75  N         65.6520  114.4700  153.9850 N.3   115  HIS115     -0.1241
     76  CA        65.8050  114.8990  155.3360 C.3   115  HIS115      0.1621
     77  C         67.2720  115.2430  155.6380 C.2   115  HIS115      0.2264
     78  O         68.1320  115.1380  154.7830 O.2   115  HIS115     -0.2867
     79  CB        65.2920  113.8440  156.2280 C.3   115  HIS115      0.0745
     80  CG        66.1260  112.6080  156.2690 C.ar  115  HIS115      0.0817
     81  ND1       66.0910  111.6340  155.3020 N.ar  115  HIS115     -0.2268
     82  CD2       66.9740  112.1610  157.2120 C.ar  115  HIS115      0.1154
     83  CE1       66.8400  110.6110  155.6820 C.ar  115  HIS115      0.1986
     84  NE2       67.5030  110.9730  156.7690 N.ar  115  HIS115     -0.2212
     85  N         69.6890  114.5630  158.7810 N.3   117  ASP117     -0.1239
     86  CA        69.8180  113.7320  160.0240 C.3   117  ASP117      0.1674
     87  C         70.3860  114.4910  161.2710 C.2   117  ASP117      0.2266
     88  O         70.1260  114.1630  162.4160 O.2   117  ASP117     -0.2867
     89  CB        70.6720  112.4720  159.7520 C.3   117  ASP117      0.1410
     90  CG        69.8660  111.3380  159.1410 C.2   117  ASP117      0.3668
     91  OD1       68.7040  111.1150  159.6210 O.co2 117  ASP117     -0.2456
     92  OD2       70.3900  110.6930  158.1780 O.co2 117  ASP117     -0.2456
     93  N         68.8990  115.8530  164.8140 N.3   120  ALA120     -0.1231
     94  CA        68.1260  114.7230  165.3760 C.3   120  ALA120      0.1694
     95  C         68.9620  113.7010  166.1390 C.2   120  ALA120      0.2592
     96  O         68.4520  112.6970  166.6160 O.2   120  ALA120     -0.2718
     97  CB        67.3960  114.0140  164.2720 C.3   120  ALA120      0.0304
     98  N         70.2490  113.9480  166.2270 N.am  121  PHE121     -0.1976
     99  CA        71.1480  113.1240  167.0270 C.3   121  PHE121      0.1639
    100  C         71.3110  113.8230  168.3550 C.2   121  PHE121      0.2290
    101  O         71.7370  114.9510  168.3960 O.2   121  PHE121     -0.2864
    102  CB        72.5250  112.9950  166.3640 C.3   121  PHE121      0.0560
    103  CG        72.5110  112.2560  165.0500 C.ar  121  PHE121     -0.0200
    104  CD1       71.7490  111.0920  164.8740 C.ar  121  PHE121     -0.0042
    105  CD2       73.2660  112.7040  163.9850 C.ar  121  PHE121     -0.0042
    106  CE1       71.7380  110.4260  163.6660 C.ar  121  PHE121     -0.0003
    107  CE2       73.2490  112.0370  162.7720 C.ar  121  PHE121     -0.0003
    108  CZ        72.4990  110.8950  162.6100 C.ar  121  PHE121     -0.0000
    109  N         60.9970  120.2190  164.2180 N.3   163  GLU163     -0.1245
    110  CA        61.4590  118.8660  164.0070 C.3   163  GLU163      0.1567
    111  C         62.8900  118.8280  163.5950 C.2   163  GLU163      0.2260
    112  O         63.2040  119.2520  162.5000 O.2   163  GLU163     -0.2867
    113  CB        60.5930  118.2170  162.9210 C.3   163  GLU163      0.0388
    114  CG        59.1470  118.0380  163.3110 C.3   163  GLU163      0.1160
    115  CD        58.3220  117.4850  162.2000 C.2   163  GLU163      0.3649
    116  OE1       58.8520  116.7440  161.3550 O.co2 163  GLU163     -0.2457
    117  OE2       57.1080  117.7840  162.1860 O.co2 163  GLU163     -0.2457
    118  N         65.0770  116.8940  162.2570 N.3   165  TRP165     -0.1241
    119  CA        65.3610  116.3130  160.8900 C.3   165  TRP165      0.1605
    120  C         64.8800  117.1570  159.6880 C.2   165  TRP165      0.2264
    121  O         65.2800  116.9130  158.5380 O.2   165  TRP165     -0.2867
    122  CB        64.7700  114.9060  160.7270 C.3   165  TRP165      0.0550
    123  CG        63.2810  114.8940  160.9580 C.ar  165  TRP165      0.0003
    124  CD1       62.3130  115.4310  160.1600 C.ar  165  TRP165      0.0946
    125  CD2       62.6060  114.3980  162.1290 C.ar  165  TRP165      0.0152
    126  NE1       61.0820  115.2850  160.7550 N.ar  165  TRP165     -0.2442
    127  CE2       61.2320  114.6530  161.9620 C.ar  165  TRP165      0.0810
    128  CE3       63.0370  113.7530  163.2990 C.ar  165  TRP165      0.0012
    129  CZ2       60.2770  114.2760  162.9220 C.ar  165  TRP165      0.0191
    130  CZ3       62.0890  113.3760  164.2430 C.ar  165  TRP165      0.0001
    131  CH2       60.7300  113.6400  164.0480 C.ar  165  TRP165      0.0015
    132  N         72.1940  100.7660  159.1610 N.3   213  SER213     -0.1217
    133  CA        72.6010  102.1750  159.2690 C.3   213  SER213      0.1889
    134  C         73.2500  102.4130  160.6090 C.2   213  SER213      0.2288
    135  O         72.6180  102.2440  161.6450 O.2   213  SER213     -0.2866
    136  CB        71.4050  103.0850  159.1400 C.3   213  SER213      0.2089
    137  OG        71.8470  104.3830  158.8900 O.3   213  SER213     -0.2183
    138  N         75.3620  105.0420  163.0770 N.3   215  VAL215     -0.1245
    139  CA        75.7480  106.4490  163.3460 C.3   215  VAL215      0.1561
    140  C         76.9900  106.5050  164.2330 C.2   215  VAL215      0.2260
    141  O         76.9490  106.0860  165.3840 O.2   215  VAL215     -0.2867
    142  CB        74.5890  107.2340  163.9860 C.3   215  VAL215      0.0252
    143  CG1       74.9750  108.6540  164.3300 C.3   215  VAL215      0.0019
    144  CG2       73.4060  107.2740  163.0450 C.3   215  VAL215      0.0019
    145  N         62.6240  115.8920  171.4120 N.3   228  ILE228     -0.1245
    146  CA        61.7430  114.8300  170.9740 C.3   228  ILE228      0.1561
    147  C         62.0330  113.6150  171.8350 C.2   228  ILE228      0.2260
    148  O         63.1130  113.0420  171.7630 O.2   228  ILE228     -0.2867
    149  CB        62.0100  114.4450  169.4990 C.3   228  ILE228      0.0252
    150  CG1       61.9320  115.6670  168.5530 C.3   228  ILE228      0.0019
    151  CG2       61.0770  113.3550  169.0390 C.3   228  ILE228      0.0019
    152  CD1       60.5800  116.3460  168.4510 C.3   228  ILE228      0.0001
    153  N         61.1610  110.3050  171.9240 N.3   230  PHE230     -0.1227
    154  CA        61.6370  109.0270  171.3720 C.3   230  PHE230      0.1736
    155  C         63.0900  109.0680  170.8220 C.2   230  PHE230      0.2595
    156  O         63.7240  108.0270  170.6840 O.2   230  PHE230     -0.2718
    157  CB        60.6590  108.4440  170.3580 C.3   230  PHE230      0.0547
    158  CG        60.8080  108.9840  168.9440 C.ar  230  PHE230     -0.0202
    159  CD1       61.7910  108.4970  168.0710 C.ar  230  PHE230     -0.0042
    160  CD2       59.9060  109.9420  168.4710 C.ar  230  PHE230     -0.0042
    161  CE1       61.8750  108.9770  166.7860 C.ar  230  PHE230     -0.0003
    162  CE2       60.0140  110.4430  167.1880 C.ar  230  PHE230     -0.0003
    163  CZ        60.9930  109.9590  166.3470 C.ar  230  PHE230     -0.0000
    164  N         63.5840  110.2600  170.4830 N.am  231  LEU231     -0.1980
    165  CA        65.0160  110.4500  170.0870 C.3   231  LEU231      0.1596
    166  C         65.9620  110.5270  171.2830 C.2   231  LEU231      0.2287
    167  O         67.1120  110.1110  171.2010 O.2   231  LEU231     -0.2864
    168  CB        65.2190  111.7170  169.2510 C.3   231  LEU231      0.0297
    169  CG        64.5380  111.6990  167.8940 C.3   231  LEU231      0.0022
    170  CD1       64.6680  113.0300  167.1840 C.3   231  LEU231      0.0001
    171  CD2       65.1060  110.5820  167.0260 C.3   231  LEU231      0.0001
@<TRIPOS>BOND
     1    75    76    1
     2    28    27    2
     3    78    77    2
     4    27    26    1
     5    24    23    1
     6    81    83   ar
     7    81    80   ar
     8    76    77    1
     9    76    79    1
    10    23    20    1
    11    83    84   ar
    12    79    80    1
    13    80    82   ar
    14    70    69    2
    15    36    35    1
    16    29    30    1
    17    26    25    1
    18    30    33    1
    19    30    31    1
    20    33    34    1
    21    84    82   ar
    22    25    21   am
    23    20    21    1
    24    20    19    1
    25    21    22    2
    26    69    68    1
    27    73    72    1
    28    19    17   am
    29    71    68    1
    30    71    72    1
    31    14    12   ar
    32    14    13   ar
    33    34    35    1
    34    12    10   ar
    35    31    32    2
    36    68    67    1
    37    72    74    1
    38    92    90   ar
    39    13    11   ar
    40    17    16    1
    41    17    18    2
    42     4     3    2
    43    10     9   ar
    44    10     8   ar
    45   121   120    2
    46    16    15    1
    47     9     7   ar
    48    85    86    1
    49   137   136    1
    50    11     8   ar
    51     8     6   ar
    52   136   133    1
    53    90    91   ar
    54    90    89    1
    55   132   133    1
    56   133   134    1
    57     7     6   ar
    58     3    15   am
    59     3     2    1
    60     6     5    1
    61   120   119    1
    62    89    86    1
    63    86    87    1
    64   124   126   ar
    65   124   123   ar
    66     5     2    1
    67   134   135    2
    68     2     1    1
    69   122   119    1
    70   122   123    1
    71   126   127   ar
    72   119   118    1
    73   123   125   ar
    74    61    60    2
    75    37    38    1
    76    87    88    2
    77   116   115   ar
    78    41    38    1
    79    41    42    1
    80    38    39    1
    81   127   125   ar
    82   127   129   ar
    83    60    59    1
    84    43    42   ar
    85    43    45   ar
    86   125   128   ar
    87   117   115   ar
    88   115   114    1
    89    42    44   ar
    90   112   111    2
    91   108   107   ar
    92   108   106   ar
    93    65    64   ar
    94   107   105   ar
    95    45    47   ar
    96    62    59    1
    97    62    63    1
    98   113   114    1
    99   113   110    1
   100   129   131   ar
   101   144   142    1
   102   138   139    1
   103    39    40    2
   104    59    58    1
   105   128   130   ar
   106   139   142    1
   107   139   140    1
   108   111   110    1
   109    44    46   ar
   110   106   104   ar
   111    64    63    1
   112    64    66   ar
   113   105   103   ar
   114   142   143    1
   115   110   109    1
   116    47    46   ar
   117    47    48    1
   118   131   130   ar
   119   140   141    2
   120    97    94    1
   121    93    94    1
   122   104   103   ar
   123   103   102    1
   124    52    51    2
   125    57    56    1
   126    56    55    1
   127    94    95    1
   128    51    50    1
   129    95    98   am
   130    95    96    2
   131    54    55    1
   132    54    53    1
   133    98    99    1
   134   163   161   ar
   135   163   162   ar
   136   102    99    1
   137   161   159   ar
   138   171   169    1
   139    99   100    1
   140   170   169    1
   141   162   160   ar
   142    50    53    1
   143    50    49    1
   144   169   168    1
   145   159   158   ar
   146   100   101    2
   147   152   150    1
   148   160   158   ar
   149   150   149    1
   150   158   157    1
   151   151   149    1
   152   168   165    1
   153   149   146    1
   154   165   164    1
   155   165   166    1
   156   157   154    1
   157   164   155   am
   158   156   155    2
   159   155   154    1
   160   146   145    1
   161   146   147    1
   162   167   166    2
   163   154   153    1
   164   148   147    2
