@<TRIPOS>MOLECULE
tmp/5ermB00.pdb
 148 140 0 0 0
SMALL
GASTEIGER

@<TRIPOS>ATOM
      1  N        -70.3230  -21.5970    1.7330 N.3    64  PHE64      -0.1241
      2  CA       -70.2670  -22.4350    2.9310 C.3    64  PHE64       0.1605
      3  C        -69.3070  -21.9200    4.0020 C.2    64  PHE64       0.2264
      4  O        -69.7230  -21.6490    5.1270 O.2    64  PHE64      -0.2867
      5  CB       -69.8920  -23.8710    2.5570 C.3    64  PHE64       0.0534
      6  CG       -69.8840  -24.8220    3.7250 C.ar   64  PHE64      -0.0203
      7  CD1      -71.0700  -25.2070    4.3310 C.ar   64  PHE64      -0.0042
      8  CD2      -68.6930  -25.3380    4.2080 C.ar   64  PHE64      -0.0042
      9  CE1      -71.0670  -26.0830    5.4050 C.ar   64  PHE64      -0.0003
     10  CE2      -68.6840  -26.2150    5.2800 C.ar   64  PHE64      -0.0003
     11  CZ       -69.8720  -26.5870    5.8780 C.ar   64  PHE64      -0.0000
     12  N        -64.7340  -31.6060   -1.6530 N.3    88  PHE88      -0.1241
     13  CA       -65.9840  -31.8890   -2.3470 C.3    88  PHE88       0.1605
     14  C        -65.7360  -32.7340   -3.5900 C.2    88  PHE88       0.2264
     15  O        -66.4330  -33.7180   -3.8380 O.2    88  PHE88      -0.2867
     16  CB       -66.6970  -30.5910   -2.7370 C.3    88  PHE88       0.0534
     17  CG       -67.5470  -30.0090   -1.6410 C.ar   88  PHE88      -0.0203
     18  CD1      -68.6120  -30.7250   -1.1200 C.ar   88  PHE88      -0.0042
     19  CD2      -67.2950  -28.7390   -1.1490 C.ar   88  PHE88      -0.0042
     20  CE1      -69.4020  -30.1900   -0.1180 C.ar   88  PHE88      -0.0003
     21  CE2      -68.0810  -28.2000   -0.1470 C.ar   88  PHE88      -0.0003
     22  CZ       -69.1360  -28.9270    0.3690 C.ar   88  PHE88      -0.0000
     23  N        -64.9310  -36.1260   -2.5790 N.3    91  ASP91      -0.1239
     24  CA       -66.1140  -36.7860   -2.0330 C.3    91  ASP91       0.1674
     25  C        -66.9900  -37.3230   -3.1590 C.2    91  ASP91       0.2266
     26  O        -67.5550  -38.4110   -3.0580 O.2    91  ASP91      -0.2867
     27  CB       -66.9130  -35.8220   -1.1500 C.3    91  ASP91       0.1410
     28  CG       -68.2230  -36.4180   -0.6640 C.2    91  ASP91       0.3668
     29  OD1      -69.2680  -36.1400   -1.2890 O.co2  91  ASP91      -0.2456
     30  OD2      -68.2100  -37.1590    0.3430 O.co2  91  ASP91      -0.2456
     31  N        -68.3600  -41.4280   -3.7170 N.3    95  ASP95      -0.1239
     32  CA       -69.7240  -41.9800   -3.6870 C.3    95  ASP95       0.1674
     33  C        -70.4070  -41.8630   -5.0420 C.2    95  ASP95       0.2266
     34  O        -71.5450  -42.2860   -5.1800 O.2    95  ASP95      -0.2867
     35  CB       -70.5790  -41.2770   -2.5880 C.3    95  ASP95       0.1410
     36  CG       -69.7410  -40.8070   -1.4030 C.2    95  ASP95       0.3668
     37  OD1      -69.3680  -41.6620   -0.5810 O.co2  95  ASP95      -0.2456
     38  OD2      -69.4490  -39.5960   -1.2990 O.co2  95  ASP95      -0.2456
     39  N        -71.4370  -39.0790   -6.9300 N.3    97  VAL97      -0.1245
     40  CA       -72.5660  -38.1450   -6.9420 C.3    97  VAL97       0.1561
     41  C        -72.0400  -36.8060   -7.4720 C.2    97  VAL97       0.2260
     42  O        -71.1710  -36.1710   -6.8780 O.2    97  VAL97      -0.2867
     43  CB       -73.1790  -37.9210   -5.5480 C.3    97  VAL97       0.0252
     44  CG1      -74.7070  -37.9120   -5.5820 C.3    97  VAL97       0.0019
     45  CG2      -72.6710  -38.9630   -4.5420 C.3    97  VAL97       0.0019
     46  N        -71.1730  -42.2490   10.4920 N.3   158  ARG158     -0.1245
     47  CA       -71.4540  -41.0350    9.7300 C.3   158  ARG158      0.1563
     48  C        -70.7950  -39.8140   10.3650 C.2   158  ARG158      0.2260
     49  O        -70.4720  -38.8410    9.6750 O.2   158  ARG158     -0.2867
     50  CB       -72.9690  -40.8260    9.6120 C.3   158  ARG158      0.0307
     51  CG       -73.3950  -39.5430    8.9050 C.3   158  ARG158      0.0489
     52  CD       -72.8890  -39.4850    7.4700 C.3   158  ARG158      0.2205
     53  NE       -73.4020  -38.3150    6.7610 N.pl3 158  ARG158     -0.0865
     54  CZ       -73.0840  -38.0000    5.5090 C.cat 158  ARG158      0.5346
     55  NH1      -72.2490  -38.7690    4.8230 N.pl3 158  ARG158      0.1354
     56  NH2      -73.5980  -36.9170    4.9420 N.pl3 158  ARG158      0.1354
     57  N        -67.7930  -39.8040    8.7320 N.3   161  ASP161     -0.1225
     58  CA       -67.9480  -39.8630    7.2830 C.3   161  ASP161      0.1805
     59  C        -68.2710  -38.4970    6.6850 C.2   161  ASP161      0.2597
     60  O        -67.9860  -38.2420    5.5140 O.2   161  ASP161     -0.2718
     61  CB       -69.0350  -40.8740    6.9080 C.3   161  ASP161      0.1424
     62  CG       -69.2030  -41.0220    5.4070 C.2   161  ASP161      0.3668
     63  OD1      -68.3280  -41.6460    4.7670 O.co2 161  ASP161     -0.2456
     64  OD2      -70.2140  -40.5200    4.8710 O.co2 161  ASP161     -0.2456
     65  N        -68.8660  -37.6200    7.4870 N.am  162  VAL162     -0.1980
     66  CA       -69.1560  -36.2650    7.0340 C.3   162  VAL162      0.1595
     67  C        -67.9240  -35.3830    7.2470 C.2   162  VAL162      0.2287
     68  O        -67.8630  -34.2490    6.7700 O.2   162  VAL162     -0.2864
     69  CB       -70.3830  -35.6670    7.7610 C.3   162  VAL162      0.0276
     70  CG1      -70.0060  -35.2020    9.1500 C.3   162  VAL162      0.0022
     71  CG2      -70.9820  -34.5180    6.9550 C.3   162  VAL162      0.0022
     72  N        -77.2890  -32.4150    6.7400 N.3   202  ASN202     -0.1240
     73  CA       -76.7860  -32.6850    5.3990 C.3   202  ASN202      0.1653
     74  C        -77.5230  -33.8420    4.7320 C.2   202  ASN202      0.2266
     75  O        -77.8400  -33.7810    3.5460 O.2   202  ASN202     -0.2867
     76  CB       -75.2860  -32.9780    5.4450 C.3   202  ASN202      0.1155
     77  CG       -74.7300  -33.3710    4.0930 C.2   202  ASN202      0.2627
     78  OD1      -74.5310  -34.5520    3.8120 O.2   202  ASN202     -0.2716
     79  ND2      -74.4840  -32.3810    3.2430 N.am  202  ASN202     -0.0877
     80  N        -79.1450  -33.3090    1.2610 N.3   206  SER206     -0.1217
     81  CA       -78.4280  -34.0390    0.2210 C.3   206  SER206      0.1889
     82  C        -79.1010  -35.3740   -0.0440 C.2   206  SER206      0.2288
     83  O        -78.5010  -36.2770   -0.6290 O.2   206  SER206     -0.2866
     84  CB       -76.9670  -34.2590    0.6110 C.3   206  SER206      0.2089
     85  OG       -76.8740  -35.0300    1.7950 O.3   206  SER206     -0.2183
     86  N        -80.3350  -35.7080   -3.8630 N.3   209  LYS209     -0.1231
     87  CA       -79.0590  -35.8050   -4.5610 C.3   209  LYS209      0.1693
     88  C        -78.3810  -37.1690   -4.4280 C.2   209  LYS209      0.2591
     89  O        -77.8580  -37.6880   -5.4130 O.2   209  LYS209     -0.2718
     90  CB       -78.1080  -34.7040   -4.0820 C.3   209  LYS209      0.0285
     91  CG       -76.6680  -34.8860   -4.5340 C.3   209  LYS209      0.0035
     92  CD       -75.7570  -33.8380   -3.9160 C.3   209  LYS209      0.0206
     93  CE       -75.1180  -34.3480   -2.6350 C.3   209  LYS209      0.1093
     94  NZ       -73.7980  -34.9870   -2.8890 N.3   209  LYS209     -0.1314
     95  N        -78.3870  -37.7620   -3.2340 N.am  210  GLU210     -0.1979
     96  CA       -77.7880  -39.0820   -3.1130 C.3   210  GLU210      0.1602
     97  C        -78.7750  -40.1910   -3.4630 C.2   210  GLU210      0.2287
     98  O        -78.3730  -41.3150   -3.7800 O.2   210  GLU210     -0.2864
     99  CB       -77.2430  -39.2890   -1.7020 C.3   210  GLU210      0.0415
    100  CG       -76.1160  -38.3470   -1.3180 C.3   210  GLU210      0.1163
    101  CD       -75.8650  -38.2840    0.1780 C.2   210  GLU210      0.3649
    102  OE1      -76.6690  -38.8420    0.9450 O.co2 210  GLU210     -0.2457
    103  OE2      -74.8580  -37.6720    0.5890 O.co2 210  GLU210     -0.2457
    104  N        -74.4460  -24.1080    8.1910 N.3   286  ASN286     -0.1240
    105  CA       -74.8330  -25.2370    7.3540 C.3   286  ASN286      0.1653
    106  C        -76.3070  -25.1830    6.9630 C.2   286  ASN286      0.2266
    107  O        -76.6880  -25.6390    5.8850 O.2   286  ASN286     -0.2867
    108  CB       -74.5310  -26.5560    8.0660 C.3   286  ASN286      0.1155
    109  CG       -74.7530  -27.7630    7.1760 C.2   286  ASN286      0.2627
    110  OD1      -74.4460  -27.7360    5.9830 O.2   286  ASN286     -0.2716
    111  ND2      -75.3000  -28.8290    7.7510 N.am  286  ASN286     -0.0877
    112  N        -76.8940  -22.3130    4.2760 N.3   289  TRP289     -0.1241
    113  CA       -76.1380  -22.6500    3.0760 C.3   289  TRP289      0.1605
    114  C        -76.8450  -23.7360    2.2830 C.2   289  TRP289      0.2264
    115  O        -77.0900  -23.5830    1.0880 O.2   289  TRP289     -0.2867
    116  CB       -74.7190  -23.1000    3.4330 C.3   289  TRP289      0.0550
    117  CG       -73.9300  -23.6160    2.2600 C.ar  289  TRP289      0.0003
    118  CD1      -73.3220  -22.8730    1.2910 C.ar  289  TRP289      0.0946
    119  CD2      -73.6560  -24.9880    1.9420 C.ar  289  TRP289      0.0152
    120  NE1      -72.6920  -23.6940    0.3870 N.ar  289  TRP289     -0.2442
    121  CE2      -72.8810  -24.9960    0.7650 C.ar  289  TRP289      0.0810
    122  CE3      -73.9920  -26.2070    2.5370 C.ar  289  TRP289      0.0012
    123  CZ2      -72.4380  -26.1770    0.1730 C.ar  289  TRP289      0.0191
    124  CZ3      -73.5510  -27.3770    1.9460 C.ar  289  TRP289      0.0001
    125  CH2      -72.7830  -27.3530    0.7770 C.ar  289  TRP289      0.0015
    126  N        -75.3940  -26.8730   -4.9480 N.3   295  ARG295     -0.1231
    127  CA       -75.0330  -28.2800   -4.8020 C.3   295  ARG295      0.1694
    128  C        -76.2490  -29.1570   -4.5140 C.2   295  ARG295      0.2592
    129  O        -76.3700  -30.2630   -5.0410 O.2   295  ARG295     -0.2718
    130  CB       -73.9930  -28.4480   -3.6870 C.3   295  ARG295      0.0321
    131  CG       -73.5440  -29.8840   -3.4690 C.3   295  ARG295      0.0489
    132  CD       -72.3700  -29.9600   -2.5010 C.3   295  ARG295      0.2205
    133  NE       -71.8820  -31.3280   -2.3390 N.pl3 295  ARG295     -0.0865
    134  CZ       -70.9470  -31.8860   -3.1010 C.cat 295  ARG295      0.5346
    135  NH1      -70.3880  -31.1930   -4.0830 N.pl3 295  ARG295      0.1354
    136  NH2      -70.5730  -33.1410   -2.8830 N.pl3 295  ARG295      0.1354
    137  N        -77.1490  -28.6520   -3.6790 N.am  296  TYR296     -0.1976
    138  CA       -78.3280  -29.4100   -3.2830 C.3   296  TYR296      0.1639
    139  C        -79.5710  -28.8720   -3.9810 C.2   296  TYR296      0.2290
    140  O        -80.6090  -29.5330   -4.0250 O.2   296  TYR296     -0.2864
    141  CB       -78.5100  -29.3670   -1.7630 C.3   296  TYR296      0.0560
    142  CG       -77.3260  -29.8950   -0.9820 C.ar  296  TYR296     -0.0198
    143  CD1      -76.4460  -30.8050   -1.5470 C.ar  296  TYR296     -0.0009
    144  CD2      -77.0900  -29.4820    0.3230 C.ar  296  TYR296     -0.0009
    145  CE1      -75.3620  -31.2890   -0.8370 C.ar  296  TYR296      0.0417
    146  CE2      -76.0090  -29.9600    1.0400 C.ar  296  TYR296      0.0417
    147  CZ       -75.1480  -30.8650    0.4540 C.ar  296  TYR296      0.1957
    148  OH       -74.0680  -31.3490    1.1560 O.3   296  TYR296     -0.2866
@<TRIPOS>BOND
     1    41    40    1
     2    41    42    2
     3    40    39    1
     4    40    43    1
     5    44    43    1
     6    43    45    1
     7    89    88    2
     8    34    33    2
     9    33    32    1
    10   129   128    2
    11   126   127    1
    12   127   128    1
    13   127   130    1
    14    87    88    1
    15    87    90    1
    16    87    86    1
    17    91    90    1
    18    91    92    1
    19   128   137   am
    20    88    95   am
    21   135   134    1
    22   140   139    2
    23   139   138    1
    24    92    93    1
    25    15    14    2
    26    98    97    2
    27    31    32    1
    28   130   131    1
    29    32    35    1
    30   137   138    1
    31    14    13    1
    32   131   132    1
    33    97    96    1
    34   138   141    1
    35    95    96    1
    36    25    26    2
    37    25    24    1
    38    96    99    1
    39   134   136    1
    40   134   133    2
    41    94    93    1
    42    16    13    1
    43    16    17    1
    44    35    36    1
    45    23    24    1
    46   132   133    1
    47    13    12    1
    48    24    27    1
    49   141   142    1
    50    99   100    1
    51    17    19   ar
    52    17    18   ar
    53   143   142   ar
    54   143   145   ar
    55    36    38   ar
    56    36    37   ar
    57   100   101    1
    58    29    28   ar
    59    27    28    1
    60    19    21   ar
    61    18    20   ar
    62   142   144   ar
    63   145   147   ar
    64    28    30   ar
    65    83    82    2
    66    21    22   ar
    67    20    22   ar
    68    82    81    1
    69   123   121   ar
    70   123   125   ar
    71   101   103   ar
    72   101   102   ar
    73    81    84    1
    74    81    80    1
    75   144   146   ar
    76   120   121   ar
    77   120   118   ar
    78   147   146   ar
    79   147   148    1
    80    84    85    1
    81   121   119   ar
    82   125   124   ar
    83   115   114    2
    84   118   117   ar
    85     1     2    1
    86   119   117   ar
    87   119   122   ar
    88   124   122   ar
    89   117   116    1
    90   114   113    1
    91     5     2    1
    92     5     6    1
    93     2     3    1
    94   113   116    1
    95   113   112    1
    96    79    77   am
    97    75    74    2
    98     6     8   ar
    99     6     7   ar
   100    78    77    2
   101     3     4    2
   102    77    76    1
   103     8    10   ar
   104     7     9   ar
   105    74    73    1
   106    63    62   ar
   107    55    54    1
   108    64    62   ar
   109    56    54    1
   110    10    11   ar
   111    73    76    1
   112    73    72    1
   113     9    11   ar
   114    62    61    1
   115    54    53    2
   116    60    59    2
   117   107   106    2
   118   110   109    2
   119    59    58    1
   120    59    65   am
   121    53    52    1
   122    68    67    2
   123    61    58    1
   124    71    69    1
   125   106   105    1
   126    66    67    1
   127    66    65    1
   128    66    69    1
   129   109   111   am
   130   109   108    1
   131    58    57    1
   132   105   108    1
   133   105   104    1
   134    52    51    1
   135    69    70    1
   136    51    50    1
   137    50    47    1
   138    49    48    2
   139    47    48    1
   140    47    46    1
