@<TRIPOS>MOLECULE
tmp/5eroA00.pdb
 173 160 0 0 0
SMALL
GASTEIGER

@<TRIPOS>ATOM
      1  N         29.5260    8.0080  -22.8160 N.3    55  HIS55      -0.1241
      2  CA        28.2990    7.9960  -22.0230 C.3    55  HIS55       0.1621
      3  C         27.5230    9.3010  -22.1630 C.2    55  HIS55       0.2264
      4  O         26.3110    9.2900  -22.3710 O.2    55  HIS55      -0.2867
      5  CB        28.6160    7.7350  -20.5480 C.3    55  HIS55       0.0745
      6  CG        27.4070    7.7150  -19.6620 C.ar   55  HIS55       0.0817
      7  ND1       27.1940    8.6490  -18.6700 N.ar   55  HIS55      -0.2268
      8  CD2       26.3470    6.8740  -19.6200 C.ar   55  HIS55       0.1154
      9  CE1       26.0550    8.3830  -18.0560 C.ar   55  HIS55       0.1986
     10  NE2       25.5200    7.3120  -18.6130 N.ar   55  HIS55      -0.2212
     11  N         25.8460    9.6670  -25.5960 N.3    58  SER58      -0.1202
     12  CA        24.6370    8.8650  -25.7280 C.3    58  SER58       0.2020
     13  C         23.4800    9.5140  -24.9760 C.2    58  SER58       0.2618
     14  O         22.3210    9.3660  -25.3620 O.2    58  SER58      -0.2717
     15  CB        24.8710    7.4420  -25.2200 C.3    58  SER58       0.2103
     16  OG        25.1250    7.4350  -23.8280 O.3    58  SER58      -0.2182
     17  N         23.8040   10.2380  -23.9080 N.am   59  LEU59      -0.1979
     18  CA        22.8090   10.9970  -23.1550 C.3    59  LEU59       0.1596
     19  C         22.2820   12.1650  -23.9780 C.2    59  LEU59       0.2287
     20  O         21.0960   12.4910  -23.9220 O.2    59  LEU59      -0.2864
     21  CB        23.4000   11.5100  -21.8400 C.3    59  LEU59       0.0297
     22  CG        23.7470   10.4540  -20.7920 C.3    59  LEU59       0.0022
     23  CD1       24.1800   11.1160  -19.4950 C.3    59  LEU59       0.0001
     24  CD2       22.5660    9.5260  -20.5590 C.3    59  LEU59       0.0001
     25  N         19.9790   10.4600  -26.3680 N.3    62  ASP62      -0.1239
     26  CA        18.8490    9.8530  -25.6740 C.3    62  ASP62       0.1674
     27  C         17.7910   10.8730  -25.2670 C.2    62  ASP62       0.2266
     28  O         16.6020   10.6570  -25.4950 O.2    62  ASP62      -0.2867
     29  CB        19.3250    9.0930  -24.4350 C.3    62  ASP62       0.1410
     30  CG        18.1910    8.4040  -23.7080 C.2    62  ASP62       0.3668
     31  OD1       17.8540    7.2610  -24.0820 O.co2  62  ASP62      -0.2456
     32  OD2       17.6330    9.0050  -22.7670 O.co2  62  ASP62      -0.2456
     33  N         14.2190   10.6920  -26.7620 N.3    66  ASP66      -0.1239
     34  CA        13.1130   10.4330  -25.8410 C.3    66  ASP66       0.1674
     35  C         12.2840   11.6830  -25.5820 C.2    66  ASP66       0.2266
     36  O         11.3130   11.6420  -24.8250 O.2    66  ASP66      -0.2867
     37  CB        13.6310    9.8900  -24.5110 C.3    66  ASP66       0.1410
     38  CG        14.3580    8.5730  -24.6610 C.2    66  ASP66       0.3668
     39  OD1       14.2200    7.9330  -25.7240 O.co2  66  ASP66      -0.2456
     40  OD2       15.0580    8.1690  -23.7090 O.co2  66  ASP66      -0.2456
     41  N         12.9460   14.3300  -23.8690 N.3    68  SER68      -0.1217
     42  CA        12.9550   14.6790  -22.4550 C.3    68  SER68       0.1889
     43  C         13.2990   16.1500  -22.2570 C.2    68  SER68       0.2288
     44  O         14.3610   16.6030  -22.6740 O.2    68  SER68      -0.2866
     45  CB        13.9470   13.7990  -21.6970 C.3    68  SER68       0.2089
     46  OG        13.6970   12.4270  -21.9450 O.3    68  SER68      -0.2183
     47  N         16.9270   17.1910  -17.6640 N.3    71  ARG71      -0.1245
     48  CA        17.9450   16.2720  -17.1800 C.3    71  ARG71       0.1563
     49  C         18.6040   16.8580  -15.9430 C.2    71  ARG71       0.2260
     50  O         19.1610   17.9560  -15.9870 O.2    71  ARG71      -0.2867
     51  CB        18.9910   15.9810  -18.2510 C.3    71  ARG71       0.0307
     52  CG        20.2410   15.3270  -17.6940 C.3    71  ARG71       0.0489
     53  CD        20.7920   14.2730  -18.6330 C.3    71  ARG71       0.2205
     54  NE        20.6740   12.9320  -18.0700 N.pl3  71  ARG71      -0.0865
     55  CZ        19.8140   12.0130  -18.4950 C.cat  71  ARG71       0.5346
     56  NH1       19.7800   10.8200  -17.9180 N.pl3  71  ARG71       0.1354
     57  NH2       18.9930   12.2800  -19.5010 N.pl3  71  ARG71       0.1354
     58  N         21.6860   -2.1230  -24.9240 N.3   148  LYS148     -0.1231
     59  CA        21.7450   -0.6630  -24.8620 C.3   148  LYS148      0.1693
     60  C         22.3660   -0.1160  -23.5740 C.2   148  LYS148      0.2592
     61  O         22.8670    1.0080  -23.5580 O.2   148  LYS148     -0.2718
     62  CB        20.3450   -0.0660  -25.0480 C.3   148  LYS148      0.0285
     63  CG        19.5290    0.0670  -23.7700 C.3   148  LYS148      0.0035
     64  CD        18.3080    0.9530  -23.9790 C.3   148  LYS148      0.0206
     65  CE        17.5480    1.1650  -22.6760 C.3   148  LYS148      0.1093
     66  NZ        16.3120    1.9880  -22.8460 N.3   148  LYS148     -0.1314
     67  N         22.3330   -0.8980  -22.4980 N.am  149  THR149     -0.1953
     68  CA        22.8770   -0.4390  -21.2220 C.3   149  THR149      0.1897
     69  C         23.8650   -1.4320  -20.6200 C.2   149  THR149      0.2313
     70  O         24.8640   -1.0370  -20.0170 O.2   149  THR149     -0.2863
     71  CB        21.7580   -0.1710  -20.1970 C.3   149  THR149      0.1794
     72  OG1       20.8570   -1.2850  -20.1690 O.3   149  THR149     -0.2208
     73  CG2       20.9890    1.0860  -20.5720 C.3   149  THR149      0.0378
     74  N         27.2290   -1.2270  -22.1960 N.3   152  LEU152     -0.1245
     75  CA        27.9730   -0.0430  -21.7900 C.3   152  LEU152      0.1561
     76  C         28.9130   -0.3720  -20.6310 C.2   152  LEU152      0.2260
     77  O         30.0520    0.0980  -20.5890 O.2   152  LEU152     -0.2867
     78  CB        27.0090    1.0800  -21.4090 C.3   152  LEU152      0.0270
     79  CG        27.5490    2.5050  -21.4990 C.3   152  LEU152      0.0019
     80  CD1       28.4070    2.6530  -22.7400 C.3   152  LEU152      0.0001
     81  CD2       26.3970    3.4990  -21.5260 C.3   152  LEU152      0.0001
     82  N         20.5030   -1.8220  -13.4130 N.3   183  PHE183     -0.1227
     83  CA        20.4800   -0.3820  -13.6290 C.3   183  PHE183      0.1736
     84  C         19.2140    0.0710  -14.3470 C.2   183  PHE183      0.2595
     85  O         18.5000    0.9470  -13.8640 O.2   183  PHE183     -0.2718
     86  CB        21.7100    0.0560  -14.4250 C.3   183  PHE183      0.0547
     87  CG        21.7710    1.5350  -14.6810 C.ar  183  PHE183     -0.0202
     88  CD1       22.3090    2.3910  -13.7360 C.ar  183  PHE183     -0.0042
     89  CD2       21.2930    2.0700  -15.8670 C.ar  183  PHE183     -0.0042
     90  CE1       22.3680    3.7510  -13.9670 C.ar  183  PHE183     -0.0003
     91  CE2       21.3490    3.4290  -16.1010 C.ar  183  PHE183     -0.0003
     92  CZ        21.8880    4.2710  -15.1500 C.ar  183  PHE183     -0.0000
     93  N         18.9410   -0.5330  -15.4990 N.am  184  GLN184     -0.1979
     94  CA        17.8300   -0.1050  -16.3410 C.3   184  GLN184      0.1601
     95  C         16.4700   -0.4020  -15.7170 C.2   184  GLN184      0.2287
     96  O         15.5650    0.4300  -15.7690 O.2   184  GLN184     -0.2864
     97  CB        17.9220   -0.7630  -17.7180 C.3   184  GLN184      0.0394
     98  CG        16.9810   -0.1540  -18.7440 C.3   184  GLN184      0.0908
     99  CD        17.1530    1.3490  -18.8670 C.2   184  GLN184      0.2608
    100  OE1       18.2660    1.8470  -19.0240 O.2   184  GLN184     -0.2717
    101  NE2       16.0470    2.0790  -18.7890 N.am  184  GLN184     -0.0878
    102  N         16.0390    2.0250  -13.1290 N.3   187  ASP187     -0.1239
    103  CA        15.8790    3.3310  -13.7570 C.3   187  ASP187      0.1674
    104  C         14.4570    3.5260  -14.2720 C.2   187  ASP187      0.2266
    105  O         13.8920    4.6130  -14.1620 O.2   187  ASP187     -0.2867
    106  CB        16.8850    3.4950  -14.8970 C.3   187  ASP187      0.1410
    107  CG        16.8530    4.8780  -15.5100 C.2   187  ASP187      0.3668
    108  OD1       17.4790    5.7940  -14.9420 O.co2 187  ASP187     -0.2456
    109  OD2       16.2090    5.0450  -16.5650 O.co2 187  ASP187     -0.2456
    110  N         11.5910    5.9160  -12.2440 N.3   191  ASN191     -0.1240
    111  CA        11.0180    6.9770  -13.0630 C.3   191  ASN191      0.1653
    112  C          9.5580    7.2420  -12.7140 C.2   191  ASN191      0.2266
    113  O          9.0790    8.3730  -12.8180 O.2   191  ASN191     -0.2867
    114  CB        11.1410    6.6310  -14.5470 C.3   191  ASN191      0.1155
    115  CG        10.8090    7.8050  -15.4490 C.2   191  ASN191      0.2627
    116  OD1        9.6420    8.0720  -15.7370 O.2   191  ASN191     -0.2716
    117  ND2       11.8390    8.5130  -15.9010 N.am  191  ASN191     -0.0877
    118  N         13.5370   11.5540   -9.0280 N.3   197  TYR197     -0.1241
    119  CA        13.3690   11.3960  -10.4710 C.3   197  TYR197      0.1605
    120  C         12.2840   12.3330  -10.9940 C.2   197  TYR197      0.2264
    121  O         12.3410   12.7890  -12.1350 O.2   197  TYR197     -0.2867
    122  CB        13.0320    9.9410  -10.8210 C.3   197  TYR197      0.0534
    123  CG        14.2250    9.0080  -10.8030 C.ar  197  TYR197     -0.0201
    124  CD1       14.6400    8.3530  -11.9560 C.ar  197  TYR197     -0.0009
    125  CD2       14.9400    8.7860   -9.6330 C.ar  197  TYR197     -0.0009
    126  CE1       15.7310    7.5010  -11.9430 C.ar  197  TYR197      0.0417
    127  CE2       16.0330    7.9380   -9.6110 C.ar  197  TYR197      0.0417
    128  CZ        16.4240    7.2970  -10.7680 C.ar  197  TYR197      0.1957
    129  OH        17.5100    6.4510  -10.7490 O.3   197  TYR197     -0.2866
    130  N         13.6300   15.0780  -13.7010 N.3   201  LYS201     -0.1245
    131  CA        13.1590   14.6640  -15.0200 C.3   201  LYS201      0.1561
    132  C         11.7150   15.0710  -15.3070 C.2   201  LYS201      0.2260
    133  O         11.3000   15.1420  -16.4660 O.2   201  LYS201     -0.2867
    134  CB        13.2950   13.1470  -15.1730 C.3   201  LYS201      0.0271
    135  CG        14.4440   12.6980  -16.0600 C.3   201  LYS201      0.0035
    136  CD        14.5540   11.1800  -16.0910 C.3   201  LYS201      0.0206
    137  CE        15.5840   10.7110  -17.1070 C.3   201  LYS201      0.1093
    138  NZ        15.2340   11.1110  -18.5020 N.3   201  LYS201     -0.1314
    139  N          8.1930   10.8890  -16.4690 N.3   205  GLU205     -0.1231
    140  CA         8.6930   11.2920  -17.7770 C.3   205  GLU205      0.1699
    141  C          8.5800   10.1670  -18.8090 C.2   205  GLU205      0.2592
    142  O          8.3440   10.4260  -19.9900 O.2   205  GLU205     -0.2718
    143  CB        10.1440   11.7640  -17.6600 C.3   205  GLU205      0.0402
    144  CG        10.8190   12.0790  -18.9830 C.3   205  GLU205      0.1161
    145  CD        11.8610   11.0420  -19.3600 C.2   205  GLU205      0.3649
    146  OE1       12.3980   10.3780  -18.4470 O.co2 205  GLU205     -0.2457
    147  OE2       12.1360   10.8880  -20.5670 O.co2 205  GLU205     -0.2457
    148  N          8.7220    8.9230  -18.3570 N.am  206  ASP206     -0.1974
    149  CA         8.6330    7.7700  -19.2490 C.3   206  ASP206      0.1709
    150  C          7.2540    7.6280  -19.8880 C.2   206  ASP206      0.2293
    151  O          7.1300    7.0950  -20.9900 O.2   206  ASP206     -0.2864
    152  CB         8.9820    6.4800  -18.5000 C.3   206  ASP206      0.1436
    153  CG        10.4760    6.2920  -18.3200 C.2   206  ASP206      0.3671
    154  OD1       11.2540    7.0300  -18.9550 O.co2 206  ASP206     -0.2456
    155  OD2       10.8720    5.3960  -17.5480 O.co2 206  ASP206     -0.2456
    156  N          7.3260    9.8570  -22.8190 N.3   209  GLU209     -0.1245
    157  CA         8.1590    9.2060  -23.8160 C.3   209  GLU209      0.1567
    158  C          7.4080    8.0560  -24.4740 C.2   209  GLU209      0.2260
    159  O          7.4510    7.8900  -25.6910 O.2   209  GLU209     -0.2867
    160  CB         9.4560    8.6990  -23.1810 C.3   209  GLU209      0.0388
    161  CG        10.2880    7.8250  -24.0990 C.3   209  GLU209      0.1160
    162  CD        11.5160    7.2620  -23.4120 C.2   209  GLU209      0.3649
    163  OE1       11.9040    7.7960  -22.3530 O.co2 209  GLU209     -0.2457
    164  OE2       12.0870    6.2810  -23.9290 O.co2 209  GLU209     -0.2457
    165  N          7.8400    4.8180  -23.4560 N.3   211  LYS211     -0.1245
    166  CA         8.6900    3.6340  -23.4360 C.3   211  LYS211      0.1561
    167  C          7.9610    2.4750  -22.7740 C.2   211  LYS211      0.2260
    168  O          7.0250    2.6790  -21.9990 O.2   211  LYS211     -0.2867
    169  CB        10.0080    3.9100  -22.7090 C.3   211  LYS211      0.0271
    170  CG         9.9300    3.7890  -21.1930 C.3   211  LYS211      0.0035
    171  CD        11.3070    3.5320  -20.6050 C.3   211  LYS211      0.0206
    172  CE        12.2890    4.6130  -21.0180 C.3   211  LYS211      0.1093
    173  NZ        13.6820    4.2550  -20.6480 N.3   211  LYS211     -0.1314
@<TRIPOS>BOND
     1    33    34    1
     2    25    26    1
     3    34    35    1
     4    34    37    1
     5    12    11    1
     6    12    15    1
     7    12    13    1
     8    39    38   ar
     9   159   158    2
    10    26    27    1
    11    26    29    1
    12    35    36    2
    13    28    27    2
    14    14    13    2
    15    15    16    1
    16    62    59    1
    17    62    63    1
    18    13    17   am
    19    58    59    1
    20    59    60    1
    21    38    37    1
    22    38    40   ar
    23   158   157    1
    24    29    30    1
    25   161   162    1
    26   161   160    1
    27    31    30   ar
    28    64    63    1
    29    64    65    1
    30    19    20    2
    31    19    18    1
    32   164   162   ar
    33    17    18    1
    34    41    42    1
    35   157   160    1
    36   157   156    1
    37    30    32   ar
    38    60    61    2
    39    60    67   am
    40   165   166    1
    41   166   167    1
    42   166   169    1
    43   162   163   ar
    44    18    21    1
    45    66    65    1
    46     1     2    1
    47   167   168    2
    48    80    79    1
    49   169   170    1
    50    44    43    2
    51    67    68    1
    52    42    43    1
    53    42    45    1
    54     4     3    2
    55    74    75    1
    56     3     2    1
    57     2     5    1
    58    46    45    1
    59    21    22    1
    60    75    78    1
    61    75    76    1
    62    81    79    1
    63    79    78    1
    64    68    69    1
    65    68    71    1
    66   170   171    1
    67   172   173    1
    68   172   171    1
    69   151   150    2
    70    22    24    1
    71    22    23    1
    72    76    77    2
    73    69    70    2
    74    73    71    1
    75   147   145   ar
    76     5     6    1
    77    71    72    1
    78   142   141    2
    79   150   149    1
    80     6     8   ar
    81     6     7   ar
    82     8    10   ar
    83    57    55    1
    84   145   144    1
    85   145   146   ar
    86   149   152    1
    87   149   148    1
    88   100    99    2
    89   144   143    1
    90   154   153   ar
    91    99   101   am
    92    99    98    1
    93   141   148   am
    94   141   140    1
    95    98    97    1
    96     7     9   ar
    97    53    54    1
    98    53    52    1
    99    10     9   ar
   100   138   137    1
   101   152   153    1
   102    55    54    2
   103    55    56    1
   104   153   155   ar
   105    51    52    1
   106    51    48    1
   107   140   143    1
   108   140   139    1
   109    97    94    1
   110    47    48    1
   111    48    49    1
   112   137   136    1
   113   109   107   ar
   114   133   132    2
   115    94    95    1
   116    94    93    1
   117    91    89   ar
   118    91    92   ar
   119   136   135    1
   120   135   134    1
   121    50    49    2
   122   117   115   am
   123    89    87   ar
   124    96    95    2
   125   116   115    2
   126   107   108   ar
   127   107   106    1
   128    93    84   am
   129   115   114    1
   130   132   131    1
   131   134   131    1
   132    92    90   ar
   133   131   130    1
   134   106   103    1
   135    87    86    1
   136    87    88   ar
   137   114   111    1
   138    86    83    1
   139    84    85    2
   140    84    83    1
   141   104   105    2
   142   104   103    1
   143    90    88   ar
   144   103   102    1
   145    83    82    1
   146   111   112    1
   147   111   110    1
   148   113   112    2
   149   121   120    2
   150   124   126   ar
   151   124   123   ar
   152   126   128   ar
   153   120   119    1
   154   122   123    1
   155   122   119    1
   156   123   125   ar
   157   128   129    1
   158   128   127   ar
   159   119   118    1
   160   125   127   ar
