@<TRIPOS>MOLECULE
tmp/5erpA05.pdb
 74 67 0 0 0
SMALL
GASTEIGER

@<TRIPOS>ATOM
      1  N        -59.1330  -27.4770   19.3390 N.3   240  ILE240     -0.1245
      2  CA       -59.7810  -27.2180   20.6140 C.3   240  ILE240      0.1561
      3  C        -60.3020  -25.7890   20.6040 C.2   240  ILE240      0.2260
      4  O        -59.5280  -24.8340   20.5410 O.2   240  ILE240     -0.2867
      5  CB       -58.8240  -27.4200   21.8020 C.3   240  ILE240      0.0252
      6  CG1      -58.3390  -28.8720   21.8370 C.3   240  ILE240      0.0019
      7  CG2      -59.4950  -26.9920   23.1070 C.3   240  ILE240      0.0019
      8  CD1      -57.4100  -29.1930   22.9860 C.3   240  ILE240      0.0001
      9  N        -63.0620  -23.0130   22.6080 N.3   242  THR242     -0.1218
     10  CA       -63.5120  -22.7710   23.9710 C.3   242  THR242      0.1862
     11  C        -64.6960  -21.8220   23.9980 C.2   242  THR242      0.2287
     12  O        -64.8150  -20.9270   23.1600 O.2   242  THR242     -0.2866
     13  CB       -62.3800  -22.1820   24.8370 C.3   242  THR242      0.1770
     14  OG1      -61.8980  -20.9710   24.2410 O.3   242  THR242     -0.2211
     15  CG2      -61.2290  -23.1730   24.9680 C.3   242  THR242      0.0375
     16  N        -67.7270  -35.0880   37.9100 N.3   304  THR304     -0.1203
     17  CA       -67.4500  -35.5470   36.5530 C.3   304  THR304      0.1994
     18  C        -66.6380  -34.4900   35.8170 C.2   304  THR304      0.2618
     19  O        -65.9750  -34.7790   34.8210 O.2   304  THR304     -0.2717
     20  CB       -68.7400  -35.8270   35.7640 C.3   304  THR304      0.1784
     21  OG1      -69.4150  -34.5930   35.4910 O.3   304  THR304     -0.2211
     22  CG2      -69.6610  -36.7550   36.5420 C.3   304  THR304      0.0376
     23  N        -66.6990  -33.2620   36.3240 N.am  305  ILE305     -0.1965
     24  CA       -65.9250  -32.1560   35.7820 C.3   305  ILE305      0.1727
     25  C        -64.6010  -32.0460   36.5270 C.2   305  ILE305      0.2616
     26  O        -64.5200  -32.3780   37.7090 O.2   305  ILE305     -0.2715
     27  CB       -66.6880  -30.8200   35.9000 C.3   305  ILE305      0.0290
     28  CG1      -68.0950  -30.9490   35.3090 C.3   305  ILE305      0.0022
     29  CG2      -65.9130  -29.6990   35.2320 C.3   305  ILE305      0.0023
     30  CD1      -68.1290  -31.4290   33.8700 C.3   305  ILE305      0.0001
     31  N        -63.5650  -31.5920   35.8290 N.am  306  LYS306     -0.1963
     32  CA       -62.2960  -31.2580   36.4640 C.3   306  LYS306      0.1728
     33  C        -61.8320  -29.8980   35.9430 C.2   306  LYS306      0.2616
     34  O        -62.0030  -29.5900   34.7640 O.2   306  LYS306     -0.2715
     35  CB       -61.2340  -32.3340   36.2070 C.3   306  LYS306      0.0311
     36  CG       -61.3630  -33.5660   37.1070 C.3   306  LYS306      0.0038
     37  CD       -62.3000  -34.6120   36.5050 C.3   306  LYS306      0.0206
     38  CE       -62.5100  -35.7980   37.4370 C.3   306  LYS306      0.1093
     39  NZ       -63.4800  -36.7790   36.8720 N.3   306  LYS306     -0.1314
     40  N        -61.2670  -29.0900   36.8370 N.am  307  ASN307     -0.1972
     41  CA       -60.7800  -27.7490   36.5120 C.3   307  ASN307      0.1688
     42  C        -61.8950  -26.8070   36.0600 C.2   307  ASN307      0.2292
     43  O        -61.6310  -25.7670   35.4570 O.2   307  ASN307     -0.2864
     44  CB       -59.6940  -27.8090   35.4300 C.3   307  ASN307      0.1181
     45  CG       -58.4860  -28.6150   35.8620 C.2   307  ASN307      0.2629
     46  OD1      -57.9480  -29.4100   35.0900 O.2   307  ASN307     -0.2716
     47  ND2      -58.0510  -28.4140   37.1000 N.am  307  ASN307     -0.0877
     48  N        -64.0330  -27.1540   33.7510 N.3   309  ILE309     -0.1245
     49  CA       -64.2060  -27.1300   32.2990 C.3   309  ILE309      0.1561
     50  C        -64.9610  -28.3830   31.8720 C.2   309  ILE309      0.2260
     51  O        -64.5930  -29.4940   32.2500 O.2   309  ILE309     -0.2867
     52  CB       -62.8520  -27.0830   31.5390 C.3   309  ILE309      0.0252
     53  CG1      -61.7800  -26.3400   32.3430 C.3   309  ILE309      0.0019
     54  CG2      -63.0580  -26.5270   30.1290 C.3   309  ILE309      0.0019
     55  CD1      -62.0050  -24.8620   32.4830 C.3   309  ILE309      0.0001
     56  N        -66.1780  -30.6910   28.8970 N.3   311  ASN311     -0.1240
     57  CA       -65.8150  -31.0150   27.5220 C.3   311  ASN311      0.1653
     58  C        -66.6450  -32.0540   26.8020 C.2   311  ASN311      0.2266
     59  O        -66.8500  -33.1690   27.2880 O.2   311  ASN311     -0.2867
     60  CB       -64.3910  -31.5230   27.4750 C.3   311  ASN311      0.1155
     61  CG       -63.3880  -30.5760   28.0510 C.2   311  ASN311      0.2627
     62  OD1      -63.5210  -29.3610   27.9340 O.2   311  ASN311     -0.2716
     63  ND2      -62.3210  -31.1180   28.5600 N.am  311  ASN311     -0.0877
     64  N        -62.7960  -30.5860   19.7400 N.3   327  THR327     -0.1218
     65  CA       -63.0900  -30.5750   21.1640 C.3   327  THR327      0.1862
     66  C        -63.5950  -29.2050   21.5890 C.2   327  THR327      0.2287
     67  O        -62.9250  -28.1930   21.3880 O.2   327  THR327     -0.2866
     68  CB       -61.8530  -30.9490   21.9960 C.3   327  THR327      0.1770
     69  OG1      -61.3910  -32.2480   21.6090 O.3   327  THR327     -0.2211
     70  CG2      -62.1850  -30.9530   23.4790 C.3   327  THR327      0.0375
     71  N        -64.4520  -26.9100   24.6670 N.3   329  GLY329     -0.1225
     72  CA       -64.2410  -26.7130   26.0870 C.3   329  GLY329      0.1811
     73  C        -65.1970  -25.6760   26.6350 C.2   329  GLY329      0.2280
     74  O        -65.0800  -24.4910   26.3260 O.2   329  GLY329     -0.2866
@<TRIPOS>BOND
     1     1     2    1
     2    64    65    1
     3     4     3    2
     4     3     2    1
     5     2     5    1
     6    65    66    1
     7    65    68    1
     8    67    66    2
     9    69    68    1
    10     5     6    1
    11     5     7    1
    12     6     8    1
    13    68    70    1
    14     9    10    1
    15    12    11    2
    16    10    11    1
    17    10    13    1
    18    14    13    1
    19    71    72    1
    20    13    15    1
    21    72    73    1
    22    74    73    2
    23    58    59    2
    24    58    57    1
    25    60    57    1
    26    60    61    1
    27    57    56    1
    28    62    61    2
    29    61    63   am
    30    54    52    1
    31    52    49    1
    32    52    53    1
    33    50    51    2
    34    50    49    1
    35    49    48    1
    36    53    55    1
    37    30    28    1
    38    34    33    2
    39    19    18    2
    40    46    45    2
    41    29    27    1
    42    28    27    1
    43    44    45    1
    44    44    41    1
    45    43    42    2
    46    21    20    1
    47    20    22    1
    48    20    17    1
    49    24    27    1
    50    24    23    1
    51    24    25    1
    52    18    23   am
    53    18    17    1
    54    31    32    1
    55    31    25   am
    56    45    47   am
    57    33    32    1
    58    33    40   am
    59    42    41    1
    60    35    32    1
    61    35    36    1
    62    37    36    1
    63    37    38    1
    64    41    40    1
    65    25    26    2
    66    17    16    1
    67    39    38    1
