@<TRIPOS>MOLECULE
tmp/5erqA01.pdb
 69 67 0 0 0
SMALL
GASTEIGER

@<TRIPOS>ATOM
      1  N          1.7580  132.0650  153.1370 N.3    52  PRO52      -0.2116
      2  CA         1.0690  130.7760  153.1540 C.3    52  PRO52       0.1372
      3  C         -0.3790  130.9650  152.7440 C.2    52  PRO52       0.2244
      4  O         -1.0320  131.8740  153.2770 O.2    52  PRO52      -0.2868
      5  CB         1.1840  130.3330  154.6150 C.3    52  PRO52       0.0268
      6  CG         1.3060  131.5970  155.3680 C.3    52  PRO52       0.0207
      7  CD         2.1230  132.5160  154.4870 C.3    52  PRO52       0.0892
      8  N         -3.8110  140.8730  154.2340 N.3    81  GLN81      -0.1245
      9  CA        -3.0700  140.2410  155.3100 C.3    81  GLN81       0.1566
     10  C         -3.9060  140.2510  156.5930 C.2    81  GLN81       0.2260
     11  O         -4.3420  141.3100  157.0550 O.2    81  GLN81      -0.2867
     12  CB        -1.7340  140.9680  155.5190 C.3    81  GLN81       0.0367
     13  CG        -0.7170  140.2020  156.3480 C.3    81  GLN81       0.0905
     14  CD        -0.2640  138.9170  155.6810 C.2    81  GLN81       0.2608
     15  OE1        0.1230  138.9080  154.5110 O.2    81  GLN81      -0.2717
     16  NE2       -0.3120  137.8200  156.4260 N.am   81  GLN81      -0.0878
     17  N         -3.0520  132.5020  155.3160 N.3   100  ILE100     -0.1231
     18  CA        -3.3180  131.8370  156.5830 C.3   100  ILE100      0.1678
     19  C         -2.9200  132.7550  157.7380 C.2   100  ILE100      0.2434
     20  O         -1.8000  133.2810  157.7530 O.2   100  ILE100     -0.2733
     21  CB        -2.5470  130.5120  156.6790 C.3   100  ILE100      0.0265
     22  CG1       -2.7980  129.6570  155.4370 C.3   100  ILE100      0.0019
     23  CG2       -2.8880  129.7810  157.9750 C.3   100  ILE100      0.0020
     24  CD1       -4.2340  129.3620  155.1520 C.3   100  ILE100      0.0001
     25  N         -3.8290  132.9770  158.6930 N.am  101  PRO101     -0.2718
     26  CA        -3.4870  133.8430  159.8190 C.3   101  PRO101      0.1535
     27  C         -2.4900  133.2230  160.7790 C.2   101  PRO101      0.2599
     28  O         -2.3870  131.9920  160.8450 O.2   101  PRO101     -0.2715
     29  CB        -4.8090  134.0270  160.5270 C.3   101  PRO101      0.0310
     30  CG        -5.5360  132.7410  160.2630 C.3   101  PRO101      0.0237
     31  CD        -5.1950  132.4550  158.8160 C.3   101  PRO101      0.0939
     32  N         -1.8050  134.0800  161.5310 N.am  102  CYS102     -0.1954
     33  CA        -1.0080  133.6320  162.6700 C.3   102  CYS102      0.1843
     34  C         -1.8240  132.7530  163.5930 C.2   102  CYS102      0.2626
     35  O         -2.9950  133.0260  163.8300 O.2   102  CYS102     -0.2714
     36  CB        -0.4770  134.8330  163.4460 C.3   102  CYS102      0.0997
     37  SG         0.7170  135.7900  162.4810 S.3   102  CYS102     -0.0797
     38  N         -1.2100  131.6970  164.1160 N.am  103  GLY103     -0.1940
     39  CA        -1.8560  130.8660  165.1140 C.3   103  GLY103      0.2014
     40  C         -2.5000  129.6360  164.5030 C.2   103  GLY103      0.2639
     41  O         -2.7040  128.6420  165.1790 O.2   103  GLY103     -0.2714
     42  N         -2.8180  129.6860  163.2060 N.am  104  ALA104     -0.1963
     43  CA        -3.4020  128.5210  162.5530 C.3   104  ALA104      0.1728
     44  C         -2.3350  127.7410  161.8220 C.2   104  ALA104      0.2616
     45  O         -1.3280  128.3190  161.3820 O.2   104  ALA104     -0.2715
     46  CB        -4.4920  128.9420  161.5880 C.3   104  ALA104      0.0334
     47  N         -2.5320  126.4300  161.7090 N.am  105  ASP105     -0.1971
     48  CA        -1.5510  125.5730  161.0460 C.3   105  ASP105      0.1709
     49  C         -2.1450  124.5870  160.0640 C.2   105  ASP105      0.2293
     50  O         -1.4300  123.7740  159.4770 O.2   105  ASP105     -0.2864
     51  CB        -0.7490  124.8200  162.1100 C.3   105  ASP105      0.1436
     52  CG        -1.6500  124.1420  163.1230 C.2   105  ASP105      0.3671
     53  OD1       -2.5100  123.3400  162.7020 O.co2 105  ASP105     -0.2456
     54  OD2       -1.5300  124.4410  164.3270 O.co2 105  ASP105     -0.2456
     55  N         -2.8910  123.9090  152.8870 N.3   140  ILE140     -0.1245
     56  CA        -2.1210  125.1430  152.8320 C.3   140  ILE140      0.1561
     57  C         -0.9880  125.0080  151.8180 C.2   140  ILE140      0.2260
     58  O         -0.3170  123.9900  151.8010 O.2   140  ILE140     -0.2867
     59  CB        -1.5500  125.4950  154.2070 C.3   140  ILE140      0.0252
     60  CG1       -2.7110  125.7850  155.1740 C.3   140  ILE140      0.0019
     61  CG2       -0.5960  126.6760  154.1300 C.3   140  ILE140      0.0019
     62  CD1       -2.2790  125.9110  156.5990 C.3   140  ILE140      0.0001
     63  N          2.5160  126.3660  151.2800 N.3   142  PRO142     -0.2116
     64  CA         3.4960  127.1600  152.0190 C.3   142  PRO142      0.1372
     65  C          4.1900  128.1730  151.1110 C.2   142  PRO142      0.2244
     66  O          4.1370  128.0230  149.8860 O.2   142  PRO142     -0.2868
     67  CB         4.5040  126.1250  152.5090 C.3   142  PRO142      0.0268
     68  CG         3.8190  124.8060  152.3430 C.3   142  PRO142      0.0207
     69  CD         2.9140  124.9540  151.1940 C.3   142  PRO142      0.0892
@<TRIPOS>BOND
     1    66    65    2
     2    65    64    1
     3    69    63    1
     4    69    68    1
     5    63    64    1
     6    58    57    2
     7    57    56    1
     8    64    67    1
     9    68    67    1
    10     3     2    1
    11     3     4    2
    12    56    55    1
    13    56    59    1
    14     1     2    1
    15     1     7    1
    16     2     5    1
    17    61    59    1
    18    59    60    1
    19     8     9    1
    20     7     6    1
    21    15    14    2
    22     5     6    1
    23    24    22    1
    24    60    62    1
    25     9    12    1
    26     9    10    1
    27    17    18    1
    28    22    21    1
    29    12    13    1
    30    14    13    1
    31    14    16   am
    32    18    21    1
    33    18    19    1
    34    10    11    2
    35    21    23    1
    36    19    20    2
    37    19    25   am
    38    25    31    1
    39    25    26    1
    40    31    30    1
    41    50    49    2
    42    26    29    1
    43    26    27    1
    44    49    48    1
    45    30    29    1
    46    27    28    2
    47    27    32   am
    48    48    47    1
    49    48    51    1
    50    45    44    2
    51    32    33    1
    52    46    43    1
    53    47    44   am
    54    44    43    1
    55    51    52    1
    56    37    36    1
    57    43    42    1
    58    33    36    1
    59    33    34    1
    60    53    52   ar
    61    52    54   ar
    62    42    40   am
    63    34    35    2
    64    34    38   am
    65    38    39    1
    66    40    39    1
    67    40    41    2
