@<TRIPOS>MOLECULE
tmp/5ersA00.pdb
 140 134 0 0 0
SMALL
GASTEIGER

@<TRIPOS>ATOM
      1  N         96.2430  140.5430  204.9750 N.3   187  SER187     -0.1202
      2  CA        95.9620  139.7410  203.8090 C.3   187  SER187      0.2020
      3  C         96.7660  140.2800  202.6430 C.2   187  SER187      0.2619
      4  O         97.1720  141.4480  202.6230 O.2   187  SER187     -0.2717
      5  CB        94.4740  139.7750  203.5190 C.3   187  SER187      0.2103
      6  OG        93.7730  138.9290  204.4050 O.3   187  SER187     -0.2182
      7  N         97.0270  139.4130  201.6830 N.am  188  THR188     -0.1952
      8  CA        97.7560  139.8190  200.4910 C.3   188  THR188      0.1897
      9  C         97.0370  139.3750  199.2380 C.2   188  THR188      0.2313
     10  O         96.4310  138.3030  199.1880 O.2   188  THR188     -0.2863
     11  CB        99.2160  139.2680  200.4640 C.3   188  THR188      0.1794
     12  OG1       99.2240  137.8620  200.1280 O.3   188  THR188     -0.2208
     13  CG2       99.9070  139.4880  201.7880 C.3   188  THR188      0.0378
     14  N         93.7000  140.5160  194.0530 N.3   191  GLU191     -0.1231
     15  CA        92.3380  140.1030  193.8050 C.3   191  GLU191      0.1699
     16  C         91.3870  140.3880  194.9620 C.2   191  GLU191      0.2592
     17  O         90.1960  140.1570  194.8310 O.2   191  GLU191     -0.2718
     18  CB        92.2890  138.6040  193.4560 C.3   191  GLU191      0.0402
     19  CG        92.3090  137.6140  194.6310 C.3   191  GLU191      0.1161
     20  CD        93.7110  137.3820  195.1840 C.2   191  GLU191      0.3649
     21  OE1       94.6460  138.1420  194.8500 O.co2 191  GLU191     -0.2457
     22  OE2       93.8700  136.4470  195.9880 O.co2 191  GLU191     -0.2457
     23  N         91.8980  140.8970  196.0770 N.am  192  LEU192     -0.1980
     24  CA        91.0800  140.9860  197.2690 C.3   192  LEU192      0.1596
     25  C         90.3930  142.3350  197.4800 C.2   192  LEU192      0.2287
     26  O         90.9900  143.4380  197.2990 O.2   192  LEU192     -0.2864
     27  CB        91.9110  140.6800  198.5170 C.3   192  LEU192      0.0297
     28  CG        92.5900  139.3070  198.5640 C.3   192  LEU192      0.0022
     29  CD1       93.4310  139.2410  199.8180 C.3   192  LEU192      0.0001
     30  CD2       91.5970  138.1160  198.5120 C.3   192  LEU192      0.0001
     31  N         87.5300  139.0110  194.5690 N.3   204  ILE204     -0.1231
     32  CA        86.7990  138.3030  195.6070 C.3   204  ILE204      0.1692
     33  C         86.9630  139.0320  196.9280 C.2   204  ILE204      0.2592
     34  O         87.8380  139.8950  197.0760 O.2   204  ILE204     -0.2718
     35  CB        87.2630  136.8520  195.7830 C.3   204  ILE204      0.0266
     36  CG1       88.7500  136.7870  196.1620 C.3   204  ILE204      0.0019
     37  CG2       86.9810  136.0660  194.5070 C.3   204  ILE204      0.0020
     38  CD1       89.2200  135.4180  196.6340 C.3   204  ILE204      0.0001
     39  N         86.1490  138.6710  197.9120 N.am  205  ARG205     -0.1966
     40  CA        86.3080  139.2900  199.2130 C.3   205  ARG205      0.1729
     41  C         87.3590  138.5550  200.0460 C.2   205  ARG205      0.2616
     42  O         87.4890  137.3470  200.0250 O.2   205  ARG205     -0.2715
     43  CB        84.9710  139.3450  199.9560 C.3   205  ARG205      0.0348
     44  CG        83.9630  140.2520  199.2730 C.3   205  ARG205      0.0492
     45  CD        82.7130  140.3780  200.0920 C.3   205  ARG205      0.2205
     46  NE        81.6870  141.0660  199.3330 N.pl3 205  ARG205     -0.0865
     47  CZ        80.8380  140.4760  198.4980 C.cat 205  ARG205      0.5346
     48  NH1       80.8320  139.1610  198.3310 N.pl3 205  ARG205      0.1354
     49  NH2       79.9830  141.2200  197.8310 N.pl3 205  ARG205      0.1354
     50  N         88.1220  139.3480  200.7730 N.am  206  ASP206     -0.1957
     51  CA        89.0550  138.8870  201.7700 C.3   206  ASP206      0.1840
     52  C         88.3400  138.2680  202.9550 C.2   206  ASP206      0.2623
     53  O         87.7060  138.9740  203.7140 O.2   206  ASP206     -0.2715
     54  CB        89.8770  140.1100  202.1870 C.3   206  ASP206      0.1450
     55  CG        90.8510  139.8520  203.3160 C.2   206  ASP206      0.3671
     56  OD1       91.0870  138.7000  203.7500 O.co2 206  ASP206     -0.2456
     57  OD2       91.3900  140.8770  203.7790 O.co2 206  ASP206     -0.2456
     58  N         88.4940  136.9720  203.1400 N.am  207  SER207     -0.1936
     59  CA        87.9200  136.3070  204.3000 C.3   207  SER207      0.2055
     60  C         88.9820  135.9460  205.3340 C.2   207  SER207      0.2643
     61  O         88.6550  135.8870  206.5220 O.2   207  SER207     -0.2714
     62  CB        87.1650  135.0670  203.8880 C.3   207  SER207      0.2130
     63  OG        88.0240  134.0940  203.3210 O.3   207  SER207     -0.2179
     64  N         90.2230  135.6640  204.9190 N.am  208  ASN208     -0.1971
     65  CA        91.2170  135.1700  205.8690 C.3   208  ASN208      0.1688
     66  C         91.4770  136.1330  206.9810 C.2   208  ASN208      0.2292
     67  O         91.6550  135.7160  208.1200 O.2   208  ASN208     -0.2864
     68  CB        92.5580  134.8620  205.1960 C.3   208  ASN208      0.1181
     69  CG        92.4720  133.7720  204.1940 C.2   208  ASN208      0.2629
     70  OD1       91.5260  132.9920  204.1760 O.2   208  ASN208     -0.2716
     71  ND2       93.4930  133.6790  203.3650 N.am  208  ASN208     -0.0877
     72  N        100.1460  142.6760  195.7120 N.3   231  ASP231     -0.1239
     73  CA       101.2310  141.7690  195.3450 C.3   231  ASP231      0.1674
     74  C        102.3750  142.5530  194.7610 C.2   231  ASP231      0.2266
     75  O        102.6180  142.4950  193.5530 O.2   231  ASP231     -0.2867
     76  CB       100.7630  140.7280  194.3200 C.3   231  ASP231      0.1410
     77  CG        99.6510  139.8400  194.8630 C.2   231  ASP231      0.3668
     78  OD1       99.8470  139.3270  195.9990 O.co2 231  ASP231     -0.2456
     79  OD2       98.5990  139.6560  194.1700 O.co2 231  ASP231     -0.2456
     80  N         98.5970  136.0650  205.0760 N.3   253  SER253     -0.1202
     81  CA        98.1670  134.9260  204.2930 C.3   253  SER253      0.2020
     82  C         98.3150  135.2670  202.8300 C.2   253  SER253      0.2619
     83  O         98.2990  136.4460  202.4260 O.2   253  SER253     -0.2717
     84  CB        96.7300  134.5030  204.6300 C.3   253  SER253      0.2103
     85  OG        95.7670  135.4250  204.1810 O.3   253  SER253     -0.2182
     86  N         98.4890  134.2210  202.0280 N.am  254  GLY254     -0.1942
     87  CA        98.6540  134.3850  200.6030 C.3   254  GLY254      0.2014
     88  C        100.0780  134.7310  200.1950 C.2   254  GLY254      0.2639
     89  O        100.9430  134.9740  201.0280 O.2   254  GLY254     -0.2714
     90  N        100.3290  134.7520  198.8950 N.am  255  GLY255     -0.1939
     91  CA       101.6400  135.1680  198.4040 C.3   255  GLY255      0.2014
     92  C        102.7890  134.2010  198.6440 C.2   255  GLY255      0.2639
     93  O        103.9490  134.5710  198.4400 O.2   255  GLY255     -0.2714
     94  N        102.4850  132.9560  199.0130 N.am  256  VAL256     -0.1963
     95  CA       103.5220  131.9940  199.4070 C.3   256  VAL256      0.1727
     96  C        103.5880  130.7280  198.5490 C.2   256  VAL256      0.2616
     97  O        104.3810  129.8230  198.8210 O.2   256  VAL256     -0.2715
     98  CB       103.3730  131.5810  200.8720 C.3   256  VAL256      0.0290
     99  CG1      103.8530  132.7080  201.7540 C.3   256  VAL256      0.0023
    100  CG2      101.9310  131.1680  201.2150 C.3   256  VAL256      0.0023
    101  N        102.7920  130.6700  197.5030 N.am  257  SER257     -0.1950
    102  CA       102.9370  129.5730  196.5570 C.3   257  SER257      0.1924
    103  C        104.2050  129.7840  195.7560 C.2   257  SER257      0.2314
    104  O        104.7330  130.8940  195.7030 O.2   257  SER257     -0.2863
    105  CB       101.7320  129.4780  195.6310 C.3   257  SER257      0.2116
    106  OG       100.5750  129.1460  196.3780 O.3   257  SER257     -0.2180
    107  N        104.2700  135.8130  193.6060 N.3   262  ASP262     -0.1239
    108  CA       104.2450  135.4590  195.0210 C.3   262  ASP262      0.1674
    109  C        105.6310  135.8650  195.5750 C.2   262  ASP262      0.2266
    110  O        106.6290  135.1610  195.3830 O.2   262  ASP262     -0.2867
    111  CB       103.9090  133.9640  195.2160 C.3   262  ASP262      0.1410
    112  CG       102.4310  133.6350  194.8960 C.2   262  ASP262      0.3668
    113  OD1      102.0690  133.6600  193.7020 O.co2 262  ASP262     -0.2456
    114  OD2      101.6290  133.3270  195.8180 O.co2 262  ASP262     -0.2456
    115  N        102.4380  125.3830  201.5520 N.3   288  PRO288     -0.2116
    116  CA       103.3580  126.5270  201.4380 C.3   288  PRO288      0.1372
    117  C        103.5970  127.3010  202.7240 C.2   288  PRO288      0.2244
    118  O        104.2140  128.3620  202.6600 O.2   288  PRO288     -0.2868
    119  CB       102.6750  127.4250  200.4090 C.3   288  PRO288      0.0268
    120  CG       101.2710  127.1360  200.5310 C.3   288  PRO288      0.0207
    121  CD       101.1020  125.7140  201.0270 C.3   288  PRO288      0.0892
    122  N         97.3220  131.1180  201.2220 N.3   308  GLY308     -0.1210
    123  CA        96.1880  131.9590  200.8830 C.3   308  GLY308      0.1956
    124  C         94.8490  131.2300  200.8910 C.2   308  GLY308      0.2612
    125  O         93.8060  131.8320  201.1570 O.2   308  GLY308     -0.2717
    126  N         94.8490  129.9260  200.5810 N.am  309  ASN309     -0.1960
    127  CA        93.5940  129.1940  200.5330 C.3   309  ASN309      0.1804
    128  C         92.9050  129.3260  201.9010 C.2   309  ASN309      0.2463
    129  O         93.5290  129.0540  202.9170 O.2   309  ASN309     -0.2730
    130  CB        93.7970  127.7210  200.1950 C.3   309  ASN309      0.1195
    131  CG        92.5110  126.9360  200.3160 C.2   309  ASN309      0.2630
    132  OD1       92.1510  126.4840  201.3900 O.2   309  ASN309     -0.2716
    133  ND2       91.7850  126.8210  199.2190 N.am  309  ASN309     -0.0877
    134  N         91.6260  129.7590  201.9260 N.am  310  PRO310     -0.2727
    135  CA        91.0520  130.0020  203.2570 C.3   310  PRO310      0.1402
    136  C         91.0220  128.8060  204.2190 C.2   310  PRO310      0.2269
    137  O         91.2010  129.0100  205.4310 O.2   310  PRO310     -0.2865
    138  CB        89.6140  130.4210  202.9300 C.3   310  PRO310      0.0296
    139  CG        89.7170  131.1060  201.6180 C.3   310  PRO310      0.0237
    140  CD        90.7710  130.3260  200.8610 C.3   310  PRO310      0.0939
@<TRIPOS>BOND
     1    18    15    1
     2    18    19    1
     3    75    74    2
     4   107   108    1
     5   113   112   ar
     6    15    14    1
     7    15    16    1
     8    79    77   ar
     9    76    77    1
    10    76    73    1
    11    37    35    1
    12    31    32    1
    13    19    20    1
    14    74    73    1
    15    17    16    2
    16    21    20   ar
    17    77    78   ar
    18   112   111    1
    19   112   114   ar
    20    16    23   am
    21   108   111    1
    22   108   109    1
    23    20    22   ar
    24    73    72    1
    25   110   109    2
    26    32    35    1
    27    32    33    1
    28   105   106    1
    29   105   102    1
    30   104   103    2
    31   103   102    1
    32    35    36    1
    33    23    24    1
    34    36    38    1
    35   102   101    1
    36    33    34    2
    37    33    39   am
    38    24    25    1
    39    24    27    1
    40    26    25    2
    41   101    96   am
    42    49    47    1
    43    39    40    1
    44    48    47    1
    45    91    92    1
    46    91    90    1
    47    93    92    2
    48    47    46    2
    49    30    28    1
    50    27    28    1
    51    96    97    2
    52    96    95    1
    53    28    29    1
    54    92    94   am
    55    90    88   am
    56    94    95    1
    57    10     9    2
    58    40    43    1
    59    40    41    1
    60   133   131   am
    61     9     8    1
    62    44    43    1
    63    44    45    1
    64    46    45    1
    65    95    98    1
    66    42    41    2
    67    41    50   am
    68    12    11    1
    69    88    87    1
    70    88    89    2
    71   130   131    1
    72   130   127    1
    73   131   132    2
    74   119   120    1
    75   119   116    1
    76    11     8    1
    77    11    13    1
    78     8     7    1
    79   120   121    1
    80   127   126    1
    81   127   128    1
    82   126   124   am
    83    87    86    1
    84    50    51    1
    85   140   139    1
    86   140   134    1
    87    98   100    1
    88    98    99    1
    89   123   124    1
    90   123   122    1
    91   124   125    2
    92   121   115    1
    93   116   115    1
    94   116   117    1
    95   139   138    1
    96     7     3   am
    97    51    54    1
    98    51    52    1
    99   128   134   am
   100   128   129    2
   101   134   135    1
   102    86    82   am
   103    54    55    1
   104    83    82    2
   105     4     3    2
   106     3     2    1
   107   118   117    2
   108    82    81    1
   109   138   135    1
   110    52    58   am
   111    52    53    2
   112    58    59    1
   113   135   136    1
   114    55    56   ar
   115    55    57   ar
   116    63    62    1
   117    71    69   am
   118     5     2    1
   119     5     6    1
   120     2     1    1
   121    62    59    1
   122    70    69    2
   123    85    84    1
   124    69    68    1
   125   136   137    2
   126    81    84    1
   127    81    80    1
   128    59    60    1
   129    64    60   am
   130    64    65    1
   131    68    65    1
   132    60    61    2
   133    65    66    1
   134    66    67    2
