@<TRIPOS>MOLECULE
tmp/5eruA00.pdb
 89 84 0 0 0
SMALL
GASTEIGER

@<TRIPOS>ATOM
      1  N         18.9800   18.0990  210.0260 N.3     8  MET8       -0.1230
      2  CA        18.0930   18.7540  210.9790 C.3     8  MET8        0.1702
      3  C         18.7590   18.8380  212.3400 C.2     8  MET8        0.2592
      4  O         18.7900   19.9020  212.9590 O.2     8  MET8       -0.2718
      5  CB        16.7640   18.0030  211.1070 C.3     8  MET8        0.0401
      6  CG        15.6290   18.5720  210.2800 C.3     8  MET8        0.0596
      7  SD        15.2420   20.2940  210.6650 S.3     8  MET8       -0.1393
      8  CE        14.7490   20.2210  212.3760 C.3     8  MET8        0.0692
      9  N         19.3020   17.7120  212.8000 N.am    9  ASP9       -0.1974
     10  CA        19.9000   17.6510  214.1250 C.3     9  ASP9        0.1709
     11  C         21.0470   18.6390  214.2500 C.2     9  ASP9        0.2293
     12  O         21.1400   19.3480  215.2480 O.2     9  ASP9       -0.2864
     13  CB        20.3930   16.2410  214.4410 C.3     9  ASP9        0.1436
     14  CG        19.2560   15.2550  214.6390 C.2     9  ASP9        0.3671
     15  OD1       18.1320   15.6930  214.9630 O.co2   9  ASP9       -0.2456
     16  OD2       19.4870   14.0410  214.4730 O.co2   9  ASP9       -0.2456
     17  N         19.6950   22.3160  214.2250 N.3    12  PHE12      -0.1241
     18  CA        19.0290   22.6780  215.4710 C.3    12  PHE12       0.1605
     19  C         20.0350   22.9310  216.6010 C.2    12  PHE12       0.2264
     20  O         19.9250   23.9280  217.3150 O.2    12  PHE12      -0.2867
     21  CB        18.0260   21.5950  215.8710 C.3    12  PHE12       0.0534
     22  CG        17.2660   21.9180  217.1190 C.ar   12  PHE12      -0.0203
     23  CD1       16.1480   22.7340  217.0700 C.ar   12  PHE12      -0.0042
     24  CD2       17.6760   21.4210  218.3420 C.ar   12  PHE12      -0.0042
     25  CE1       15.4540   23.0420  218.2130 C.ar   12  PHE12      -0.0003
     26  CE2       16.9810   21.7200  219.4910 C.ar   12  PHE12      -0.0003
     27  CZ        15.8720   22.5360  219.4270 C.ar   12  PHE12      -0.0000
     28  N         10.2060   25.5280  214.4650 N.3   319  LEU319     -0.1245
     29  CA        11.3210   24.6080  214.6960 C.3   319  LEU319      0.1561
     30  C         12.6070   25.2790  215.1670 C.2   319  LEU319      0.2260
     31  O         13.2920   24.7560  216.0540 O.2   319  LEU319     -0.2867
     32  CB        11.6080   23.8220  213.4150 C.3   319  LEU319      0.0270
     33  CG        10.5320   22.7990  213.0690 C.3   319  LEU319      0.0019
     34  CD1       10.6980   22.2880  211.6370 C.3   319  LEU319      0.0001
     35  CD2       10.5690   21.6280  214.0380 C.3   319  LEU319      0.0001
     36  N         14.4580   23.6510  224.6960 N.3   335  ARG335     -0.1231
     37  CA        13.8510   22.7210  223.7590 C.3   335  ARG335      0.1679
     38  C         12.3380   22.7240  223.8650 C.2   335  ARG335      0.2434
     39  O         11.7820   22.8410  224.9510 O.2   335  ARG335     -0.2733
     40  CB        14.3670   21.3130  224.0000 C.3   335  ARG335      0.0321
     41  CG        15.8400   21.1230  223.6770 C.3   335  ARG335      0.0489
     42  CD        16.2920   19.7160  224.0220 C.3   335  ARG335      0.2205
     43  NE        16.0780   19.4280  225.4360 N.pl3 335  ARG335     -0.0865
     44  CZ        16.1190   18.2180  225.9810 C.cat 335  ARG335      0.5346
     45  NH1       16.3660   17.1470  225.2330 N.pl3 335  ARG335      0.1354
     46  NH2       15.9070   18.0820  227.2820 N.pl3 335  ARG335      0.1354
     47  N         11.6580   22.5690  222.7270 N.am  336  PRO336     -0.2729
     48  CA        10.2020   22.5030  222.7670 C.3   336  PRO336      0.1401
     49  C          9.7540   21.1840  223.3600 C.2   336  PRO336      0.2269
     50  O         10.5220   20.2270  223.4060 O.2   336  PRO336     -0.2865
     51  CB         9.8120   22.6000  221.2980 C.3   336  PRO336      0.0296
     52  CG        10.9220   21.8630  220.6140 C.3   336  PRO336      0.0237
     53  CD        12.1820   22.1980  221.4010 C.3   336  PRO336      0.0939
     54  N          7.9460   17.8130  223.1880 N.3   338  ILE338     -0.1245
     55  CA         7.5750   16.8320  222.1930 C.3   338  ILE338      0.1561
     56  C          6.7990   15.7340  222.8770 C.2   338  ILE338      0.2260
     57  O          7.2500   15.1800  223.8850 O.2   338  ILE338     -0.2867
     58  CB         8.7970   16.2300  221.4920 C.3   338  ILE338      0.0252
     59  CG1        9.6070   17.3300  220.8030 C.3   338  ILE338      0.0019
     60  CG2        8.3650   15.1590  220.4810 C.3   338  ILE338      0.0019
     61  CD1       10.9060   16.8220  220.2540 C.3   338  ILE338      0.0001
     62  N          7.7290   17.7270  208.2740 N.3   355  TYR355     -0.1241
     63  CA         7.0330   18.4110  209.3600 C.3   355  TYR355      0.1605
     64  C          5.7260   18.9810  208.8490 C.2   355  TYR355      0.2264
     65  O          5.6870   19.5660  207.7680 O.2   355  TYR355     -0.2867
     66  CB         7.9180   19.5150  209.9460 C.3   355  TYR355      0.0534
     67  CG         9.2310   18.9710  210.4290 C.ar  355  TYR355     -0.0201
     68  CD1        9.3720   18.4960  211.7200 C.ar  355  TYR355     -0.0009
     69  CD2       10.3210   18.8750  209.5700 C.ar  355  TYR355     -0.0009
     70  CE1       10.5710   17.9570  212.1590 C.ar  355  TYR355      0.0417
     71  CE2       11.5210   18.3510  210.0020 C.ar  355  TYR355      0.0417
     72  CZ        11.6400   17.8940  211.2980 C.ar  355  TYR355      0.1957
     73  OH        12.8300   17.3570  211.7250 O.3   355  TYR355     -0.2866
     74  N          6.2230   15.3450  213.4180 N.3   389  MET389     -0.1245
     75  CA         7.6420   15.1670  213.1130 C.3   389  MET389      0.1570
     76  C          7.8720   13.7560  212.5790 C.2   389  MET389      0.2261
     77  O          8.0570   12.8150  213.3490 O.2   389  MET389     -0.2867
     78  CB         8.4840   15.4150  214.3580 C.3   389  MET389      0.0387
     79  CG         8.1260   16.6950  215.0680 C.3   389  MET389      0.0595
     80  SD         8.9680   16.8380  216.6490 S.3   389  MET389     -0.1393
     81  CE        10.4810   17.6120  216.0980 C.3   389  MET389      0.0692
     82  N          5.6350   18.0030  218.0730 N.3   409  MET409     -0.1245
     83  CA         6.0670   19.1650  218.8180 C.3   409  MET409      0.1570
     84  C          4.8650   20.0290  219.1700 C.2   409  MET409      0.2261
     85  O          4.0600   20.3380  218.3040 O.2   409  MET409     -0.2867
     86  CB         7.0770   19.9670  218.0080 C.3   409  MET409      0.0387
     87  CG         7.6090   21.1760  218.7430 C.3   409  MET409      0.0595
     88  SD         8.7200   22.1320  217.7020 S.3   409  MET409     -0.1393
     89  CE         9.9940   20.9300  217.3990 C.3   409  MET409      0.0692
@<TRIPOS>BOND
     1    65    64    2
     2    62    63    1
     3    64    63    1
     4    63    66    1
     5    69    71   ar
     6    69    67   ar
     7    66    67    1
     8    71    72   ar
     9     1     2    1
    10     6     7    1
    11     6     5    1
    12    67    68   ar
    13     7     8    1
    14     2     5    1
    15     2     3    1
    16    72    73    1
    17    72    70   ar
    18    34    33    1
    19    68    70   ar
    20     3     9   am
    21     3     4    2
    22    76    75    1
    23    76    77    2
    24     9    10    1
    25    33    32    1
    26    33    35    1
    27    75    74    1
    28    75    78    1
    29    32    29    1
    30    10    11    1
    31    10    13    1
    32    17    18    1
    33    11    12    2
    34    78    79    1
    35    13    14    1
    36    28    29    1
    37    16    14   ar
    38    14    15   ar
    39    29    30    1
    40    79    80    1
    41    30    31    2
    42    18    21    1
    43    18    19    1
    44    21    22    1
    45    81    80    1
    46    19    20    2
    47    23    22   ar
    48    23    25   ar
    49    22    24   ar
    50    89    88    1
    51    88    87    1
    52    86    87    1
    53    86    83    1
    54    82    83    1
    55    25    27   ar
    56    85    84    2
    57    24    26   ar
    58    83    84    1
    59    27    26   ar
    60    61    59    1
    61    60    58    1
    62    52    51    1
    63    52    53    1
    64    59    58    1
    65    51    48    1
    66    53    47    1
    67    58    55    1
    68    55    56    1
    69    55    54    1
    70    47    48    1
    71    47    38   am
    72    48    49    1
    73    56    57    2
    74    49    50    2
    75    41    40    1
    76    41    42    1
    77    37    38    1
    78    37    40    1
    79    37    36    1
    80    38    39    2
    81    42    43    1
    82    45    44    1
    83    43    44    2
    84    44    46    1
