@<TRIPOS>MOLECULE
tmp/5es1A00.pdb
 168 158 0 0 0
SMALL
GASTEIGER

@<TRIPOS>ATOM
      1  N        -50.1970  -28.0040   -4.6200 N.3    12  ILE12      -0.1231
      2  CA       -50.3440  -26.6150   -5.0400 C.3    12  ILE12       0.1692
      3  C        -49.1130  -26.1830   -5.8810 C.2    12  ILE12       0.2593
      4  O        -48.9570  -25.0040   -6.2220 O.2    12  ILE12      -0.2718
      5  CB       -50.6550  -25.7140   -3.7920 C.3    12  ILE12       0.0266
      6  CG1      -49.5630  -25.8190   -2.6960 C.3    12  ILE12       0.0019
      7  CG2      -52.0360  -26.0340   -3.2120 C.3    12  ILE12       0.0020
      8  CD1      -49.5040  -24.6510   -1.7750 C.3    12  ILE12       0.0001
      9  N        -48.2760  -27.1600   -6.2250 N.am   13  GLY13      -0.1942
     10  CA       -47.0630  -26.9290   -6.9930 C.3    13  GLY13       0.2014
     11  C        -46.3360  -28.1820   -7.4070 C.2    13  GLY13       0.2639
     12  O        -46.3330  -29.1750   -6.6900 O.2    13  GLY13      -0.2714
     13  N        -45.7170  -28.1540   -8.5690 N.am   14  LYS14      -0.1963
     14  CA       -44.9270  -29.2900   -9.0400 C.3    14  LYS14       0.1728
     15  C        -43.7380  -28.8230   -9.8950 C.2    14  LYS14       0.2616
     16  O        -43.9340  -28.1880  -10.9330 O.2    14  LYS14      -0.2715
     17  CB       -45.7890  -30.3440   -9.7680 C.3    14  LYS14       0.0311
     18  CG       -44.8230  -31.3800  -10.3600 C.3    14  LYS14       0.0038
     19  CD       -44.5790  -32.4160   -9.2780 C.3    14  LYS14       0.0206
     20  CE       -44.1910  -33.6960  -10.0390 C.3    14  LYS14       0.1093
     21  NZ       -42.8490  -34.1200   -9.5890 N.3    14  LYS14      -0.1314
     22  N        -42.5300  -29.1120   -9.4170 N.am   15  GLY15      -0.1955
     23  CA       -41.2890  -28.8190  -10.1120 C.3    15  GLY15       0.1869
     24  C        -40.6850  -30.1010  -10.6480 C.2    15  GLY15       0.2309
     25  O        -41.3080  -31.1650  -10.5430 O.2    15  GLY15      -0.2863
     26  N        -38.2620  -31.9560   -9.4760 N.3    17  PHE17      -0.1227
     27  CA       -37.5670  -32.5730   -8.3380 C.3    17  PHE17       0.1736
     28  C        -38.4430  -32.5200   -7.0790 C.2    17  PHE17       0.2595
     29  O        -38.5090  -33.5120   -6.3210 O.2    17  PHE17      -0.2718
     30  CB       -36.2080  -31.8860   -8.0600 C.3    17  PHE17       0.0547
     31  CG       -36.2510  -30.4480   -7.6410 C.ar   17  PHE17      -0.0202
     32  CD1      -36.2670  -29.3890   -8.5430 C.ar   17  PHE17      -0.0042
     33  CD2      -36.2280  -30.0870   -6.2610 C.ar   17  PHE17      -0.0042
     34  CE1      -36.2600  -28.0630   -8.1300 C.ar   17  PHE17      -0.0003
     35  CE2      -36.2560  -28.7930   -5.8520 C.ar   17  PHE17      -0.0003
     36  CZ       -36.2330  -27.7690   -6.7640 C.ar   17  PHE17      -0.0000
     37  N        -39.0980  -31.3490   -6.8540 N.am   18  ALA18      -0.1980
     38  CA       -39.9540  -31.1010   -5.7000 C.3    18  ALA18       0.1597
     39  C        -41.4220  -30.8890   -6.0740 C.2    18  ALA18       0.2287
     40  O        -41.7500  -30.6640   -7.2400 O.2    18  ALA18      -0.2864
     41  CB       -39.4430  -29.8930   -4.9400 C.3    18  ALA18       0.0319
     42  N        -45.0430  -28.9610   -4.0060 N.3    20  VAL20      -0.1245
     43  CA       -45.5350  -28.2190   -2.8440 C.3    20  VAL20       0.1561
     44  C        -46.9860  -28.6330   -2.5970 C.2    20  VAL20       0.2260
     45  O        -47.7500  -28.8240   -3.5430 O.2    20  VAL20      -0.2867
     46  CB       -45.3210  -26.6830   -2.9380 C.3    20  VAL20       0.0252
     47  CG1      -45.8350  -25.9560   -1.7010 C.3    20  VAL20       0.0019
     48  CG2      -43.8510  -26.3590   -3.1470 C.3    20  VAL20       0.0019
     49  N        -47.8160  -24.4500    3.8530 N.3    33  ALA33      -0.1245
     50  CA       -47.4470  -25.0680    2.5910 C.3    33  ALA33       0.1562
     51  C        -46.2100  -25.8780    2.9080 C.2    33  ALA33       0.2260
     52  O        -45.3210  -25.3930    3.6180 O.2    33  ALA33      -0.2867
     53  CB       -47.1610  -24.0100    1.5280 C.3    33  ALA33       0.0290
     54  N        -43.0740  -28.0400    1.1750 N.3    35  LYS35      -0.1245
     55  CA       -42.2830  -28.3760   -0.0120 C.3    35  LYS35       0.1561
     56  C        -41.6830  -29.7500    0.2630 C.2    35  LYS35       0.2260
     57  O        -40.8260  -29.9100    1.1490 O.2    35  LYS35      -0.2867
     58  CB       -41.1930  -27.3330   -0.2810 C.3    35  LYS35       0.0271
     59  CG       -40.3880  -27.5670   -1.5460 C.3    35  LYS35       0.0035
     60  CD       -39.4620  -26.3910   -1.8180 C.3    35  LYS35       0.0206
     61  CE       -38.7290  -26.5910   -3.1250 C.3    35  LYS35       0.1093
     62  NZ       -37.9780  -25.3720   -3.5360 N.3    35  LYS35      -0.1314
     63  N        -41.2770  -15.9550    2.1910 N.3    66  VAL66      -0.1245
     64  CA       -41.9660  -17.1390    2.7160 C.3    66  VAL66       0.1561
     65  C        -41.0620  -17.7130    3.8190 C.2    66  VAL66       0.2260
     66  O        -39.8970  -18.0380    3.5380 O.2    66  VAL66      -0.2867
     67  CB       -42.2490  -18.1900    1.5940 C.3    66  VAL66       0.0252
     68  CG1      -42.8290  -19.4770    2.1710 C.3    66  VAL66       0.0019
     69  CG2      -43.1590  -17.6280    0.4980 C.3    66  VAL66       0.0019
     70  N        -43.4650  -24.3420    5.5350 N.3    82  MET82      -0.1230
     71  CA       -43.3080  -22.8850    5.4100 C.3    82  MET82       0.1702
     72  C        -44.6780  -22.2180    5.3790 C.2    82  MET82       0.2592
     73  O        -45.7020  -22.9250    5.4750 O.2    82  MET82      -0.2718
     74  CB       -42.5280  -22.5170    4.1290 C.3    82  MET82       0.0401
     75  CG       -41.3710  -23.4110    3.8190 C.3    82  MET82       0.0596
     76  SD       -40.2350  -22.6670    2.6440 S.3    82  MET82      -0.1393
     77  CE       -39.8510  -24.0910    1.6030 C.3    82  MET82       0.0692
     78  N        -44.6990  -20.8570    5.2500 N.am   83  GLU83      -0.1966
     79  CA       -45.9350  -20.0640    5.1350 C.3    83  GLU83       0.1733
     80  C        -46.6350  -20.4120    3.8420 C.2    83  GLU83       0.2616
     81  O        -45.9760  -20.7090    2.8240 O.2    83  GLU83      -0.2715
     82  CB       -45.6530  -18.5580    5.0360 C.3    83  GLU83       0.0429
     83  CG       -44.7900  -17.9310    6.1040 C.3    83  GLU83       0.1163
     84  CD       -44.7220  -16.4360    5.9080 C.2    83  GLU83       0.3649
     85  OE1      -43.6830  -15.9500    5.4050 O.co2  83  GLU83      -0.2457
     86  OE2      -45.7360  -15.7580    6.1930 O.co2  83  GLU83      -0.2457
     87  N        -47.9680  -20.3050    3.8620 N.am   84  TYR84      -0.1960
     88  CA       -48.7810  -20.5020    2.6600 C.3    84  TYR84       0.1771
     89  C        -49.2380  -19.1350    2.1660 C.2    84  TYR84       0.2619
     90  O        -50.0220  -18.4860    2.8660 O.2    84  TYR84      -0.2715
     91  CB       -49.9970  -21.3900    2.9430 C.3    84  TYR84       0.0574
     92  CG       -51.0090  -21.4500    1.8190 C.ar   84  TYR84      -0.0198
     93  CD1      -50.6670  -21.9680    0.5720 C.ar   84  TYR84      -0.0009
     94  CD2      -52.3380  -21.0870    2.0310 C.ar   84  TYR84      -0.0009
     95  CE1      -51.6100  -22.0750   -0.4510 C.ar   84  TYR84       0.0417
     96  CE2      -53.2940  -21.2100    1.0230 C.ar   84  TYR84       0.0417
     97  CZ       -52.9250  -21.7060   -0.2170 C.ar   84  TYR84       0.1957
     98  OH       -53.8530  -21.8170   -1.2250 O.3    84  TYR84      -0.2866
     99  N        -48.7260  -18.6900    0.9840 N.am   85  ALA85      -0.1963
    100  CA       -49.1190  -17.4340    0.3300 C.3    85  ALA85       0.1728
    101  C        -50.4490  -17.7050   -0.3940 C.2    85  ALA85       0.2616
    102  O        -50.5050  -18.2020   -1.5230 O.2    85  ALA85      -0.2715
    103  CB       -48.0390  -16.9770   -0.6370 C.3    85  ALA85       0.0334
    104  N        -51.5150  -17.4710    0.3510 N.am   86  SER86      -0.1950
    105  CA       -52.9160  -17.7130    0.0360 C.3    86  SER86       0.1924
    106  C        -53.4060  -17.2410   -1.3720 C.2    86  SER86       0.2314
    107  O        -54.0880  -18.0040   -2.0510 O.2    86  SER86      -0.2863
    108  CB       -53.7690  -17.1000    1.1400 C.3    86  SER86       0.2116
    109  OG       -55.1270  -16.9780    0.7570 O.3    86  SER86      -0.2180
    110  N        -51.7080  -16.5670   -4.1860 N.3    88  GLY88      -0.1210
    111  CA       -50.9520  -17.0580   -5.3400 C.3    88  GLY88       0.1956
    112  C        -49.9230  -16.1380   -5.9780 C.2    88  GLY88       0.2611
    113  O        -49.5120  -15.1510   -5.3750 O.2    88  GLY88      -0.2717
    114  N        -49.4990  -16.4680   -7.2070 N.am   89  GLU89      -0.1979
    115  CA       -48.5150  -15.7180   -7.9960 C.3    89  GLU89       0.1602
    116  C        -48.9720  -14.3350   -8.4090 C.2    89  GLU89       0.2287
    117  O        -50.1440  -14.1270   -8.7130 O.2    89  GLU89      -0.2864
    118  CB       -48.1710  -16.4750   -9.2870 C.3    89  GLU89       0.0415
    119  CG       -47.3790  -17.7430   -9.0680 C.3    89  GLU89       0.1163
    120  CD       -47.0930  -18.5660  -10.3030 C.2    89  GLU89       0.3649
    121  OE1      -46.8680  -17.9760  -11.3830 O.co2  89  GLU89      -0.2457
    122  OE2      -47.0510  -19.8090  -10.1750 O.co2  89  GLU89      -0.2457
    123  N        -50.1280  -14.4370  -12.1520 N.3    92  ASP92      -0.1239
    124  CA       -51.5500  -14.7420  -12.2780 C.3    92  ASP92       0.1674
    125  C        -52.3830  -13.5140  -11.9970 C.2    92  ASP92       0.2266
    126  O        -53.2920  -13.2080  -12.7600 O.2    92  ASP92      -0.2867
    127  CB       -51.9470  -15.8870  -11.3130 C.3    92  ASP92       0.1410
    128  CG       -51.2840  -17.2400  -11.5780 C.2    92  ASP92       0.3668
    129  OD1      -51.0620  -17.5760  -12.7720 O.co2  92  ASP92      -0.2456
    130  OD2      -51.0030  -17.9750  -10.5860 O.co2  92  ASP92      -0.2456
    131  N        -43.3440  -15.4920  -10.9720 N.3   132  GLU132     -0.1231
    132  CA       -43.7660  -16.8100  -10.4820 C.3   132  GLU132      0.1699
    133  C        -43.3910  -16.9700   -9.0010 C.2   132  GLU132      0.2592
    134  O        -44.1760  -17.5300   -8.2380 O.2   132  GLU132     -0.2718
    135  CB       -43.1240  -17.9690  -11.2970 C.3   132  GLU132      0.0402
    136  CG       -43.0940  -19.3070  -10.5430 C.3   132  GLU132      0.1161
    137  CD       -42.7060  -20.5890  -11.2630 C.2   132  GLU132      0.3649
    138  OE1      -43.3050  -20.8850  -12.3250 O.co2 132  GLU132     -0.2457
    139  OE2      -41.8750  -21.3480  -10.7070 O.co2 132  GLU132     -0.2457
    140  N        -42.1650  -16.5370   -8.6160 N.am  133  ASN133     -0.1974
    141  CA       -41.6220  -16.6310   -7.2520 C.3   133  ASN133      0.1688
    142  C        -42.1030  -15.5230   -6.3280 C.2   133  ASN133      0.2292
    143  O        -41.7330  -15.4580   -5.1440 O.2   133  ASN133     -0.2864
    144  CB       -40.1080  -16.7030   -7.3120 C.3   133  ASN133      0.1181
    145  CG       -39.6530  -17.9860   -7.9430 C.2   133  ASN133      0.2629
    146  OD1      -40.2850  -19.0350   -7.7780 O.2   133  ASN133     -0.2716
    147  ND2      -38.5820  -17.9230   -8.7060 N.am  133  ASN133     -0.0877
    148  N        -45.3000  -13.9020   -4.6100 N.3   135  LEU135     -0.1245
    149  CA       -46.6450  -14.2200   -4.2270 C.3   135  LEU135      0.1561
    150  C        -47.2350  -13.2910   -3.2000 C.2   135  LEU135      0.2260
    151  O        -46.5670  -12.4420   -2.6460 O.2   135  LEU135     -0.2867
    152  CB       -46.8220  -15.6810   -3.8080 C.3   135  LEU135      0.0270
    153  CG       -45.7330  -16.6750   -4.2220 C.3   135  LEU135      0.0019
    154  CD1      -45.5850  -17.7350   -3.2220 C.3   135  LEU135      0.0001
    155  CD2      -46.0060  -17.2840   -5.5700 C.3   135  LEU135      0.0001
    156  N        -40.7480  -16.5390   -2.5680 N.3   145  ALA145     -0.1231
    157  CA       -40.6560  -17.9760   -2.4530 C.3   145  ALA145      0.1694
    158  C        -39.5080  -18.5400   -3.2820 C.2   145  ALA145      0.2592
    159  O        -38.9210  -17.8420   -4.1100 O.2   145  ALA145     -0.2718
    160  CB       -41.9670  -18.5990   -2.8940 C.3   145  ALA145      0.0304
    161  N        -39.2070  -19.8220   -3.0240 N.am  146  ASP146     -0.1974
    162  CA       -38.2080  -20.7090   -3.6130 C.3   146  ASP146      0.1709
    163  C        -36.8900  -20.7420   -2.8180 C.2   146  ASP146      0.2293
    164  O        -36.8320  -21.3960   -1.7510 O.2   146  ASP146     -0.2864
    165  CB       -37.9640  -20.4850   -5.1070 C.3   146  ASP146      0.1436
    166  CG       -37.9250  -21.7910   -5.8700 C.2   146  ASP146      0.3671
    167  OD1      -36.9040  -22.5140   -5.7680 O.co2 146  ASP146     -0.2456
    168  OD2      -38.8890  -22.0770   -6.5940 O.co2 146  ASP146     -0.2456
@<TRIPOS>BOND
     1   129   128   ar
     2   126   125    2
     3   138   137   ar
     4   124   123    1
     5   124   125    1
     6   124   127    1
     7   128   127    1
     8   128   130   ar
     9   121   120   ar
    10   135   136    1
    11   135   132    1
    12   137   139   ar
    13   137   136    1
    14   131   132    1
    15    16    15    2
    16    24    25    2
    17    24    23    1
    18   132   133    1
    19    18    17    1
    20    18    19    1
    21   120   122   ar
    22   120   119    1
    23    23    22    1
    24    20    21    1
    25    20    19    1
    26    15    22   am
    27    15    14    1
    28    17    14    1
    29    26    27    1
    30   118   119    1
    31   118   115    1
    32    14    13    1
    33   133   140   am
    34   133   134    2
    35   117   116    2
    36   147   145   am
    37   140   141    1
    38    13    11   am
    39    32    34   ar
    40    32    31   ar
    41   116   115    1
    42    27    30    1
    43    27    28    1
    44    34    36   ar
    45    30    31    1
    46   115   114    1
    47   145   146    2
    48   145   144    1
    49    31    33   ar
    50    11    10    1
    51    11    12    2
    52   144   141    1
    53   141   142    1
    54    40    39    2
    55   114   112   am
    56    28    37   am
    57    28    29    2
    58    10     9    1
    59    37    38    1
    60    36    35   ar
    61   168   166   ar
    62   142   143    2
    63    33    35   ar
    64     9     3   am
    65     4     3    2
    66    39    38    1
    67   112   113    2
    68   112   111    1
    69     3     2    1
    70   166   167   ar
    71   166   165    1
    72    38    41    1
    73   155   153    1
    74   111   110    1
    75   165   162    1
    76     2     1    1
    77     2     5    1
    78   148   149    1
    79   149   152    1
    80   149   150    1
    81   153   152    1
    82   153   154    1
    83   159   158    2
    84    42    43    1
    85     5     7    1
    86     5     6    1
    87   162   161    1
    88   162   163    1
    89    45    44    2
    90    62    61    1
    91   158   161   am
    92   158   157    1
    93   150   151    2
    94    48    46    1
    95    61    60    1
    96    46    43    1
    97    46    47    1
    98   160   157    1
    99    43    44    1
   100   163   164    2
   101     6     8    1
   102   156   157    1
   103   107   106    2
   104    60    59    1
   105    59    58    1
   106   102   101    2
   107   106   105    1
   108    98    97    1
   109   103   100    1
   110    95    97   ar
   111    95    93   ar
   112   101   100    1
   113   101   104   am
   114    58    55    1
   115    97    96   ar
   116    55    56    1
   117    55    54    1
   118   105   104    1
   119   105   108    1
   120    56    57    2
   121   100    99    1
   122    69    67    1
   123    93    92   ar
   124   109   108    1
   125    99    89   am
   126    96    94   ar
   127    53    50    1
   128    67    68    1
   129    67    64    1
   130    77    76    1
   131    92    94   ar
   132    92    91    1
   133    89    88    1
   134    89    90    2
   135    63    64    1
   136    50    51    1
   137    50    49    1
   138    76    75    1
   139    88    91    1
   140    88    87    1
   141    64    65    1
   142    81    80    2
   143    51    52    2
   144    66    65    2
   145    75    74    1
   146    80    87   am
   147    80    79    1
   148    74    71    1
   149    82    79    1
   150    82    83    1
   151    79    78    1
   152    78    72   am
   153    72    71    1
   154    72    73    2
   155    85    84   ar
   156    71    70    1
   157    84    83    1
   158    84    86   ar
