@<TRIPOS>MOLECULE
tmp/5es4E07.pdb
 96 90 0 0 0
SMALL
GASTEIGER

@<TRIPOS>ATOM
      1  N        -40.4640   48.5740   66.0460 N.3   603  THR603     -0.1218
      2  CA       -39.7880   48.0830   67.2380 C.3   603  THR603      0.1862
      3  C        -38.4350   48.7650   67.3850 C.2   603  THR603      0.2287
      4  O        -37.5860   48.6740   66.4920 O.2   603  THR603     -0.2866
      5  CB       -39.6100   46.5670   67.1840 C.3   603  THR603      0.1770
      6  OG1      -40.8950   45.9340   67.1610 O.3   603  THR603     -0.2211
      7  CG2      -38.8380   46.0850   68.4000 C.3   603  THR603      0.0375
      8  N        -35.0110   48.9880   69.8200 N.3   605  THR605     -0.1203
      9  CA       -34.2620   48.1690   70.7600 C.3   605  THR605      0.1994
     10  C        -32.9430   48.8460   71.0970 C.2   605  THR605      0.2618
     11  O        -32.1910   49.2420   70.2010 O.2   605  THR605     -0.2717
     12  CB       -34.0150   46.7720   70.1970 C.3   605  THR605      0.1784
     13  OG1      -35.2730   46.1100   70.0100 O.3   605  THR605     -0.2211
     14  CG2      -33.1810   45.9680   71.1620 C.3   605  THR605      0.0376
     15  N        -32.6730   48.9810   72.3940 N.am  606  PHE606     -0.1961
     16  CA       -31.4420   49.5670   72.9040 C.3   606  PHE606      0.1771
     17  C        -30.4870   48.4810   73.3830 C.2   606  PHE606      0.2620
     18  O        -30.9060   47.4210   73.8550 O.2   606  PHE606     -0.2715
     19  CB       -31.7090   50.5150   74.0750 C.3   606  PHE606      0.0574
     20  CG       -32.6210   51.6590   73.7560 C.ar  606  PHE606     -0.0200
     21  CD1      -32.1120   52.8680   73.3030 C.ar  606  PHE606     -0.0042
     22  CD2      -33.9860   51.5460   73.9640 C.ar  606  PHE606     -0.0042
     23  CE1      -32.9530   53.9360   73.0330 C.ar  606  PHE606     -0.0003
     24  CE2      -34.8300   52.6070   73.6970 C.ar  606  PHE606     -0.0003
     25  CZ       -34.3140   53.8030   73.2290 C.ar  606  PHE606     -0.0000
     26  N        -29.1940   48.7590   73.2740 N.am  607  SER607     -0.1950
     27  CA       -28.1830   48.0200   74.0140 C.3   607  SER607      0.1924
     28  C        -27.5350   48.9580   75.0190 C.2   607  SER607      0.2314
     29  O        -27.1340   50.0730   74.6730 O.2   607  SER607     -0.2863
     30  CB       -27.1240   47.4090   73.1010 C.3   607  SER607      0.2116
     31  OG       -26.1440   46.7410   73.8810 O.3   607  SER607     -0.2180
     32  N        -28.6600   39.7290   77.9630 N.3   638  VAL638     -0.1245
     33  CA       -28.3910   39.2260   76.6200 C.3   638  VAL638      0.1561
     34  C        -26.9940   38.6320   76.5030 C.2   638  VAL638      0.2260
     35  O        -26.8350   37.4490   76.1800 O.2   638  VAL638     -0.2867
     36  CB       -28.5880   40.3410   75.5750 C.3   638  VAL638      0.0252
     37  CG1      -28.1580   39.8610   74.1940 C.3   638  VAL638      0.0019
     38  CG2      -30.0390   40.7960   75.5450 C.3   638  VAL638      0.0019
     39  N        -30.4060   44.1180   76.5070 N.3   645  SER645     -0.1217
     40  CA       -31.1920   44.7720   75.4700 C.3   645  SER645      0.1889
     41  C        -32.5710   45.1300   76.0030 C.2   645  SER645      0.2288
     42  O        -33.2130   44.3270   76.6860 O.2   645  SER645     -0.2866
     43  CB       -31.3400   43.8860   74.2320 C.3   645  SER645      0.2089
     44  OG       -30.0980   43.7250   73.5760 O.3   645  SER645     -0.2183
     45  N        -31.4300   50.3300   67.6450 N.3   684  ASN684     -0.1225
     46  CA       -31.7130   49.8610   66.2880 C.3   684  ASN684      0.1785
     47  C        -33.2230   49.7120   66.0510 C.2   684  ASN684      0.2597
     48  O        -33.8930   48.7810   66.5060 O.2   684  ASN684     -0.2718
     49  CB       -30.9090   48.5870   65.9300 C.3   684  ASN684      0.1169
     50  CG       -31.2590   47.3480   66.7730 C.2   684  ASN684      0.2627
     51  OD1      -32.3050   47.2780   67.3840 O.2   684  ASN684     -0.2716
     52  ND2      -30.3590   46.3590   66.7960 N.am  684  ASN684     -0.0877
     53  N        -33.7470   50.6650   65.2880 N.am  685  VAL685     -0.1966
     54  CA       -35.1410   50.6530   64.8860 C.3   685  VAL685      0.1727
     55  C        -35.3450   49.6550   63.7540 C.2   685  VAL685      0.2616
     56  O        -34.4270   49.3400   62.9850 O.2   685  VAL685     -0.2715
     57  CB       -35.5600   52.0690   64.4580 C.3   685  VAL685      0.0290
     58  CG1      -34.6710   52.5320   63.3120 C.3   685  VAL685      0.0023
     59  CG2      -37.0210   52.1000   64.0500 C.3   685  VAL685      0.0023
     60  N        -36.5620   49.1450   63.6610 N.am  686  SER686     -0.1950
     61  CA       -36.9780   48.3290   62.5330 C.3   686  SER686      0.1924
     62  C        -38.4980   48.2570   62.5620 C.2   686  SER686      0.2314
     63  O        -39.1500   48.7970   63.4620 O.2   686  SER686     -0.2863
     64  CB       -36.3450   46.9350   62.5850 C.3   686  SER686      0.2116
     65  OG       -37.0740   46.0760   63.4430 O.3   686  SER686     -0.2180
     66  N        -38.9190   43.2830   60.3200 N.3   690  ASN690     -0.1225
     67  CA       -37.5170   43.1580   60.6950 C.3   690  ASN690      0.1785
     68  C        -36.5850   43.6930   59.6190 C.2   690  ASN690      0.2597
     69  O        -37.0010   44.4870   58.7690 O.2   690  ASN690     -0.2718
     70  CB       -37.2050   41.6980   61.0290 C.3   690  ASN690      0.1169
     71  CG       -38.0560   41.1770   62.1730 C.2   690  ASN690      0.2627
     72  OD1      -38.3330   41.9010   63.1310 O.2   690  ASN690     -0.2716
     73  ND2      -38.4910   39.9260   62.0710 N.am  690  ASN690     -0.0877
     74  N        -35.3170   43.2880   59.6710 N.am  691  THR691     -0.1953
     75  CA       -34.3000   43.7750   58.7450 C.3   691  THR691      0.1897
     76  C        -33.9550   42.6750   57.7530 C.2   691  THR691      0.2313
     77  O        -33.1530   41.7810   58.0700 O.2   691  THR691     -0.2863
     78  CB       -33.0460   44.2310   59.4960 C.3   691  THR691      0.1794
     79  OG1      -33.3840   45.3070   60.3780 O.3   691  THR691     -0.2208
     80  CG2      -31.9790   44.7040   58.5180 C.3   691  THR691      0.0378
     81  N        -26.7890   48.0460   59.0280 N.3   696  LYS696     -0.1231
     82  CA       -27.7200   48.0990   60.1470 C.3   696  LYS696      0.1693
     83  C        -28.1580   49.5290   60.4440 C.2   696  LYS696      0.2592
     84  O        -27.4340   50.4940   60.1850 O.2   696  LYS696     -0.2718
     85  CB       -27.0880   47.4770   61.3910 C.3   696  LYS696      0.0285
     86  CG       -26.6890   46.0240   61.1990 C.3   696  LYS696      0.0035
     87  CD       -25.8320   45.5140   62.3430 C.3   696  LYS696      0.0206
     88  CE       -25.3980   44.0770   62.1000 C.3   696  LYS696      0.1093
     89  NZ       -24.4810   43.5940   63.1680 N.3   696  LYS696     -0.1314
     90  N        -29.3650   49.6490   61.0020 N.am  697  THR697     -0.1953
     91  CA       -29.9030   50.9640   61.3290 C.3   697  THR697      0.1897
     92  C        -29.1420   51.5930   62.4900 C.2   697  THR697      0.2313
     93  O        -28.9690   52.8170   62.5320 O.2   697  THR697     -0.2863
     94  CB       -31.3920   50.8400   61.6500 C.3   697  THR697      0.1794
     95  OG1      -31.5750   49.8410   62.6560 O.3   697  THR697     -0.2208
     96  CG2      -32.1550   50.4050   60.4070 C.3   697  THR697      0.0378
@<TRIPOS>BOND
     1    76    77    2
     2    76    75    1
     3    80    78    1
     4    75    78    1
     5    75    74    1
     6    69    68    2
     7    81    82    1
     8    78    79    1
     9    68    74   am
    10    68    67    1
    11    82    83    1
    12    82    85    1
    13    84    83    2
    14    66    67    1
    15    96    94    1
    16    83    90   am
    17    67    70    1
    18    90    91    1
    19    70    71    1
    20    86    85    1
    21    86    87    1
    22    91    94    1
    23    91    92    1
    24    94    95    1
    25    73    71   am
    26    88    87    1
    27    88    89    1
    28    71    72    2
    29    92    93    2
    30    61    62    1
    31    61    64    1
    32    61    60    1
    33    62    63    2
    34    64    65    1
    35    56    55    2
    36    58    57    1
    37    60    55   am
    38    55    54    1
    39    59    57    1
    40    57    54    1
    41    54    53    1
    42    53    47   am
    43    49    46    1
    44    49    50    1
    45     1     2    1
    46    47    46    1
    47    47    48    2
    48    46    45    1
    49     4     3    2
    50    50    52   am
    51    50    51    2
    52     6     5    1
    53     5     2    1
    54     5     7    1
    55     2     3    1
    56     8     9    1
    57    13    12    1
    58    12     9    1
    59    12    14    1
    60    11    10    2
    61     9    10    1
    62    10    15   am
    63    15    16    1
    64    16    17    1
    65    16    19    1
    66    23    25   ar
    67    23    21   ar
    68    30    31    1
    69    30    27    1
    70    25    24   ar
    71    26    17   am
    72    26    27    1
    73    21    20   ar
    74    17    18    2
    75    44    43    1
    76    24    22   ar
    77    20    22   ar
    78    20    19    1
    79    27    28    1
    80    37    36    1
    81    43    40    1
    82    29    28    2
    83    40    41    1
    84    40    39    1
    85    38    36    1
    86    36    33    1
    87    41    42    2
    88    35    34    2
    89    34    33    1
    90    33    32    1
