@<TRIPOS>MOLECULE
tmp/5es4E03.pdb
 93 89 0 0 0
SMALL
GASTEIGER

@<TRIPOS>ATOM
      1  N        -24.6370   44.5100  138.1010 N.3   158  PHE158     -0.1227
      2  CA       -24.5520   45.9500  138.3040 C.3   158  PHE158      0.1736
      3  C        -25.9370   46.5940  138.2220 C.2   158  PHE158      0.2596
      4  O        -26.2500   47.3600  137.3100 O.2   158  PHE158     -0.2718
      5  CB       -23.5740   46.5600  137.3020 C.3   158  PHE158      0.0547
      6  CG       -22.1600   46.1060  137.5000 C.ar  158  PHE158     -0.0202
      7  CD1      -21.3670   46.6930  138.4670 C.ar  158  PHE158     -0.0042
      8  CD2      -21.6320   45.0730  136.7430 C.ar  158  PHE158     -0.0042
      9  CE1      -20.0720   46.2680  138.6750 C.ar  158  PHE158     -0.0003
     10  CE2      -20.3290   44.6460  136.9410 C.ar  158  PHE158     -0.0003
     11  CZ       -19.5480   45.2470  137.9060 C.ar  158  PHE158     -0.0000
     12  N        -26.7610   46.2570  139.2150 N.am  159  THR159     -0.1953
     13  CA       -28.1590   46.6890  139.3590 C.3   159  THR159      0.1897
     14  C        -28.9080   46.6770  138.0210 C.2   159  THR159      0.2313
     15  O        -29.4670   47.6750  137.5630 O.2   159  THR159     -0.2863
     16  CB       -28.2620   48.0530  140.0700 C.3   159  THR159      0.1794
     17  OG1      -29.6390   48.3930  140.2720 O.3   159  THR159     -0.2208
     18  CG2      -27.5590   49.1940  139.3400 C.3   159  THR159      0.0378
     19  N        -27.9970   46.5680  135.0340 N.3   161  SER161     -0.1217
     20  CA       -27.4080   47.2230  133.8730 C.3   161  SER161      0.1889
     21  C        -26.6340   46.2550  132.9890 C.2   161  SER161      0.2288
     22  O        -26.1650   46.6570  131.9200 O.2   161  SER161     -0.2866
     23  CB       -26.4870   48.3750  134.3010 C.3   161  SER161      0.2089
     24  OG       -25.3150   47.8860  134.9250 O.3   161  SER161     -0.2183
     25  N        -15.1680   40.9790  130.5490 N.3   175  PHE175     -0.1241
     26  CA       -16.5320   41.4180  130.8110 C.3   175  PHE175      0.1605
     27  C        -16.8050   42.7200  130.0740 C.2   175  PHE175      0.2264
     28  O        -16.0550   43.6900  130.2230 O.2   175  PHE175     -0.2867
     29  CB       -16.7550   41.5950  132.3180 C.3   175  PHE175      0.0534
     30  CG       -18.1230   42.0930  132.6790 C.ar  175  PHE175     -0.0203
     31  CD1      -19.1900   41.2170  132.7740 C.ar  175  PHE175     -0.0042
     32  CD2      -18.3390   43.4350  132.9410 C.ar  175  PHE175     -0.0042
     33  CE1      -20.4500   41.6700  133.1150 C.ar  175  PHE175     -0.0003
     34  CE2      -19.5960   43.8940  133.2810 C.ar  175  PHE175     -0.0003
     35  CZ       -20.6530   43.0100  133.3680 C.ar  175  PHE175     -0.0000
     36  N        -19.5390   45.7070  129.3150 N.3   177  ASN177     -0.1225
     37  CA       -20.7560   46.4400  129.6340 C.3   177  ASN177      0.1785
     38  C        -20.5540   47.8960  129.2510 C.2   177  ASN177      0.2597
     39  O        -19.4560   48.3140  128.8710 O.2   177  ASN177     -0.2718
     40  CB       -21.1190   46.3280  131.1220 C.3   177  ASN177      0.1169
     41  CG       -20.1100   47.0220  132.0290 C.2   177  ASN177      0.2627
     42  OD1      -18.9760   47.2950  131.6270 O.2   177  ASN177     -0.2716
     43  ND2      -20.5200   47.3100  133.2620 N.am  177  ASN177     -0.0877
     44  N        -21.6290   48.6690  129.3360 N.am  178  MET178     -0.1965
     45  CA       -21.4630   50.1130  129.3120 C.3   178  MET178      0.1736
     46  C        -20.8070   50.5560  130.6160 C.2   178  MET178      0.2617
     47  O        -20.9420   49.9050  131.6560 O.2   178  MET178     -0.2715
     48  CB       -22.8100   50.8130  129.0960 C.3   178  MET178      0.0427
     49  CG       -23.4170   50.5490  127.7190 C.3   178  MET178      0.0599
     50  SD       -24.8260   51.5960  127.3090 S.3   178  MET178     -0.1393
     51  CE       -24.0170   53.1290  126.8650 C.3   178  MET178      0.0692
     52  N        -20.0690   51.6610  130.5470 N.am  179  SER179     -0.1936
     53  CA       -19.2330   52.0660  131.6700 C.3   179  SER179      0.2055
     54  C        -20.0780   52.3910  132.8970 C.2   179  SER179      0.2642
     55  O        -21.2520   52.7550  132.7910 O.2   179  SER179     -0.2714
     56  CB       -18.3810   53.2780  131.2970 C.3   179  SER179      0.2130
     57  OG       -17.5350   53.6570  132.3730 O.3   179  SER179     -0.2179
     58  N        -19.4590   52.2330  134.0790 N.am  180  GLN180     -0.1976
     59  CA       -20.0530   52.7270  135.3230 C.3   180  GLN180      0.1601
     60  C        -20.5590   54.1400  135.1520 C.2   180  GLN180      0.2287
     61  O        -21.6060   54.5150  135.6930 O.2   180  GLN180     -0.2864
     62  CB       -19.0300   52.7130  136.4570 C.3   180  GLN180      0.0394
     63  CG       -19.6130   53.1690  137.8000 C.3   180  GLN180      0.0908
     64  CD       -18.6480   52.9870  138.9550 C.2   180  GLN180      0.2608
     65  OE1      -17.5000   52.5870  138.7590 O.2   180  GLN180     -0.2717
     66  NE2      -19.1100   53.2770  140.1680 N.am  180  GLN180     -0.0878
     67  N        -21.9390   55.6620  132.6730 N.3   182  ASN182     -0.1240
     68  CA       -23.1840   55.9040  131.9420 C.3   182  ASN182      0.1653
     69  C        -24.3680   55.6390  132.8670 C.2   182  ASN182      0.2266
     70  O        -24.9170   54.5350  132.9350 O.2   182  ASN182     -0.2867
     71  CB       -23.2600   55.0720  130.6680 C.3   182  ASN182      0.1155
     72  CG       -24.2270   55.6690  129.6600 C.2   182  ASN182      0.2627
     73  OD1      -25.3930   55.9080  129.9730 O.2   182  ASN182     -0.2716
     74  ND2      -23.7340   55.9590  128.4620 N.am  182  ASN182     -0.0877
     75  N        -28.1080   53.4640  132.5680 N.3   185  MET185     -0.1230
     76  CA       -28.2450   52.0600  132.1950 C.3   185  MET185      0.1702
     77  C        -28.7750   51.1480  133.2980 C.2   185  MET185      0.2592
     78  O        -28.9200   49.9470  133.0530 O.2   185  MET185     -0.2718
     79  CB       -26.9040   51.5140  131.6950 C.3   185  MET185      0.0401
     80  CG       -26.4840   52.0540  130.3360 C.3   185  MET185      0.0596
     81  SD       -27.7300   51.7880  129.0550 S.3   185  MET185     -0.1393
     82  CE       -27.6960   50.0080  128.8670 C.3   185  MET185      0.0692
     83  N        -29.0700   51.6580  134.4910 N.am  186  ARG186     -0.1980
     84  CA       -29.7360   50.8230  135.4820 C.3   186  ARG186      0.1597
     85  C        -31.1230   50.4180  134.9870 C.2   186  ARG186      0.2287
     86  O        -31.8120   51.1890  134.3130 O.2   186  ARG186     -0.2864
     87  CB       -29.8690   51.5590  136.8150 C.3   186  ARG186      0.0334
     88  CG       -28.5700   52.0040  137.4640 C.3   186  ARG186      0.0492
     89  CD       -28.8740   52.5770  138.8400 C.3   186  ARG186      0.2205
     90  NE       -27.6970   53.0810  139.5380 N.pl3 186  ARG186     -0.0865
     91  CZ       -27.7590   53.9010  140.5810 C.cat 186  ARG186      0.5346
     92  NH1      -28.9390   54.3080  141.0290 N.pl3 186  ARG186      0.1354
     93  NH2      -26.6480   54.3200  141.1690 N.pl3 186  ARG186      0.1354
@<TRIPOS>BOND
     1    51    50    1
     2    50    49    1
     3    49    48    1
     4    74    72   am
     5    82    81    1
     6    39    38    2
     7    81    80    1
     8    48    45    1
     9    38    44   am
    10    38    37    1
    11    45    44    1
    12    45    46    1
    13    36    37    1
    14    37    40    1
    15    72    73    2
    16    72    71    1
    17    27    28    2
    18    27    26    1
    19    80    79    1
    20    52    46   am
    21    52    53    1
    22    25    26    1
    23    46    47    2
    24    71    68    1
    25    26    29    1
    26    40    41    1
    27    56    53    1
    28    56    57    1
    29    42    41    2
    30    53    54    1
    31    79    76    1
    32    22    21    2
    33    68    67    1
    34    68    69    1
    35    41    43   am
    36    76    75    1
    37    76    77    1
    38    29    30    1
    39    30    31   ar
    40    30    32   ar
    41    31    33   ar
    42    55    54    2
    43    69    70    2
    44    54    58   am
    45    32    34   ar
    46    21    20    1
    47    78    77    2
    48    33    35   ar
    49    34    35   ar
    50    77    83   am
    51    20    23    1
    52    20    19    1
    53    58    59    1
    54    23    24    1
    55    86    85    2
    56    83    84    1
    57    85    84    1
    58    60    59    1
    59    60    61    2
    60    59    62    1
    61    84    87    1
    62    62    63    1
    63     8    10   ar
    64     8     6   ar
    65    87    88    1
    66    10    11   ar
    67     5     6    1
    68     5     2    1
    69     4     3    2
    70    88    89    1
    71     6     7   ar
    72    15    14    2
    73    63    64    1
    74    11     9   ar
    75    14    13    1
    76     1     2    1
    77     3     2    1
    78     3    12   am
    79     7     9   ar
    80    65    64    2
    81    89    90    1
    82    64    66   am
    83    12    13    1
    84    18    16    1
    85    13    16    1
    86    90    91    2
    87    16    17    1
    88    91    92    1
    89    91    93    1
