@<TRIPOS>MOLECULE
tmp/5es7A01.pdb
 104 102 0 0 0
SMALL
GASTEIGER

@<TRIPOS>ATOM
      1  N        196.1810  -19.6090   18.3810 N.3   390  PHE390     -0.1227
      2  CA       195.3730  -18.4410   18.7010 C.3   390  PHE390      0.1736
      3  C        196.2780  -17.2500   18.9920 C.2   390  PHE390      0.2595
      4  O        197.4350  -17.4060   19.3930 O.2   390  PHE390     -0.2718
      5  CB       194.4680  -18.7140   19.9080 C.3   390  PHE390      0.0547
      6  CG       193.6370  -19.9610   19.7770 C.ar  390  PHE390     -0.0202
      7  CD1      193.2230  -20.4100   18.5360 C.ar  390  PHE390     -0.0042
      8  CD2      193.2730  -20.6840   20.9010 C.ar  390  PHE390     -0.0042
      9  CE1      192.4640  -21.5580   18.4160 C.ar  390  PHE390     -0.0003
     10  CE2      192.5110  -21.8330   20.7850 C.ar  390  PHE390     -0.0003
     11  CZ       192.1060  -22.2680   19.5410 C.ar  390  PHE390     -0.0000
     12  N        195.7470  -16.0410   18.7820 N.am  391  ASP391     -0.1960
     13  CA       196.5580  -14.8520   19.0250 C.3   391  ASP391      0.1840
     14  C        196.9460  -14.7250   20.4930 C.2   391  ASP391      0.2622
     15  O        197.9210  -14.0320   20.8060 O.2   391  ASP391     -0.2715
     16  CB       195.8330  -13.5830   18.5530 C.3   391  ASP391      0.1450
     17  CG       194.6100  -13.2550   19.3790 C.2   391  ASP391      0.3671
     18  OD1      194.4480  -13.8170   20.4830 O.co2 391  ASP391     -0.2456
     19  OD2      193.8120  -12.4140   18.9100 O.co2 391  ASP391     -0.2456
     20  N        196.2050  -15.3720   21.3970 N.am  392  GLY392     -0.1954
     21  CA       196.5820  -15.3690   22.7960 C.3   392  GLY392      0.1869
     22  C        197.9460  -15.9660   23.0290 C.2   392  GLY392      0.2309
     23  O        198.5830  -15.6690   24.0450 O.2   392  GLY392     -0.2863
     24  N        200.5550  -13.0670   22.7420 N.3   395  LEU395     -0.1245
     25  CA       200.7050  -12.3550   24.0060 C.3   395  LEU395      0.1561
     26  C        201.6510  -13.1040   24.9350 C.2   395  LEU395      0.2260
     27  O        202.5700  -12.5150   25.5170 O.2   395  LEU395     -0.2867
     28  CB       199.3350  -12.1710   24.6610 C.3   395  LEU395      0.0270
     29  CG       199.2320  -11.3270   25.9380 C.3   395  LEU395      0.0019
     30  CD1      197.7670  -11.0200   26.1890 C.3   395  LEU395      0.0001
     31  CD2      199.8380  -11.9930   27.1780 C.3   395  LEU395      0.0001
     32  N        198.3100  -14.6520   30.7420 N.3   434  TYR434     -0.1241
     33  CA       196.9590  -14.4980   30.2180 C.3   434  TYR434      0.1605
     34  C        196.2460  -15.8440   30.2050 C.2   434  TYR434      0.2264
     35  O        196.8250  -16.8600   29.8080 O.2   434  TYR434     -0.2867
     36  CB       196.9810  -13.9000   28.8010 C.3   434  TYR434      0.0534
     37  CG       195.7030  -14.0990   28.0010 C.ar  434  TYR434     -0.0201
     38  CD1      194.5540  -13.3640   28.2750 C.ar  434  TYR434     -0.0009
     39  CD2      195.6560  -15.0140   26.9570 C.ar  434  TYR434     -0.0009
     40  CE1      193.3930  -13.5460   27.5360 C.ar  434  TYR434      0.0417
     41  CE2      194.5040  -15.1990   26.2170 C.ar  434  TYR434      0.0417
     42  CZ       193.3750  -14.4680   26.5090 C.ar  434  TYR434      0.1957
     43  OH       192.2310  -14.6670   25.7650 O.3   434  TYR434     -0.2866
     44  N        192.2850  -17.3580   28.9940 N.3   436  PRO436     -0.2116
     45  CA       190.9430  -17.0480   28.4760 C.3   436  PRO436      0.1372
     46  C        189.9100  -17.0060   29.5960 C.2   436  PRO436      0.2244
     47  O        190.1600  -17.5290   30.6850 O.2   436  PRO436     -0.2868
     48  CB       190.6710  -18.1950   27.4950 C.3   436  PRO436      0.0268
     49  CG       192.0190  -18.6890   27.0990 C.3   436  PRO436      0.0207
     50  CD       192.8980  -18.5010   28.2950 C.3   436  PRO436      0.0892
     51  N        189.9700  -12.3910   28.9490 N.3   457  GLY457     -0.1210
     52  CA       189.2120  -11.8030   27.8650 C.3   457  GLY457      0.1956
     53  C        189.1700  -12.7270   26.6670 C.2   457  GLY457      0.2612
     54  O        190.0390  -13.5860   26.5130 O.2   457  GLY457     -0.2717
     55  N        188.1660  -12.5600   25.8150 N.am  458  GLY458     -0.1956
     56  CA       187.9730  -13.4290   24.6680 C.3   458  GLY458      0.1869
     57  C        186.5320  -13.8850   24.6170 C.2   458  GLY458      0.2309
     58  O        185.9230  -13.9800   23.5460 O.2   458  GLY458     -0.2863
     59  N        189.8480   -7.0850   25.6000 N.3   476  TYR476     -0.1227
     60  CA       188.9940   -7.3420   24.4520 C.3   476  TYR476      0.1736
     61  C        189.7770   -7.0390   23.1830 C.2   476  TYR476      0.2596
     62  O        190.7220   -6.2460   23.1860 O.2   476  TYR476     -0.2718
     63  CB       187.7070   -6.5030   24.5100 C.3   476  TYR476      0.0548
     64  CG       187.0200   -6.3150   23.1720 C.ar  476  TYR476     -0.0200
     65  CD1      187.3610   -5.2570   22.3340 C.ar  476  TYR476     -0.0009
     66  CD2      186.0350   -7.1930   22.7460 C.ar  476  TYR476     -0.0009
     67  CE1      186.7410   -5.0840   21.1100 C.ar  476  TYR476      0.0417
     68  CE2      185.4080   -7.0260   21.5260 C.ar  476  TYR476      0.0417
     69  CZ       185.7650   -5.9720   20.7110 C.ar  476  TYR476      0.1957
     70  OH       185.1430   -5.8050   19.4940 O.3   476  TYR476     -0.2866
     71  N        189.3670   -7.6810   22.0930 N.am  477  GLY477     -0.1943
     72  CA       189.9120   -7.3940   20.7900 C.3   477  GLY477      0.1998
     73  C        189.8490   -8.5930   19.8690 C.2   477  GLY477      0.2481
     74  O        190.0180   -9.7360   20.3010 O.2   477  GLY477     -0.2729
     75  N        189.6140   -8.3630   18.5800 N.am  478  PRO478     -0.2715
     76  CA       189.5730   -9.4730   17.6320 C.3   478  PRO478      0.1536
     77  C        190.9590   -9.8130   17.1060 C.2   478  PRO478      0.2599
     78  O        191.9020   -9.0210   17.1680 O.2   478  PRO478     -0.2715
     79  CB       188.6870   -8.9210   16.5100 C.3   478  PRO478      0.0310
     80  CG       189.1210   -7.5040   16.4340 C.3   478  PRO478      0.0237
     81  CD       189.4140   -7.0800   17.8820 C.3   478  PRO478      0.0939
     82  N        191.0630  -11.0320   16.5850 N.am  479  THR479     -0.1951
     83  CA       192.3110  -11.4770   15.9820 C.3   479  THR479      0.1897
     84  C        192.7220  -10.5740   14.8240 C.2   479  THR479      0.2313
     85  O        193.9140  -10.4590   14.5210 O.2   479  THR479     -0.2863
     86  CB       192.1520  -12.9280   15.5250 C.3   479  THR479      0.1794
     87  OG1      192.1320  -13.7910   16.6690 O.3   479  THR479     -0.2208
     88  CG2      193.2700  -13.3580   14.5990 C.3   479  THR479      0.0378
     89  N        195.5050   -9.4880   18.6820 N.3   483  ILE483     -0.1231
     90  CA       195.2870   -9.7860   20.0920 C.3   483  ILE483      0.1692
     91  C        194.2250   -8.8230   20.6180 C.2   483  ILE483      0.2591
     92  O        193.1130   -8.7670   20.0820 O.2   483  ILE483     -0.2718
     93  CB       196.6040   -9.7010   20.8900 C.3   483  ILE483      0.0266
     94  CG1      197.7380  -10.4110   20.1370 C.3   483  ILE483      0.0019
     95  CG2      196.4370  -10.3360   22.2730 C.3   483  ILE483      0.0020
     96  CD1      199.1050  -10.2010   20.7510 C.3   483  ILE483      0.0001
     97  N        194.5620   -8.0360   21.6360 N.am  484  MET484     -0.1979
     98  CA       193.6150   -7.1510   22.2910 C.3   484  MET484      0.1605
     99  C        193.9150   -5.6930   21.9580 C.2   484  MET484      0.2287
    100  O        195.0650   -5.3080   21.7250 O.2   484  MET484     -0.2864
    101  CB       193.6620   -7.3530   23.8040 C.3   484  MET484      0.0413
    102  CG       193.2350   -8.7420   24.2320 C.3   484  MET484      0.0598
    103  SD       193.2950   -8.9700   26.0140 S.3   484  MET484     -0.1393
    104  CE       195.0520   -8.8570   26.3000 C.3   484  MET484      0.0692
@<TRIPOS>BOND
     1    85    84    2
     2    88    86    1
     3    84    83    1
     4    86    83    1
     5    86    87    1
     6    83    82    1
     7    80    79    1
     8    80    81    1
     9    79    76    1
    10    82    77   am
    11    77    78    2
    12    77    76    1
    13    76    75    1
    14    81    75    1
    15     1     2    1
    16     9     7   ar
    17     9    11   ar
    18     7     6   ar
    19    16    13    1
    20    16    17    1
    21    75    73   am
    22    89    90    1
    23     2     3    1
    24     2     5    1
    25    12     3   am
    26    12    13    1
    27    19    17   ar
    28     3     4    2
    29    13    14    1
    30    17    18   ar
    31    70    69    1
    32    11    10   ar
    33     6     5    1
    34     6     8   ar
    35    73    74    2
    36    73    72    1
    37    92    91    2
    38    90    91    1
    39    90    93    1
    40    94    96    1
    41    94    93    1
    42    14    15    2
    43    14    20   am
    44    91    97   am
    45    69    67   ar
    46    69    68   ar
    47    10     8   ar
    48    72    71    1
    49    93    95    1
    50    67    65   ar
    51    20    21    1
    52    68    66   ar
    53    97    98    1
    54   100    99    2
    55    99    98    1
    56    71    61   am
    57    98   101    1
    58    65    64   ar
    59    24    25    1
    60    66    64   ar
    61    21    22    1
    62    22    23    2
    63    64    63    1
    64    61    62    2
    65    61    60    1
    66    58    57    2
    67   101   102    1
    68    25    28    1
    69    25    26    1
    70   102   103    1
    71    60    63    1
    72    60    59    1
    73    57    56    1
    74    28    29    1
    75    56    55    1
    76    26    27    2
    77    43    42    1
    78    55    53   am
    79    29    30    1
    80    29    31    1
    81   103   104    1
    82    41    42   ar
    83    41    39   ar
    84    42    40   ar
    85    54    53    2
    86    53    52    1
    87    39    37   ar
    88    49    48    1
    89    49    50    1
    90    48    45    1
    91    40    38   ar
    92    52    51    1
    93    37    38   ar
    94    37    36    1
    95    50    44    1
    96    45    44    1
    97    45    46    1
    98    36    33    1
    99    46    47    2
   100    35    34    2
   101    34    33    1
   102    33    32    1
