@<TRIPOS>MOLECULE
tmp/5es7A00.pdb
 175 172 0 0 0
SMALL
GASTEIGER

@<TRIPOS>ATOM
      1  N        172.2820   40.3050    5.8570 N.3    50  SER50      -0.1217
      2  CA       172.2540   38.8690    5.6600 C.3    50  SER50       0.1889
      3  C        172.5270   38.1670    6.9830 C.2    50  SER50       0.2288
      4  O        173.3330   38.6280    7.7940 O.2    50  SER50      -0.2866
      5  CB       173.2690   38.4390    4.5990 C.3    50  SER50       0.2089
      6  OG       174.5930   38.5830    5.0640 O.3    50  SER50      -0.2183
      7  N        172.4630   33.3480    5.4690 N.3    53  TYR53      -0.1227
      8  CA       172.2130   33.1460    4.0490 C.3    53  TYR53       0.1736
      9  C        173.1120   32.0320    3.5280 C.2    53  TYR53       0.2596
     10  O        174.3270   32.0480    3.7440 O.2    53  TYR53      -0.2718
     11  CB       172.4710   34.4530    3.2960 C.3    53  TYR53       0.0548
     12  CG       172.0000   34.5100    1.8590 C.ar   53  TYR53      -0.0200
     13  CD1      170.7110   34.1180    1.4980 C.ar   53  TYR53      -0.0009
     14  CD2      172.8340   35.0030    0.8700 C.ar   53  TYR53      -0.0009
     15  CE1      170.2860   34.1950    0.1740 C.ar   53  TYR53       0.0417
     16  CE2      172.4240   35.0810   -0.4470 C.ar   53  TYR53       0.0417
     17  CZ       171.1500   34.6800   -0.7910 C.ar   53  TYR53       0.1957
     18  OH       170.7530   34.7690   -2.1070 O.3    53  TYR53      -0.2866
     19  N        172.5150   31.0640    2.8330 N.am   54  GLY54      -0.1942
     20  CA       173.2200   29.8540    2.4490 C.3    54  GLY54       0.2014
     21  C        173.6840   29.8790    1.0100 C.2    54  GLY54       0.2639
     22  O        173.8100   28.8300    0.3760 O.2    54  GLY54      -0.2714
     23  N        173.9430   31.0740    0.4840 N.am   55  TYR55      -0.1959
     24  CA       174.4390   31.2260   -0.8760 C.3    55  TYR55       0.1771
     25  C        175.3970   32.4070   -0.9350 C.2    55  TYR55       0.2619
     26  O        175.3100   33.3360   -0.1270 O.2    55  TYR55      -0.2715
     27  CB       173.2830   31.4200   -1.8660 C.3    55  TYR55       0.0574
     28  CG       172.2260   30.3480   -1.7440 C.ar   55  TYR55      -0.0198
     29  CD1      172.3880   29.1180   -2.3630 C.ar   55  TYR55      -0.0009
     30  CD2      171.0780   30.5580   -0.9920 C.ar   55  TYR55      -0.0009
     31  CE1      171.4300   28.1270   -2.2450 C.ar   55  TYR55       0.0417
     32  CE2      170.1160   29.5720   -0.8650 C.ar   55  TYR55       0.0417
     33  CZ       170.2970   28.3600   -1.4970 C.ar   55  TYR55       0.1957
     34  OH       169.3390   27.3770   -1.3780 O.3    55  TYR55      -0.2866
     35  N        176.3300   32.3500   -1.8820 N.am   56  ILE56      -0.1963
     36  CA       177.2400   33.4620   -2.1090 C.3    56  ILE56       0.1727
     37  C        176.5440   34.4850   -2.9920 C.2    56  ILE56       0.2616
     38  O        175.5430   34.1960   -3.6500 O.2    56  ILE56      -0.2715
     39  CB       178.5930   33.0270   -2.7330 C.3    56  ILE56       0.0290
     40  CG1      178.4000   32.3230   -4.0880 C.3    56  ILE56       0.0022
     41  CG2      179.3760   32.1390   -1.7660 C.3    56  ILE56       0.0023
     42  CD1      178.1900   33.2540   -5.3010 C.3    56  ILE56       0.0001
     43  N        177.1020   35.6870   -3.0190 N.am   57  LEU57      -0.1977
     44  CA       176.6100   36.7660   -3.8580 C.3    57  LEU57       0.1596
     45  C        177.6060   37.0040   -4.9800 C.2    57  LEU57       0.2287
     46  O        178.8070   37.1410   -4.7300 O.2    57  LEU57      -0.2864
     47  CB       176.4030   38.0380   -3.0350 C.3    57  LEU57       0.0297
     48  CG       175.2880   37.9050   -1.9980 C.3    57  LEU57       0.0022
     49  CD1      175.3150   39.0450   -0.9960 C.3    57  LEU57       0.0001
     50  CD2      173.9370   37.8470   -2.6870 C.3    57  LEU57       0.0001
     51  N        177.8720   42.4640   -5.0990 N.3    62  VAL62      -0.1245
     52  CA       178.6260   43.0720   -4.0010 C.3    62  VAL62       0.1561
     53  C        179.2820   44.3730   -4.4390 C.2    62  VAL62       0.2260
     54  O        179.4400   45.2980   -3.6330 O.2    62  VAL62      -0.2867
     55  CB       179.6730   42.0870   -3.4470 C.3    62  VAL62       0.0252
     56  CG1      180.6000   41.6210   -4.5490 C.3    62  VAL62       0.0019
     57  CG2      180.4710   42.7330   -2.3190 C.3    62  VAL62       0.0019
     58  N        176.6150   41.5630    7.1590 N.3    71  ASN71      -0.1240
     59  CA       176.3840   40.1590    7.4600 C.3    71  ASN71       0.1653
     60  C        176.4410   39.9370    8.9610 C.2    71  ASN71       0.2266
     61  O        177.2760   40.5240    9.6570 O.2    71  ASN71      -0.2867
     62  CB       177.4010   39.2430    6.7770 C.3    71  ASN71       0.1155
     63  CG       177.2080   37.7860    7.1540 C.2    71  ASN71       0.2627
     64  OD1      178.0210   37.2060    7.8720 O.2    71  ASN71      -0.2716
     65  ND2      176.1180   37.1880    6.6790 N.am   71  ASN71      -0.0877
     66  N        177.1940   37.1130   11.5410 N.3    73  HIS73      -0.1241
     67  CA       177.8810   35.8270   11.5930 C.3    73  HIS73       0.1621
     68  C        178.2090   35.5310   13.0500 C.2    73  HIS73       0.2264
     69  O        178.9980   36.2780   13.6680 O.2    73  HIS73      -0.2867
     70  CB       179.1490   35.8530   10.7390 C.3    73  HIS73       0.0745
     71  CG       179.6330   34.4970   10.3350 C.ar   73  HIS73       0.0817
     72  ND1      180.6340   33.8350   11.0070 N.ar   73  HIS73      -0.2268
     73  CD2      179.2570   33.6810    9.3230 C.ar   73  HIS73       0.1154
     74  CE1      180.8560   32.6690   10.4290 C.ar   73  HIS73       0.1986
     75  NE2      180.0350   32.5510    9.4020 N.ar   73  HIS73      -0.2212
     76  N        182.5360   30.2990    7.8550 N.3    82  GLY82      -0.1210
     77  CA       181.8200   29.3010    7.0950 C.3    82  GLY82       0.1956
     78  C        180.6650   28.6910    7.8590 C.2    82  GLY82       0.2611
     79  O        180.0100   29.3710    8.6520 O.2    82  GLY82      -0.2717
     80  N        180.4230   27.4040    7.6450 N.am   83  ARG83      -0.1979
     81  CA       179.1890   26.7750    8.0880 C.3    83  ARG83       0.1597
     82  C        179.3120   26.2120    9.4910 C.2    83  ARG83       0.2287
     83  O        180.4020   25.8430    9.9460 O.2    83  ARG83      -0.2864
     84  CB       178.7810   25.6690    7.1060 C.3    83  ARG83       0.0334
     85  CG       178.3360   26.1940    5.7470 C.3    83  ARG83       0.0492
     86  CD       177.1010   27.0910    5.8540 C.3    83  ARG83       0.2205
     87  NE       176.1830   26.6520    6.9010 N.pl3  83  ARG83      -0.0865
     88  CZ       175.1510   25.8330    6.7150 C.cat  83  ARG83       0.5346
     89  NH1      174.8730   25.3490    5.5100 N.pl3  83  ARG83       0.1354
     90  NH2      174.3900   25.4960    7.7460 N.pl3  83  ARG83       0.1354
     91  N        179.8940   42.2050   10.1190 N.3   101  HIS101     -0.1241
     92  CA       180.9810   42.6020    9.2400 C.3   101  HIS101      0.1621
     93  C        180.4480   42.8920    7.8460 C.2   101  HIS101      0.2264
     94  O        179.3890   42.4050    7.4450 O.2   101  HIS101     -0.2867
     95  CB       182.0600   41.5170    9.1740 C.3   101  HIS101      0.0745
     96  CG       181.5990   40.2430    8.5410 C.ar  101  HIS101      0.0817
     97  ND1      181.5420   40.0700    7.1740 N.ar  101  HIS101     -0.2268
     98  CD2      181.1680   39.0810    9.0850 C.ar  101  HIS101      0.1154
     99  CE1      181.0990   38.8550    6.9030 C.ar  101  HIS101      0.1986
    100  NE2      180.8610   38.2360    8.0460 N.ar  101  HIS101     -0.2212
    101  N        180.3280   42.5750    3.8120 N.3   103  ILE103     -0.1231
    102  CA       180.4240   41.4090    2.9470 C.3   103  ILE103      0.1692
    103  C        181.4070   41.7140    1.8320 C.2   103  ILE103      0.2592
    104  O        181.2090   42.6470    1.0450 O.2   103  ILE103     -0.2718
    105  CB       179.0550   40.9980    2.3900 C.3   103  ILE103      0.0266
    106  CG1      178.2230   40.4000    3.5310 C.3   103  ILE103      0.0019
    107  CG2      179.2270   39.9960    1.2370 C.3   103  ILE103      0.0020
    108  CD1      177.0360   39.5470    3.0980 C.3   103  ILE103      0.0001
    109  N        182.4590   40.9140    1.7680 N.am  104  ASP104     -0.1960
    110  CA       183.4970   41.0260    0.7660 C.3   104  ASP104      0.1840
    111  C        183.2020   40.0600   -0.3750 C.2   104  ASP104      0.2622
    112  O        182.1930   39.3500   -0.3870 O.2   104  ASP104     -0.2715
    113  CB       184.8560   40.7410    1.4110 C.3   104  ASP104      0.1450
    114  CG       186.0290   41.2590    0.5900 C.2   104  ASP104      0.3671
    115  OD1      185.8360   42.1920   -0.2220 O.co2 104  ASP104     -0.2456
    116  OD2      187.1490   40.7250    0.7730 O.co2 104  ASP104     -0.2456
    117  N        184.1100   40.0330   -1.3430 N.am  105  GLU105     -0.1963
    118  CA       183.9830   39.1020   -2.4570 C.3   105  GLU105      0.1733
    119  C        184.1240   37.6570   -1.9930 C.2   105  GLU105      0.2616
    120  O        183.5290   36.7530   -2.5900 O.2   105  GLU105     -0.2715
    121  CB       185.0290   39.4490   -3.5210 C.3   105  GLU105      0.0429
    122  CG       185.2080   40.9590   -3.7150 C.3   105  GLU105      0.1163
    123  CD       186.0400   41.3200   -4.9270 C.2   105  GLU105      0.3649
    124  OE1      186.6780   40.4140   -5.5080 O.co2 105  GLU105     -0.2457
    125  OE2      186.0620   42.5170   -5.2870 O.co2 105  GLU105     -0.2457
    126  N        184.8780   37.4260   -0.9200 N.am  106  HIS106     -0.1959
    127  CA       185.1610   36.0960   -0.3970 C.3   106  HIS106      0.1787
    128  C        184.4260   35.8770    0.9250 C.2   106  HIS106      0.2620
    129  O        184.0490   36.8270    1.6150 O.2   106  HIS106     -0.2715
    130  CB       186.6740   35.9180   -0.2190 C.3   106  HIS106      0.0785
    131  CG       187.4700   36.3170   -1.4250 C.ar  106  HIS106      0.0821
    132  ND1      187.6480   35.4860   -2.5090 N.ar  106  HIS106     -0.2267
    133  CD2      188.1310   37.4640   -1.7180 C.ar  106  HIS106      0.1154
    134  CE1      188.3860   36.1000   -3.4170 C.ar  106  HIS106      0.1986
    135  NE2      188.6930   37.3010   -2.9620 N.ar  106  HIS106     -0.2212
    136  N        184.2310   34.6040    1.2760 N.am  107  VAL107     -0.1963
    137  CA       183.3700   34.2490    2.4050 C.3   107  VAL107      0.1727
    138  C        183.9880   34.7520    3.7040 C.2   107  VAL107      0.2616
    139  O        185.0990   34.3580    4.0770 O.2   107  VAL107     -0.2715
    140  CB       183.1300   32.7330    2.4720 C.3   107  VAL107      0.0290
    141  CG1      182.2300   32.3880    3.6680 C.3   107  VAL107      0.0023
    142  CG2      182.5010   32.2270    1.1850 C.3   107  VAL107      0.0023
    143  N        183.2460   35.5940    4.4200 N.am  108  ASP108     -0.1971
    144  CA       183.6050   36.0370    5.7630 C.3   108  ASP108      0.1709
    145  C        184.9560   36.7380    5.7930 C.2   108  ASP108      0.2293
    146  O        185.6120   36.7790    6.8360 O.2   108  ASP108     -0.2864
    147  CB       183.5890   34.8580    6.7450 C.3   108  ASP108      0.1436
    148  CG       182.2310   34.1990    6.8370 C.2   108  ASP108      0.3671
    149  OD1      181.2190   34.8840    6.5890 O.co2 108  ASP108     -0.2456
    150  OD2      182.1700   32.9990    7.1560 O.co2 108  ASP108     -0.2456
    151  N        183.2670   23.7470    6.2510 N.3   166  PHE166     -0.1227
    152  CA       182.3820   23.6100    5.1100 C.3   166  PHE166      0.1736
    153  C        181.0840   22.9270    5.5170 C.2   166  PHE166      0.2595
    154  O        180.9380   22.3830    6.6170 O.2   166  PHE166     -0.2718
    155  CB       183.0670   22.8240    3.9870 C.3   166  PHE166      0.0547
    156  CG       184.2640   23.5190    3.4120 C.ar  166  PHE166     -0.0202
    157  CD1      184.1670   24.2230    2.2240 C.ar  166  PHE166     -0.0042
    158  CD2      185.4820   23.4860    4.0700 C.ar  166  PHE166     -0.0042
    159  CE1      185.2650   24.8740    1.6970 C.ar  166  PHE166     -0.0003
    160  CE2      186.5830   24.1350    3.5490 C.ar  166  PHE166     -0.0003
    161  CZ       186.4740   24.8320    2.3600 C.ar  166  PHE166     -0.0000
    162  N        180.1370   22.9710    4.5820 N.am  167  LYS167     -0.1966
    163  CA       178.8050   22.4290    4.8110 C.3   167  LYS167      0.1728
    164  C        178.8650   21.0130    5.3720 C.2   167  LYS167      0.2616
    165  O        178.1750   20.6850    6.3420 O.2   167  LYS167     -0.2715
    166  CB       178.0320   22.4480    3.4940 C.3   167  LYS167      0.0311
    167  CG       176.5510   22.6960    3.6210 C.3   167  LYS167      0.0038
    168  CD       175.9290   22.7650    2.2400 C.3   167  LYS167      0.0206
    169  CE       174.5200   23.3200    2.2740 C.3   167  LYS167      0.1093
    170  NZ       174.3430   24.3860    1.2490 N.3   167  LYS167     -0.1314
    171  N        179.7010   20.1630    4.7780 N.am  168  ALA168     -0.1977
    172  CA       179.6850   18.7330    5.0500 C.3   168  ALA168      0.1597
    173  C        180.6350   18.3140    6.1680 C.2   168  ALA168      0.2287
    174  O        180.6370   17.1380    6.5430 O.2   168  ALA168     -0.2864
    175  CB       180.0270   17.9610    3.7720 C.3   168  ALA168      0.0319
@<TRIPOS>BOND
     1   124   123   ar
     2    42    40    1
     3   125   123   ar
     4    51    52    1
     5    45    46    2
     6    45    44    1
     7   123   122    1
     8    56    55    1
     9    53    52    1
    10    53    54    2
    11    40    39    1
    12    52    55    1
    13    44    47    1
    14    44    43    1
    15   122   121    1
    16    38    37    2
    17   121   118    1
    18    55    57    1
    19   134   135   ar
    20   134   132   ar
    21    47    48    1
    22    43    37   am
    23    37    36    1
    24   135   133   ar
    25    39    36    1
    26    39    41    1
    27    50    48    1
    28   120   119    2
    29   132   131   ar
    30   118   119    1
    31   118   117    1
    32    29    31   ar
    33    29    28   ar
    34    31    33   ar
    35    36    35    1
    36    18    17    1
    37    48    49    1
    38   119   126   am
    39    35    25   am
    40    27    28    1
    41    27    24    1
    42    28    30   ar
    43   133   131   ar
    44    33    34    1
    45    33    32   ar
    46   131   130    1
    47   117   111   am
    48    30    32   ar
    49    25    24    1
    50    25    26    2
    51   126   127    1
    52    24    23    1
    53    17    16   ar
    54    17    15   ar
    55    16    14   ar
    56   127   130    1
    57   127   128    1
    58   112   111    2
    59   111   110    1
    60   115   114   ar
    61    15    13   ar
    62    22    21    2
    63    23    21   am
    64   114   116   ar
    65   114   113    1
    66   110   113    1
    67   110   109    1
    68    14    12   ar
    69   128   136   am
    70   128   129    2
    71    21    20    1
    72   104   103    2
    73   142   140    1
    74   107   105    1
    75   170   169    1
    76   136   137    1
    77    13    12   ar
    78   159   157   ar
    79   159   161   ar
    80   109   103   am
    81   103   102    1
    82    12    11    1
    83   157   156   ar
    84   168   169    1
    85   168   167    1
    86   161   160   ar
    87   105   102    1
    88   105   106    1
    89   137   140    1
    90   137   138    1
    91    20    19    1
    92   140   141    1
    93    19     9   am
    94   102   101    1
    95   108   106    1
    96    11     8    1
    97   156   155    1
    98   156   158   ar
    99   166   167    1
   100   166   163    1
   101     9    10    2
   102     9     8    1
   103   160   158   ar
   104   138   139    2
   105   138   143   am
   106   175   172    1
   107   155   152    1
   108     8     7    1
   109   143   144    1
   110   162   163    1
   111   162   153   am
   112     5     6    1
   113     5     2    1
   114   171   172    1
   115   171   164   am
   116   163   164    1
   117   172   173    1
   118   152   153    1
   119   152   151    1
   120   164   165    2
   121    89    88    1
   122   153   154    2
   123     2     1    1
   124     2     3    1
   125    85    86    1
   126    85    84    1
   127   144   145    1
   128   144   147    1
   129   145   146    2
   130    86    87    1
   131   173   174    2
   132   149   148   ar
   133    65    63   am
   134    88    87    2
   135    88    90    1
   136   147   148    1
   137    62    63    1
   138    62    59    1
   139   148   150   ar
   140    99    97   ar
   141    99   100   ar
   142     3     4    2
   143    77    76    1
   144    77    78    1
   145    84    81    1
   146    63    64    2
   147    58    59    1
   148    97    96   ar
   149    94    93    2
   150    59    60    1
   151    80    78   am
   152    80    81    1
   153    93    92    1
   154    78    79    2
   155   100    98   ar
   156    81    82    1
   157    96    98   ar
   158    96    95    1
   159    60    61    2
   160    95    92    1
   161    92    91    1
   162    73    75   ar
   163    73    71   ar
   164    75    74   ar
   165    82    83    2
   166    71    70    1
   167    71    72   ar
   168    74    72   ar
   169    70    67    1
   170    66    67    1
   171    67    68    1
   172    68    69    2
