@<TRIPOS>MOLECULE
tmp/5es7A02.pdb
 136 131 0 0 0
SMALL
GASTEIGER

@<TRIPOS>ATOM
      1  N        190.8190  -17.7280   12.0310 N.3   351  THR351     -0.1203
      2  CA       189.6970  -17.6250   12.9510 C.3   351  THR351      0.1994
      3  C        188.8510  -18.8980   12.9070 C.2   351  THR351      0.2618
      4  O        189.0430  -19.7850   12.0710 O.2   351  THR351     -0.2717
      5  CB       188.8010  -16.4300   12.6170 C.3   351  THR351      0.1784
      6  OG1      188.5470  -16.4070   11.2130 O.3   351  THR351     -0.2211
      7  CG2      189.4220  -15.1070   13.0570 C.3   351  THR351      0.0376
      8  N        187.8930  -18.9680   13.8230 N.am  352  SER352     -0.1951
      9  CA       186.9700  -20.0910   13.8970 C.3   352  SER352      0.1924
     10  C        186.0690  -20.1470   12.6660 C.2   352  SER352      0.2314
     11  O        185.6370  -19.1140   12.1550 O.2   352  SER352     -0.2863
     12  CB       186.1210  -19.9890   15.1630 C.3   352  SER352      0.2116
     13  OG       185.0910  -19.0270   15.0130 O.3   352  SER352     -0.2180
     14  N        188.1660  -12.5600   25.8150 N.3   458  GLY458     -0.1210
     15  CA       187.9730  -13.4290   24.6680 C.3   458  GLY458      0.1956
     16  C        186.5320  -13.8850   24.6170 C.2   458  GLY458      0.2612
     17  O        185.9230  -13.9800   23.5460 O.2   458  GLY458     -0.2717
     18  N        185.9860  -14.1800   25.7920 N.am  459  ASP459     -0.1959
     19  CA       184.5590  -14.3620   25.9950 C.3   459  ASP459      0.1840
     20  C        184.1300  -13.3960   27.0890 C.2   459  ASP459      0.2622
     21  O        184.9590  -12.7330   27.7200 O.2   459  ASP459     -0.2715
     22  CB       184.2080  -15.8080   26.3770 C.3   459  ASP459      0.1450
     23  CG       184.1120  -16.7240   25.1730 C.2   459  ASP459      0.3671
     24  OD1      183.9090  -16.2170   24.0500 O.co2 459  ASP459     -0.2456
     25  OD2      184.2430  -17.9540   25.3510 O.co2 459  ASP459     -0.2456
     26  N        182.8210  -13.3140   27.3180 N.am  460  VAL460     -0.1963
     27  CA       182.3150  -12.3940   28.3270 C.3   460  VAL460      0.1727
     28  C        182.7730  -12.8610   29.7010 C.2   460  VAL460      0.2616
     29  O        182.6410  -14.0420   30.0530 O.2   460  VAL460     -0.2715
     30  CB       180.7840  -12.2910   28.2630 C.3   460  VAL460      0.0290
     31  CG1      180.3080  -11.1590   29.1650 C.3   460  VAL460      0.0023
     32  CG2      180.3060  -12.0740   26.8300 C.3   460  VAL460      0.0023
     33  N        183.3210  -11.9380   30.4830 N.am  461  LEU461     -0.1977
     34  CA       183.7520  -12.2120   31.8470 C.3   461  LEU461      0.1596
     35  C        182.6320  -11.8130   32.8000 C.2   461  LEU461      0.2287
     36  O        182.1120  -10.6940   32.7140 O.2   461  LEU461     -0.2864
     37  CB       185.0440  -11.4500   32.1600 C.3   461  LEU461      0.0297
     38  CG       185.5150  -11.3410   33.6140 C.3   461  LEU461      0.0022
     39  CD1      185.3130  -12.6180   34.4010 C.3   461  LEU461      0.0001
     40  CD2      186.9800  -10.9860   33.6770 C.3   461  LEU461      0.0001
     41  N        190.5670   -7.4690   32.5510 N.3   474  ASN474     -0.1225
     42  CA       189.7490   -7.9930   31.4630 C.3   474  ASN474      0.1785
     43  C        190.0690   -7.2170   30.1930 C.2   474  ASN474      0.2598
     44  O        190.0740   -5.9820   30.2010 O.2   474  ASN474     -0.2718
     45  CB       188.2570   -7.8790   31.7810 C.3   474  ASN474      0.1169
     46  CG       187.3820   -8.5200   30.7150 C.2   474  ASN474      0.2627
     47  OD1      187.7900   -9.4790   30.0600 O.2   474  ASN474     -0.2716
     48  ND2      186.1750   -7.9900   30.5320 N.am  474  ASN474     -0.0877
     49  N        190.3300   -7.9430   29.1030 N.am  475  GLY475     -0.1942
     50  CA       190.6850   -7.3410   27.8390 C.3   475  GLY475      0.2014
     51  C        189.7500   -7.7870   26.7250 C.2   475  GLY475      0.2639
     52  O        188.9640   -8.7340   26.8690 O.2   475  GLY475     -0.2714
     53  N        189.8480   -7.0850   25.6000 N.am  476  TYR476     -0.1959
     54  CA       188.9940   -7.3420   24.4520 C.3   476  TYR476      0.1771
     55  C        189.7770   -7.0390   23.1830 C.2   476  TYR476      0.2620
     56  O        190.7220   -6.2460   23.1860 O.2   476  TYR476     -0.2715
     57  CB       187.7070   -6.5030   24.5100 C.3   476  TYR476      0.0574
     58  CG       187.0200   -6.3150   23.1720 C.ar  476  TYR476     -0.0198
     59  CD1      187.3610   -5.2570   22.3340 C.ar  476  TYR476     -0.0009
     60  CD2      186.0350   -7.1930   22.7460 C.ar  476  TYR476     -0.0009
     61  CE1      186.7410   -5.0840   21.1100 C.ar  476  TYR476      0.0417
     62  CE2      185.4080   -7.0260   21.5260 C.ar  476  TYR476      0.0417
     63  CZ       185.7650   -5.9720   20.7110 C.ar  476  TYR476      0.1957
     64  OH       185.1430   -5.8050   19.4940 O.3   476  TYR476     -0.2866
     65  N        189.3670   -7.6810   22.0930 N.am  477  GLY477     -0.1940
     66  CA       189.9120   -7.3940   20.7900 C.3   477  GLY477      0.1998
     67  C        189.8490   -8.5930   19.8690 C.2   477  GLY477      0.2481
     68  O        190.0180   -9.7360   20.3010 O.2   477  GLY477     -0.2729
     69  N        189.6140   -8.3630   18.5800 N.am  478  PRO478     -0.2715
     70  CA       189.5730   -9.4730   17.6320 C.3   478  PRO478      0.1536
     71  C        190.9590   -9.8130   17.1060 C.2   478  PRO478      0.2599
     72  O        191.9020   -9.0210   17.1680 O.2   478  PRO478     -0.2715
     73  CB       188.6870   -8.9210   16.5100 C.3   478  PRO478      0.0310
     74  CG       189.1210   -7.5040   16.4340 C.3   478  PRO478      0.0237
     75  CD       189.4140   -7.0800   17.8820 C.3   478  PRO478      0.0939
     76  N        191.0630  -11.0320   16.5850 N.am  479  THR479     -0.1937
     77  CA       192.3110  -11.4770   15.9820 C.3   479  THR479      0.2028
     78  C        192.7220  -10.5740   14.8240 C.2   479  THR479      0.2642
     79  O        193.9140  -10.4590   14.5210 O.2   479  THR479     -0.2714
     80  CB       192.1520  -12.9280   15.5250 C.3   479  THR479      0.1808
     81  OG1      192.1320  -13.7910   16.6690 O.3   479  THR479     -0.2208
     82  CG2      193.2700  -13.3580   14.5990 C.3   479  THR479      0.0379
     83  N        191.7550   -9.9150   14.1770 N.am  480  GLU480     -0.1976
     84  CA       192.0660   -9.0910   13.0150 C.3   480  GLU480      0.1602
     85  C        192.8010   -7.8080   13.3780 C.2   480  GLU480      0.2287
     86  O        193.4700   -7.2310   12.5140 O.2   480  GLU480     -0.2864
     87  CB       190.7840   -8.7540   12.2530 C.3   480  GLU480      0.0415
     88  CG       190.2210   -9.9240   11.4550 C.3   480  GLU480      0.1163
     89  CD       189.1910  -10.7260   12.2330 C.2   480  GLU480      0.3649
     90  OE1      189.1940  -10.6500   13.4800 O.co2 480  GLU480     -0.2457
     91  OE2      188.3750  -11.4200   11.5900 O.co2 480  GLU480     -0.2457
     92  N        185.3940   -3.3990   29.5180 N.3   499  ILE499     -0.1245
     93  CA       186.5800   -3.9030   28.8350 C.3   499  ILE499      0.1561
     94  C        187.6780   -2.8540   28.7210 C.2   499  ILE499      0.2260
     95  O        188.7290   -3.1300   28.1240 O.2   499  ILE499     -0.2867
     96  CB       186.2000   -4.4730   27.4540 C.3   499  ILE499      0.0252
     97  CG1      185.5970   -3.3860   26.5570 C.3   499  ILE499      0.0019
     98  CG2      185.2020   -5.6180   27.6280 C.3   499  ILE499      0.0019
     99  CD1      185.2630   -3.8640   25.1520 C.3   499  ILE499      0.0001
    100  N        183.8490   -4.3340   13.7560 N.3   561  THR561     -0.1218
    101  CA       183.8370   -5.5700   14.5370 C.3   561  THR561      0.1862
    102  C        182.5190   -6.3190   14.4340 C.2   561  THR561      0.2287
    103  O        182.5130   -7.5550   14.4430 O.2   561  THR561     -0.2866
    104  CB       184.1270   -5.2900   16.0160 C.3   561  THR561      0.1770
    105  OG1      183.0700   -4.5000   16.5760 O.3   561  THR561     -0.2211
    106  CG2      185.4550   -4.5780   16.1880 C.3   561  THR561      0.0375
    107  N        180.3980   -5.9070   16.8520 N.3   563  ASP563     -0.1239
    108  CA       180.0060   -5.9170   18.2510 C.3   563  ASP563      0.1674
    109  C        179.3320   -4.5990   18.6180 C.2   563  ASP563      0.2266
    110  O        179.6340   -3.5440   18.0530 O.2   563  ASP563     -0.2867
    111  CB       181.2190   -6.1290   19.1590 C.3   563  ASP563      0.1410
    112  CG       181.9550   -7.4220   18.8620 C.2   563  ASP563      0.3668
    113  OD1      181.2890   -8.4680   18.7380 O.co2 563  ASP563     -0.2456
    114  OD2      183.2020   -7.3870   18.7500 O.co2 563  ASP563     -0.2456
    115  N        180.9350   -3.7240   26.7110 N.3   575  PHE575     -0.1241
    116  CA       180.5020   -4.6330   25.6570 C.3   575  PHE575      0.1605
    117  C        179.0280   -4.9820   25.8250 C.2   575  PHE575      0.2264
    118  O        178.5510   -5.1980   26.9430 O.2   575  PHE575     -0.2867
    119  CB       181.3510   -5.9060   25.6800 C.3   575  PHE575      0.0534
    120  CG       180.9770   -6.9130   24.6270 C.ar  575  PHE575     -0.0203
    121  CD1      181.3550   -6.7300   23.3070 C.ar  575  PHE575     -0.0042
    122  CD2      180.2690   -8.0560   24.9620 C.ar  575  PHE575     -0.0042
    123  CE1      181.0180   -7.6600   22.3410 C.ar  575  PHE575     -0.0003
    124  CE2      179.9290   -8.9880   23.9970 C.ar  575  PHE575     -0.0003
    125  CZ       180.3070   -8.7890   22.6870 C.ar  575  PHE575     -0.0000
    126  N        176.6640   -9.0160   20.2850 N.3   578  ARG578     -0.1245
    127  CA       176.7830   -8.8700   18.8430 C.3   578  ARG578      0.1563
    128  C        175.6460   -8.0080   18.2950 C.2   578  ARG578      0.2260
    129  O        174.7000   -7.6490   19.0030 O.2   578  ARG578     -0.2867
    130  CB       176.7810  -10.2400   18.1650 C.3   578  ARG578      0.0307
    131  CG       177.9340  -11.1440   18.5850 C.3   578  ARG578      0.0489
    132  CD       179.2590  -10.6600   18.0260 C.3   578  ARG578      0.2205
    133  NE       179.2460  -10.5880   16.5660 N.pl3 578  ARG578     -0.0865
    134  CZ       180.3100  -10.3240   15.8150 C.cat 578  ARG578      0.5346
    135  NH1      181.4940  -10.1100   16.3760 N.pl3 578  ARG578      0.1354
    136  NH2      180.1900  -10.2790   14.4950 N.pl3 578  ARG578      0.1354
@<TRIPOS>BOND
     1     6     5    1
     2    88    89    1
     3    88    87    1
     4    91    89   ar
     5     1     2    1
     6     4     3    2
     7    11    10    2
     8    89    90   ar
     9    87    84    1
    10    86    85    2
    11     5     2    1
    12     5     7    1
    13    10     9    1
    14     3     2    1
    15     3     8   am
    16    84    85    1
    17    84    83    1
    18   100   101    1
    19     8     9    1
    20     9    12    1
    21    83    78   am
    22   102   103    2
    23   102   101    1
    24   136   134    1
    25    79    78    2
    26   101   104    1
    27    82    80    1
    28    78    77    1
    29    13    12    1
    30    80    77    1
    31    80    81    1
    32   134   135    1
    33   134   133    2
    34    77    76    1
    35   104   106    1
    36   104   105    1
    37    74    73    1
    38    74    75    1
    39    73    70    1
    40   133   132    1
    41    76    71   am
    42   107   108    1
    43    71    72    2
    44    71    70    1
    45    70    69    1
    46    75    69    1
    47   132   131    1
    48   110   109    2
    49   130   131    1
    50   130   127    1
    51   108   109    1
    52   108   111    1
    53   128   127    1
    54   128   129    2
    55    69    67   am
    56   113   112   ar
    57   114   112   ar
    58   127   126    1
    59   112   111    1
    60    64    63    1
    61    67    68    2
    62    67    66    1
    63    63    61   ar
    64    63    62   ar
    65    66    65    1
    66    61    59   ar
    67    62    60   ar
    68    65    55   am
    69    59    58   ar
    70   123   125   ar
    71   123   121   ar
    72   125   124   ar
    73    60    58   ar
    74    58    57    1
    75    55    56    2
    76    55    54    1
    77   121   120   ar
    78    17    16    2
    79   124   122   ar
    80    24    23   ar
    81    54    57    1
    82    54    53    1
    83    16    15    1
    84    16    18   am
    85   120   122   ar
    86   120   119    1
    87    15    14    1
    88    99    97    1
    89    23    25   ar
    90    23    22    1
    91    53    51   am
    92   116   119    1
    93   116   117    1
    94   116   115    1
    95    18    19    1
    96   117   118    2
    97    19    22    1
    98    19    20    1
    99    97    96    1
   100    51    52    2
   101    51    50    1
   102    32    30    1
   103    20    26   am
   104    20    21    2
   105    26    27    1
   106    96    98    1
   107    96    93    1
   108    50    49    1
   109    95    94    2
   110    30    27    1
   111    30    31    1
   112    27    28    1
   113    94    93    1
   114    93    92    1
   115    49    43   am
   116    28    29    2
   117    28    33   am
   118    47    46    2
   119    43    44    2
   120    43    42    1
   121    33    34    1
   122    48    46   am
   123    46    45    1
   124    42    45    1
   125    42    41    1
   126    34    37    1
   127    34    35    1
   128    37    38    1
   129    36    35    2
   130    38    40    1
   131    38    39    1
