@<TRIPOS>MOLECULE
tmp/5esdD01.pdb
 133 129 0 0 0
SMALL
GASTEIGER

@<TRIPOS>ATOM
      1  N         71.1180    7.2390  -18.2390 N.3   365  ALA365     -0.1231
      2  CA        70.2720    8.4190  -18.2520 C.3   365  ALA365      0.1694
      3  C         71.0670    9.6400  -17.7920 C.2   365  ALA365      0.2593
      4  O         72.2730    9.5760  -17.5420 O.2   365  ALA365     -0.2718
      5  CB        69.0440    8.1950  -17.3750 C.3   365  ALA365      0.0304
      6  N         70.3680   10.7720  -17.6860 N.am  366  SER366     -0.1938
      7  CA        70.9500   12.0510  -17.2890 C.3   366  SER366      0.2055
      8  C         71.8740   12.5660  -18.3900 C.2   366  SER366      0.2643
      9  O         71.6260   12.3080  -19.5720 O.2   366  SER366     -0.2714
     10  CB        71.6800   11.9210  -15.9450 C.3   366  SER366      0.2130
     11  OG        71.7420   13.1500  -15.2410 O.3   366  SER366     -0.2179
     12  N         72.9390   13.2840  -18.0210 N.am  367  ASN367     -0.1958
     13  CA        73.8100   13.8940  -19.0260 C.3   367  ASN367      0.1804
     14  C         74.4080   12.9220  -20.0420 C.2   367  ASN367      0.2463
     15  O         74.4720   13.2930  -21.2270 O.2   367  ASN367     -0.2730
     16  CB        74.9320   14.6780  -18.3350 C.3   367  ASN367      0.1195
     17  CG        74.5140   16.0770  -17.9660 C.2   367  ASN367      0.2630
     18  OD1       73.5140   16.5830  -18.4650 O.2   367  ASN367     -0.2716
     19  ND2       75.2770   16.7150  -17.0880 N.am  367  ASN367     -0.0877
     20  N         74.8870   11.7220  -19.6730 N.am  368  PRO368     -0.2727
     21  CA        75.5120   10.8380  -20.6810 C.3   368  PRO368      0.1402
     22  C         74.7840   10.7020  -22.0110 C.2   368  PRO368      0.2269
     23  O         75.4060   10.8800  -23.0660 O.2   368  PRO368     -0.2865
     24  CB        75.5760    9.4960  -19.9480 C.3   368  PRO368      0.0296
     25  CG        75.7270    9.8590  -18.5310 C.3   368  PRO368      0.0237
     26  CD        75.0630   11.1880  -18.3110 C.3   368  PRO368      0.0939
     27  N         63.4740    6.4090  -18.1170 N.3   391  ALA391     -0.1231
     28  CA        64.6730    7.2350  -17.9850 C.3   391  ALA391      0.1694
     29  C         65.1670    7.2660  -16.5410 C.2   391  ALA391      0.2593
     30  O         65.6750    8.2790  -16.0580 O.2   391  ALA391     -0.2718
     31  CB        64.4410    8.6540  -18.5170 C.3   391  ALA391      0.0304
     32  N         65.0140    6.1460  -15.8420 N.am  392  GLY392     -0.1942
     33  CA        65.5790    6.0350  -14.5150 C.3   392  GLY392      0.2014
     34  C         67.0900    5.9080  -14.5410 C.2   392  GLY392      0.2639
     35  O         67.6970    5.4460  -15.5060 O.2   392  GLY392     -0.2714
     36  N         67.7250    6.3390  -13.4480 N.am  393  ILE393     -0.1963
     37  CA        69.1500    6.0770  -13.2760 C.3   393  ILE393      0.1727
     38  C         69.4080    4.7660  -12.5440 C.2   393  ILE393      0.2616
     39  O         70.5700    4.4370  -12.2690 O.2   393  ILE393     -0.2715
     40  CB        69.8600    7.2270  -12.5340 C.3   393  ILE393      0.0290
     41  CG1       69.3700    7.3190  -11.0900 C.3   393  ILE393      0.0022
     42  CG2       69.6530    8.5440  -13.2640 C.3   393  ILE393      0.0023
     43  CD1       70.2030    8.2340  -10.2400 C.3   393  ILE393      0.0001
     44  N         68.3670    4.0040  -12.2280 N.am  394  ASP394     -0.1971
     45  CA        68.5150    2.7370  -11.5340 C.3   394  ASP394      0.1709
     46  C         68.7280    1.5990  -12.5270 C.2   394  ASP394      0.2293
     47  O         68.2190    1.6260  -13.6480 O.2   394  ASP394     -0.2864
     48  CB        67.2840    2.4570  -10.6670 C.3   394  ASP394      0.1436
     49  CG        65.9730    2.5460  -11.4480 C.2   394  ASP394      0.3671
     50  OD1       65.8610    3.3880  -12.3650 O.co2 394  ASP394     -0.2456
     51  OD2       65.0460    1.7690  -11.1350 O.co2 394  ASP394     -0.2456
     52  N         76.8730    8.0080  -15.5570 N.3   426  GLY426     -0.1210
     53  CA        77.3290    8.9330  -14.5440 C.3   426  GLY426      0.1956
     54  C         77.6110    8.2360  -13.2270 C.2   426  GLY426      0.2612
     55  O         77.3380    7.0510  -13.0490 O.2   426  GLY426     -0.2717
     56  N         78.1630    9.0000  -12.2810 N.am  427  ASP427     -0.1959
     57  CA        78.6110    8.3950  -11.0300 C.3   427  ASP427      0.1840
     58  C         77.4380    8.0230  -10.1360 C.2   427  ASP427      0.2622
     59  O         77.4680    6.9830   -9.4690 O.2   427  ASP427     -0.2715
     60  CB        79.5690    9.3320  -10.2950 C.3   427  ASP427      0.1450
     61  CG        79.0260   10.7340  -10.1590 C.2   427  ASP427      0.3671
     62  OD1       79.1590   11.5050  -11.1240 O.co2 427  ASP427     -0.2456
     63  OD2       78.4820   11.0720   -9.0900 O.co2 427  ASP427     -0.2456
     64  N         76.4020    8.8630  -10.1000 N.am  428  LEU428     -0.1963
     65  CA        75.1910    8.5120   -9.3690 C.3   428  LEU428      0.1728
     66  C         74.5730    7.2360   -9.9230 C.2   428  LEU428      0.2616
     67  O         74.1900    6.3370   -9.1660 O.2   428  LEU428     -0.2715
     68  CB        74.1880    9.6630   -9.4320 C.3   428  LEU428      0.0311
     69  CG        74.1110   10.6090   -8.2350 C.3   428  LEU428      0.0022
     70  CD1       75.4830   11.1390   -7.8660 C.3   428  LEU428      0.0001
     71  CD2       73.1390   11.7530   -8.5270 C.3   428  LEU428      0.0001
     72  N         74.4620    7.1490  -11.2500 N.am  429  THR429     -0.1951
     73  CA        73.9620    5.9390  -11.8940 C.3   429  THR429      0.1897
     74  C         74.7760    4.7180  -11.4870 C.2   429  THR429      0.2313
     75  O         74.2170    3.6550  -11.1970 O.2   429  THR429     -0.2863
     76  CB        73.9980    6.1230  -13.4120 C.3   429  THR429      0.1794
     77  OG1       73.2210    7.2690  -13.7750 O.3   429  THR429     -0.2208
     78  CG2       73.4600    4.9000  -14.1230 C.3   429  THR429      0.0378
     79  N         74.0290    3.8280   -7.8430 N.3   432  HIS432     -0.1241
     80  CA        72.6860    3.2690   -7.7140 C.3   432  HIS432      0.1621
     81  C         72.6820    1.7570   -7.9250 C.2   432  HIS432      0.2264
     82  O         72.0430    1.0210   -7.1660 O.2   432  HIS432     -0.2867
     83  CB        71.7530    3.9550   -8.7160 C.3   432  HIS432      0.0745
     84  CG        70.3560    4.1600   -8.2160 C.ar  432  HIS432      0.0817
     85  ND1       69.4660    3.1220   -8.0420 N.ar  432  HIS432     -0.2268
     86  CD2       69.6890    5.2880   -7.8730 C.ar  432  HIS432      0.1154
     87  CE1       68.3170    3.6000   -7.6000 C.ar  432  HIS432      0.1986
     88  NE2       68.4250    4.9110   -7.4910 N.ar  432  HIS432     -0.2212
     89  N         81.7780    8.4660  -15.8650 N.3   454  SER454     -0.1217
     90  CA        82.1470    9.8740  -15.8080 C.3   454  SER454      0.1889
     91  C         81.7000   10.4030  -14.4510 C.2   454  SER454      0.2288
     92  O         80.5010   10.4810  -14.1720 O.2   454  SER454     -0.2866
     93  CB        81.5130   10.6450  -16.9600 C.3   454  SER454      0.2089
     94  OG        81.9470   11.9900  -16.9680 O.3   454  SER454     -0.2183
     95  N         81.5960   13.2430  -11.7380 N.3   456  ASP456     -0.1239
     96  CA        81.6900   14.6130  -11.2480 C.3   456  ASP456      0.1674
     97  C         81.0920   14.7430   -9.8500 C.2   456  ASP456      0.2266
     98  O         80.6130   15.8130   -9.4680 O.2   456  ASP456     -0.2867
     99  CB        81.0390   15.5990  -12.2220 C.3   456  ASP456      0.1410
    100  CG        79.6600   15.1600  -12.6850 C.2   456  ASP456      0.3668
    101  OD1       78.9790   14.4310  -11.9410 O.co2 456  ASP456     -0.2456
    102  OD2       79.2490   15.5570  -13.7960 O.co2 456  ASP456     -0.2456
    103  N         78.3630   13.8470   -8.2820 N.3   458  GLY458     -0.1210
    104  CA        77.0180   14.3550   -8.1600 C.3   458  GLY458      0.1956
    105  C         76.2860   14.2930   -9.4840 C.2   458  GLY458      0.2612
    106  O         76.7740   13.7360  -10.4630 O.2   458  GLY458     -0.2717
    107  N         75.0890   14.8730   -9.4750 N.am  459  GLY459     -0.1942
    108  CA        74.2510   14.9450  -10.6530 C.3   459  GLY459      0.2014
    109  C         74.5090   16.2120  -11.4390 C.2   459  GLY459      0.2639
    110  O         73.9310   17.2600  -11.1370 O.2   459  GLY459     -0.2714
    111  N         75.3840   16.1250  -12.4460 N.am  460  GLY460     -0.1939
    112  CA        75.7470   17.2890  -13.2360 C.3   460  GLY460      0.2014
    113  C         74.6030   17.8910  -14.0280 C.2   460  GLY460      0.2639
    114  O         74.6470   19.0800  -14.3610 O.2   460  GLY460     -0.2714
    115  N         73.5730   17.1020  -14.3330 N.am  461  ILE461     -0.1963
    116  CA        72.4770   17.6040  -15.1480 C.3   461  ILE461      0.1727
    117  C         71.7380   18.7490  -14.4670 C.2   461  ILE461      0.2616
    118  O         71.1200   19.5730  -15.1470 O.2   461  ILE461     -0.2715
    119  CB        71.5120   16.4580  -15.4910 C.3   461  ILE461      0.0290
    120  CG1       70.6290   16.8540  -16.6760 C.3   461  ILE461      0.0022
    121  CG2       70.6820   16.0920  -14.2690 C.3   461  ILE461      0.0023
    122  CD1       69.6850   15.7730  -17.1270 C.3   461  ILE461      0.0001
    123  N         71.7910   18.8320  -13.1380 N.am  462  PHE462     -0.1974
    124  CA        71.0720   19.8900  -12.4420 C.3   462  PHE462      0.1639
    125  C         71.8210   21.2160  -12.4460 C.2   462  PHE462      0.2290
    126  O         71.2220   22.2460  -12.1150 O.2   462  PHE462     -0.2864
    127  CB        70.7500   19.4450  -11.0130 C.3   462  PHE462      0.0560
    128  CG        69.8600   18.2390  -10.9590 C.ar  462  PHE462     -0.0200
    129  CD1       68.5700   18.2990  -11.4590 C.ar  462  PHE462     -0.0042
    130  CD2       70.3160   17.0400  -10.4360 C.ar  462  PHE462     -0.0042
    131  CE1       67.7450   17.1940  -11.4270 C.ar  462  PHE462     -0.0003
    132  CE2       69.4930   15.9250  -10.4010 C.ar  462  PHE462     -0.0003
    133  CZ        68.2060   16.0030  -10.8980 C.ar  462  PHE462     -0.0000
@<TRIPOS>BOND
     1    23    22    2
     2    22    21    1
     3    15    14    2
     4    21    24    1
     5    21    20    1
     6    14    20   am
     7    14    13    1
     8    24    25    1
     9    20    26    1
    10     9     8    2
    11    13    16    1
    12    13    12    1
    13    25    26    1
    14    31    28    1
    15    18    17    2
    16     8    12   am
    17     8     7    1
    18    16    17    1
    19     2     1    1
    20     2     3    1
    21     2     5    1
    22    27    28    1
    23    28    29    1
    24    17    19   am
    25     3     6   am
    26     3     4    2
    27     6     7    1
    28     7    10    1
    29   122   120    1
    30    94    93    1
    31    93    90    1
    32   120   119    1
    33    29    30    2
    34    29    32   am
    35    10    11    1
    36    89    90    1
    37    32    33    1
    38    90    91    1
    39    52    53    1
    40    35    34    2
    41   119   116    1
    42   119   121    1
    43   116   117    1
    44   116   115    1
    45   118   117    2
    46    53    54    1
    47    34    33    1
    48    34    36   am
    49   117   123   am
    50    91    92    2
    51   114   113    2
    52   115   113   am
    53    78    76    1
    54   113   112    1
    55   102   100   ar
    56    77    76    1
    57    47    46    2
    58    36    37    1
    59    76    73    1
    60    37    38    1
    61    37    40    1
    62    42    40    1
    63   112   111    1
    64    54    55    2
    65    54    56   am
    66   123   124    1
    67   100    99    1
    68   100   101   ar
    69    38    39    2
    70    38    44   am
    71    40    41    1
    72    46    45    1
    73   125   124    1
    74   125   126    2
    75   111   109   am
    76   124   127    1
    77    50    49   ar
    78    56    57    1
    79    44    45    1
    80    99    96    1
    81    73    74    1
    82    73    72    1
    83    95    96    1
    84    45    48    1
    85    74    75    2
    86   129   131   ar
    87   129   128   ar
    88    49    51   ar
    89    49    48    1
    90   109   110    2
    91   109   108    1
    92   131   133   ar
    93    72    66   am
    94    96    97    1
    95    62    61   ar
    96    41    43    1
    97    57    60    1
    98    57    58    1
    99   127   128    1
   100   128   130   ar
   101   133   132   ar
   102   108   107    1
   103   106   105    2
   104   130   132   ar
   105    60    61    1
   106    61    63   ar
   107    58    64   am
   108    58    59    2
   109    64    65    1
   110    66    65    1
   111    66    67    2
   112    97    98    2
   113   105   107   am
   114   105   104    1
   115    68    65    1
   116    68    69    1
   117    83    84    1
   118    83    80    1
   119    71    69    1
   120   103   104    1
   121    69    70    1
   122    84    85   ar
   123    84    86   ar
   124    85    87   ar
   125    81    80    1
   126    81    82    2
   127    86    88   ar
   128    79    80    1
   129    87    88   ar
