@<TRIPOS>MOLECULE
tmp/5esdB01.pdb
 76 70 0 0 0
SMALL
GASTEIGER

@<TRIPOS>ATOM
      1  N         20.4330   10.8270  -17.0280 N.3    27  PRO27      -0.2102
      2  CA        20.3300   12.1100  -16.3330 C.3    27  PRO27       0.1504
      3  C         21.1790   12.1580  -15.0750 C.2    27  PRO27       0.2576
      4  O         21.3990   11.1560  -14.3920 O.2    27  PRO27      -0.2718
      5  CB        18.8390   12.2120  -16.0000 C.3    27  PRO27       0.0282
      6  CG        18.3790   10.7870  -15.9170 C.3    27  PRO27       0.0208
      7  CD        19.1930   10.0380  -16.9330 C.3    27  PRO27       0.0893
      8  N         21.6630   13.3520  -14.7840 N.am   28  GLY28      -0.1943
      9  CA        22.3750   13.6140  -13.5510 C.3    28  GLY28       0.2014
     10  C         22.6630   15.0930  -13.4970 C.2    28  GLY28       0.2639
     11  O         22.3870   15.8330  -14.4430 O.2    28  GLY28      -0.2714
     12  N         23.2110   15.5220  -12.3670 N.am   29  SER29      -0.1949
     13  CA        23.6100   16.9160  -12.2480 C.3    29  SER29       0.1924
     14  C         25.0790   17.1140  -12.5860 C.2    29  SER29       0.2314
     15  O         25.4370   18.0850  -13.2580 O.2    29  SER29      -0.2863
     16  CB        23.3270   17.4290  -10.8370 C.3    29  SER29       0.2116
     17  OG        21.9650   17.7700  -10.7010 O.3    29  SER29      -0.2180
     18  N         16.8500    6.2580  -18.6530 N.3    53  ILE53      -0.1245
     19  CA        16.8670    6.4010  -17.2010 C.3    53  ILE53       0.1561
     20  C         17.8070    5.3880  -16.5560 C.2    53  ILE53       0.2260
     21  O         18.5090    5.7070  -15.5950 O.2    53  ILE53      -0.2867
     22  CB        15.4290    6.2790  -16.6450 C.3    53  ILE53       0.0252
     23  CG1       14.5670    7.4810  -17.0490 C.3    53  ILE53       0.0019
     24  CG2       15.4320    6.1650  -15.1280 C.3    53  ILE53       0.0019
     25  CD1       14.0460    7.4610  -18.4760 C.3    53  ILE53       0.0001
     26  N         21.0310    3.1160  -16.5320 N.3    55  GLU55      -0.1245
     27  CA        22.3390    3.1280  -17.1880 C.3    55  GLU55       0.1567
     28  C         22.7290    1.7610  -17.7320 C.2    55  GLU55       0.2260
     29  O         23.3990    1.6760  -18.7680 O.2    55  GLU55      -0.2867
     30  CB        23.4140    3.6140  -16.2210 C.3    55  GLU55       0.0388
     31  CG        23.3670    5.0840  -15.9400 C.3    55  GLU55       0.1160
     32  CD        22.3750    5.4390  -14.8600 C.2    55  GLU55       0.3649
     33  OE1       21.7650    4.5240  -14.2600 O.co2  55  GLU55      -0.2457
     34  OE2       22.2110    6.6490  -14.6180 O.co2  55  GLU55      -0.2457
     35  N         26.2800   10.3960  -15.1460 N.3    78  THR78      -0.1203
     36  CA        26.8160   11.1250  -14.0090 C.3    78  THR78       0.1994
     37  C         27.6730   10.2130  -13.1330 C.2    78  THR78       0.2618
     38  O         27.7390    8.9980  -13.3270 O.2    78  THR78      -0.2717
     39  CB        25.6860   11.7430  -13.1840 C.3    78  THR78       0.1784
     40  OG1       26.2290   12.7350  -12.3040 O.3    78  THR78      -0.2211
     41  CG2       24.9590   10.6690  -12.3630 C.3    78  THR78       0.0376
     42  N         28.3310   10.8200  -12.1500 N.am   79  SER79      -0.1951
     43  CA        29.2380   10.0860  -11.2870 C.3    79  SER79       0.1924
     44  C         28.4690    9.1710  -10.3350 C.2    79  SER79       0.2314
     45  O         27.2740    9.3450  -10.0890 O.2    79  SER79      -0.2863
     46  CB        30.1140   11.0520  -10.4920 C.3    79  SER79       0.2116
     47  OG        29.3450   11.7740   -9.5480 O.3    79  SER79      -0.2180
     48  N         27.2250    5.2680   -8.8470 N.3    81  THR81      -0.1203
     49  CA        26.8070    3.9380   -9.2910 C.3    81  THR81       0.1994
     50  C         26.3130    3.9190  -10.7330 C.2    81  THR81       0.2617
     51  O         26.1950    2.8350  -11.3170 O.2    81  THR81      -0.2717
     52  CB        25.7060    3.3840   -8.3820 C.3    81  THR81       0.1784
     53  OG1       24.6850    4.3760   -8.1900 O.3    81  THR81      -0.2211
     54  CG2       26.2760    2.9790   -7.0370 C.3    81  THR81       0.0376
     55  N         26.0040    5.0790  -11.3160 N.am   82  ALA82      -0.1979
     56  CA        25.6510    5.1080  -12.7300 C.3    82  ALA82       0.1597
     57  C         26.7930    4.5760  -13.5860 C.2    82  ALA82       0.2287
     58  O         26.5650    3.8270  -14.5450 O.2    82  ALA82      -0.2864
     59  CB        25.2710    6.5290  -13.1490 C.3    82  ALA82       0.0319
     60  N         27.1320    0.9120  -13.2340 N.3    85  ASN85      -0.1240
     61  CA        26.0790    0.2200  -13.9650 C.3    85  ASN85       0.1653
     62  C         26.4550   -0.0410  -15.4130 C.2    85  ASN85       0.2266
     63  O         25.7920   -0.8490  -16.0700 O.2    85  ASN85      -0.2867
     64  CB        24.7720    1.0140  -13.8960 C.3    85  ASN85       0.1155
     65  CG        23.8560    0.5310  -12.7840 C.2    85  ASN85       0.2627
     66  OD1       23.1520   -0.4670  -12.9380 O.2    85  ASN85      -0.2716
     67  ND2       23.8620    1.2350  -11.6620 N.am   85  ASN85      -0.0877
     68  N         28.0870   10.9960   -3.6770 N.3   118  GLN118     -0.1245
     69  CA        27.9760   10.4030   -5.0090 C.3   118  GLN118      0.1566
     70  C         29.3340   10.2190   -5.6800 C.2   118  GLN118      0.2260
     71  O         29.4390   10.2880   -6.9060 O.2   118  GLN118     -0.2867
     72  CB        27.0540   11.2400   -5.9040 C.3   118  GLN118      0.0367
     73  CG        26.0610   10.4450   -6.7250 C.3   118  GLN118      0.0905
     74  CD        25.1860   11.3370   -7.5810 C.2   118  GLN118      0.2608
     75  OE1       24.0500   11.6440   -7.2210 O.2   118  GLN118     -0.2717
     76  NE2       25.7140   11.7600   -8.7230 N.am  118  GLN118     -0.0878
@<TRIPOS>BOND
     1    29    28    2
     2    18    19    1
     3    25    23    1
     4    28    27    1
     5    19    22    1
     6    19    20    1
     7    27    26    1
     8    27    30    1
     9    23    22    1
    10     1     7    1
    11     1     2    1
    12     7     6    1
    13    22    24    1
    14    20    21    2
    15     2     5    1
    16     2     3    1
    17    30    31    1
    18    63    62    2
    19     5     6    1
    20    31    32    1
    21    62    61    1
    22    35    36    1
    23     3     8   am
    24     3     4    2
    25    32    34   ar
    26    32    33   ar
    27     8     9    1
    28    58    57    2
    29    11    10    2
    30    36    39    1
    31    36    37    1
    32    61    64    1
    33    61    60    1
    34    64    65    1
    35    57    56    1
    36     9    10    1
    37    10    12   am
    38    38    37    2
    39    15    14    2
    40    39    41    1
    41    39    40    1
    42    59    56    1
    43    37    42   am
    44    66    65    2
    45    65    67   am
    46    56    55    1
    47    14    13    1
    48    12    13    1
    49    13    16    1
    50    42    43    1
    51    51    50    2
    52    55    50   am
    53    43    46    1
    54    43    44    1
    55    16    17    1
    56    50    49    1
    57    46    47    1
    58    44    45    2
    59    49    48    1
    60    49    52    1
    61    76    74   am
    62    52    53    1
    63    52    54    1
    64    74    75    2
    65    74    73    1
    66    71    70    2
    67    73    72    1
    68    72    69    1
    69    70    69    1
    70    69    68    1
