@<TRIPOS>MOLECULE
tmp/5esqC00.pdb
 158 153 0 0 0
SMALL
GASTEIGER

@<TRIPOS>ATOM
      1  N         15.8590  -14.4860  -22.3450 N.3     9  VAL9       -0.1231
      2  CA        15.3100  -13.3190  -23.0180 C.3     9  VAL9        0.1692
      3  C         14.2650  -13.7770  -24.0310 C.2     9  VAL9        0.2591
      4  O         13.2350  -13.1300  -24.2200 O.2     9  VAL9       -0.2718
      5  CB        16.4120  -12.5110  -23.7250 C.3     9  VAL9        0.0266
      6  CG1       15.8260  -11.2770  -24.3920 C.3     9  VAL9        0.0020
      7  CG2       17.4980  -12.1220  -22.7310 C.3     9  VAL9        0.0020
      8  N         14.5400  -14.9090  -24.6710 N.am   10  ILE10      -0.1980
      9  CA        13.6090  -15.5140  -25.6140 C.3    10  ILE10       0.1595
     10  C         13.3830  -16.9740  -25.2500 C.2    10  ILE10       0.2287
     11  O         14.3340  -17.7400  -25.1040 O.2    10  ILE10      -0.2864
     12  CB        14.1410  -15.4440  -27.0560 C.3    10  ILE10       0.0276
     13  CG1       14.3320  -13.9900  -27.4890 C.3    10  ILE10       0.0022
     14  CG2       13.1930  -16.1590  -28.0080 C.3    10  ILE10       0.0022
     15  CD1       13.0370  -13.2270  -27.6410 C.3    10  ILE10       0.0001
     16  N          1.5210   -9.8060  -21.2390 N.3    38  GLN38      -0.1231
     17  CA         1.1550   -8.7560  -22.1800 C.3    38  GLN38       0.1698
     18  C          1.0440   -9.2810  -23.6050 C.2    38  GLN38       0.2592
     19  O          2.0470   -9.6120  -24.2360 O.2    38  GLN38      -0.2718
     20  CB         2.1430   -7.5910  -22.1230 C.3    38  GLN38       0.0381
     21  CG         1.7410   -6.4230  -23.0120 C.3    38  GLN38       0.0905
     22  CD         2.6250   -5.2090  -22.8250 C.2    38  GLN38       0.2608
     23  OE1        3.8310   -5.3300  -22.6120 O.2    38  GLN38      -0.2717
     24  NE2        2.0260   -4.0260  -22.8990 N.am   38  GLN38      -0.0878
     25  N         -0.1850   -9.3540  -24.1030 N.am   39  ARG39      -0.1966
     26  CA        -0.4310   -9.7520  -25.4820 C.3    39  ARG39       0.1729
     27  C         -0.3020   -8.5460  -26.4070 C.2    39  ARG39       0.2617
     28  O         -0.2610   -7.4060  -25.9450 O.2    39  ARG39      -0.2715
     29  CB        -1.8160  -10.3900  -25.6150 C.3    39  ARG39       0.0348
     30  CG        -1.9110  -11.7790  -25.0010 C.3    39  ARG39       0.0492
     31  CD        -3.3510  -12.2590  -24.9040 C.3    39  ARG39       0.2205
     32  NE        -3.4260  -13.6650  -24.5170 N.pl3  39  ARG39      -0.0865
     33  CZ        -4.5340  -14.2690  -24.1000 C.cat  39  ARG39       0.5346
     34  NH1       -5.6670  -13.5880  -24.0050 N.pl3  39  ARG39       0.1354
     35  NH2       -4.5070  -15.5540  -23.7710 N.pl3  39  ARG39       0.1354
     36  N         -0.2360   -8.8070  -27.7100 N.am   40  THR40      -0.1937
     37  CA        -0.0670   -7.7520  -28.7080 C.3    40  THR40       0.2028
     38  C         -1.1570   -6.6820  -28.6130 C.2    40  THR40       0.2642
     39  O         -2.3470   -6.9980  -28.5500 O.2    40  THR40      -0.2714
     40  CB        -0.0320   -8.3310  -30.1380 C.3    40  THR40       0.1808
     41  OG1        0.9510   -9.3720  -30.2110 O.3    40  THR40      -0.2208
     42  CG2        0.3070   -7.2450  -31.1500 C.3    40  THR40       0.0379
     43  N         -0.7280   -5.4200  -28.5860 N.am   41  ASN41      -0.1957
     44  CA        -1.6160   -4.2600  -28.4620 C.3    41  ASN41       0.1819
     45  C         -2.4280   -4.2190  -27.1680 C.2    41  ASN41       0.2622
     46  O         -3.3810   -3.4480  -27.0500 O.2    41  ASN41      -0.2715
     47  CB        -2.5470   -4.1410  -29.6740 C.3    41  ASN41       0.1195
     48  CG        -1.7910   -3.9910  -30.9760 C.2    41  ASN41       0.2630
     49  OD1       -2.0260   -4.7270  -31.9340 O.2    41  ASN41      -0.2716
     50  ND2       -0.8750   -3.0300  -31.0190 N.am   41  ASN41      -0.0877
     51  N         -2.0420   -5.0390  -26.1980 N.am   42  GLY42      -0.1940
     52  CA        -2.7780   -5.1300  -24.9520 C.3    42  GLY42       0.2014
     53  C         -2.0560   -4.5370  -23.7590 C.2    42  GLY42       0.2639
     54  O         -0.8650   -4.2300  -23.8210 O.2    42  GLY42      -0.2714
     55  N         -2.7940   -4.3710  -22.6670 N.am   43  SER43      -0.1949
     56  CA        -2.2280   -3.9080  -21.4090 C.3    43  SER43       0.1924
     57  C         -1.8360   -5.1250  -20.5730 C.2    43  SER43       0.2314
     58  O         -2.3570   -6.2170  -20.7990 O.2    43  SER43      -0.2863
     59  CB        -3.2470   -3.0430  -20.6620 C.3    43  SER43       0.2116
     60  OG        -3.5450   -1.8650  -21.3920 O.3    43  SER43      -0.2180
     61  N          0.9830  -17.1190  -26.4520 N.3    83  ILE83      -0.1231
     62  CA         2.0130  -16.3320  -27.1230 C.3    83  ILE83       0.1692
     63  C          1.9450  -14.8670  -26.7000 C.2    83  ILE83       0.2592
     64  O          1.0560  -14.1270  -27.1240 O.2    83  ILE83      -0.2718
     65  CB         1.8990  -16.4320  -28.6580 C.3    83  ILE83       0.0266
     66  CG1        2.0980  -17.8800  -29.1110 C.3    83  ILE83       0.0019
     67  CG2        2.9210  -15.5270  -29.3290 C.3    83  ILE83       0.0020
     68  CD1        1.7960  -18.1120  -30.5770 C.3    83  ILE83       0.0001
     69  N          2.8880  -14.4640  -25.8530 N.am   84  ALA84      -0.1966
     70  CA         2.9410  -13.1010  -25.3350 C.3    84  ALA84       0.1728
     71  C          4.2640  -12.8490  -24.6220 C.2    84  ALA84       0.2616
     72  O          5.1320  -13.7210  -24.5760 O.2    84  ALA84      -0.2715
     73  CB         1.7780  -12.8490  -24.3830 C.3    84  ALA84       0.0334
     74  N          4.4130  -11.6490  -24.0710 N.am   85  ASP85      -0.1971
     75  CA         5.5540  -11.3310  -23.2240 C.3    85  ASP85       0.1709
     76  C          5.1560  -11.5440  -21.7700 C.2    85  ASP85       0.2293
     77  O          3.9900  -11.3810  -21.4120 O.2    85  ASP85      -0.2864
     78  CB         6.0060   -9.8860  -23.4390 C.3    85  ASP85       0.1436
     79  CG         6.4350   -9.6160  -24.8660 C.2    85  ASP85       0.3671
     80  OD1        6.9700  -10.5400  -25.5130 O.co2  85  ASP85      -0.2456
     81  OD2        6.2350   -8.4790  -25.3420 O.co2  85  ASP85      -0.2456
     82  N          6.1830  -10.6780  -17.6910 N.3    87  TYR87      -0.1241
     83  CA         6.9580   -9.8390  -16.7870 C.3    87  TYR87       0.1605
     84  C          6.7820  -10.2430  -15.3290 C.2    87  TYR87       0.2264
     85  O          5.7170  -10.7120  -14.9250 O.2    87  TYR87      -0.2867
     86  CB         6.5560   -8.3720  -16.9520 C.3    87  TYR87       0.0534
     87  CG         6.8240   -7.8030  -18.3250 C.ar   87  TYR87      -0.0201
     88  CD1        8.0510   -7.2330  -18.6320 C.ar   87  TYR87      -0.0009
     89  CD2        5.8470   -7.8280  -19.3120 C.ar   87  TYR87      -0.0009
     90  CE1        8.3020   -6.7080  -19.8840 C.ar   87  TYR87       0.0417
     91  CE2        6.0880   -7.3040  -20.5690 C.ar   87  TYR87       0.0417
     92  CZ         7.3180   -6.7460  -20.8480 C.ar   87  TYR87       0.1957
     93  OH         7.5670   -6.2230  -22.0960 O.3    87  TYR87      -0.2866
     94  N         12.7690   -7.1050  -17.0870 N.3   100  ALA100     -0.1231
     95  CA        12.8410   -6.6940  -18.4850 C.3   100  ALA100      0.1694
     96  C         11.8760   -7.4980  -19.3510 C.2   100  ALA100      0.2593
     97  O         11.4590   -7.0440  -20.4170 O.2   100  ALA100     -0.2718
     98  CB        14.2610   -6.8240  -19.0070 C.3   100  ALA100      0.0304
     99  N         11.5310   -8.6970  -18.8940 N.am  101  GLY101     -0.1942
    100  CA        10.5560   -9.5190  -19.5860 C.3   101  GLY101      0.2014
    101  C         11.1430  -10.6540  -20.4010 C.2   101  GLY101      0.2640
    102  O         12.3110  -10.6270  -20.7870 O.2   101  GLY101     -0.2714
    103  N         10.3150  -11.6610  -20.6580 N.am  102  THR102     -0.1936
    104  CA        10.6950  -12.8000  -21.4820 C.3   102  THR102      0.2028
    105  C          9.6500  -13.0020  -22.5720 C.2   102  THR102      0.2642
    106  O          8.4520  -13.0400  -22.2890 O.2   102  THR102     -0.2714
    107  CB        10.8030  -14.0900  -20.6440 C.3   102  THR102      0.1808
    108  OG1       12.0040  -14.0570  -19.8620 O.3   102  THR102     -0.2208
    109  CG2       10.8240  -15.3200  -21.5430 C.3   102  THR102      0.0379
    110  N         10.1000  -13.1210  -23.8160 N.am  103  LYS103     -0.1963
    111  CA         9.1880  -13.3500  -24.9300 C.3   103  LYS103      0.1728
    112  C          8.9560  -14.8420  -25.1500 C.2   103  LYS103      0.2616
    113  O          9.9010  -15.6320  -25.1740 O.2   103  LYS103     -0.2715
    114  CB         9.7170  -12.6990  -26.2090 C.3   103  LYS103      0.0311
    115  CG         8.7880  -12.8420  -27.4020 C.3   103  LYS103      0.0038
    116  CD         9.3060  -12.0750  -28.6050 C.3   103  LYS103      0.0206
    117  CE         8.3260  -12.1470  -29.7640 C.3   103  LYS103      0.1093
    118  NZ         8.7820  -11.3370  -30.9270 N.3   103  LYS103     -0.1314
    119  N          7.6910  -15.2200  -25.3070 N.am  104  LEU104     -0.1963
    120  CA         7.3270  -16.6200  -25.4820 C.3   104  LEU104      0.1728
    121  C          6.9530  -16.9270  -26.9270 C.2   104  LEU104      0.2616
    122  O          5.8640  -16.5780  -27.3850 O.2   104  LEU104     -0.2715
    123  CB         6.1710  -16.9910  -24.5500 C.3   104  LEU104      0.0311
    124  CG         5.6320  -18.4200  -24.6520 C.3   104  LEU104      0.0022
    125  CD1        6.7390  -19.4290  -24.3990 C.3   104  LEU104      0.0001
    126  CD2        4.4820  -18.6290  -23.6800 C.3   104  LEU104      0.0001
    127  N          7.8650  -17.5780  -27.6400 N.am  105  GLU105     -0.1977
    128  CA         7.6140  -17.9980  -29.0120 C.3   105  GLU105      0.1602
    129  C          7.1650  -19.4530  -29.0470 C.2   105  GLU105      0.2287
    130  O          7.5660  -20.2560  -28.2050 O.2   105  GLU105     -0.2864
    131  CB         8.8700  -17.8230  -29.8660 C.3   105  GLU105      0.0415
    132  CG         9.3080  -16.3800  -30.0460 C.3   105  GLU105      0.1163
    133  CD        10.5510  -16.2550  -30.9050 C.2   105  GLU105      0.3649
    134  OE1       11.2060  -17.2890  -31.1560 O.co2 105  GLU105     -0.2457
    135  OE2       10.8710  -15.1260  -31.3300 O.co2 105  GLU105     -0.2457
    136  N          6.1740   -7.1360  -40.2430 N.3   163  VAL163     -0.1231
    137  CA         5.8310   -8.5060  -39.8780 C.3   163  VAL163      0.1692
    138  C          4.9420   -8.5420  -38.6410 C.2   163  VAL163      0.2593
    139  O          5.1910   -7.8370  -37.6650 O.2   163  VAL163     -0.2718
    140  CB         7.0980   -9.3470  -39.6120 C.3   163  VAL163      0.0266
    141  CG1        6.7330  -10.7970  -39.3360 C.3   163  VAL163      0.0020
    142  CG2        8.0550   -9.2570  -40.7890 C.3   163  VAL163      0.0020
    143  N          3.9010   -9.3660  -38.6910 N.am  164  THR164     -0.1939
    144  CA         3.0090   -9.5440  -37.5530 C.3   164  THR164      0.2028
    145  C          3.6360  -10.4630  -36.5110 C.2   164  THR164      0.2642
    146  O          4.6290  -11.1390  -36.7810 O.2   164  THR164     -0.2714
    147  CB         1.6630  -10.1490  -37.9890 C.3   164  THR164      0.1808
    148  OG1        1.9020  -11.3010  -38.8070 O.3   164  THR164     -0.2208
    149  CG2        0.8490   -9.1350  -38.7780 C.3   164  THR164      0.0379
    150  N          3.0540  -10.4780  -35.3170 N.am  165  GLU165     -0.1976
    151  CA         3.4610  -11.4190  -34.2840 C.3   165  GLU165      0.1602
    152  C          2.7920  -12.7570  -34.5610 C.2   165  GLU165      0.2287
    153  O          1.8980  -12.8400  -35.4030 O.2   165  GLU165     -0.2864
    154  CB         3.0640  -10.9030  -32.9010 C.3   165  GLU165      0.0415
    155  CG         3.6980   -9.5690  -32.5270 C.3   165  GLU165      0.1163
    156  CD         5.1930   -9.6720  -32.2830 C.2   165  GLU165      0.3649
    157  OE1        5.6920  -10.7980  -32.0710 O.co2 165  GLU165     -0.2457
    158  OE2        5.8710   -8.6230  -32.3020 O.co2 165  GLU165     -0.2457
@<TRIPOS>BOND
     1   142   140    1
     2   136   137    1
     3   137   140    1
     4   137   138    1
     5   140   141    1
     6   148   147    1
     7   149   147    1
     8   143   138   am
     9   143   144    1
    10   138   139    2
    11   147   144    1
    12   144   145    1
    13   146   145    2
    14   145   150   am
    15   153   152    2
    16   150   151    1
    17   152   151    1
    18   151   154    1
    19   154   155    1
    20   155   156    1
    21   158   156   ar
    22   156   157   ar
    23    49    48    2
    24   135   133   ar
    25   134   133   ar
    26    42    40    1
    27    50    48   am
    28    48    47    1
    29   118   117    1
    30   133   132    1
    31    68    66    1
    32    41    40    1
    33    40    37    1
    34   132   131    1
    35   131   128    1
    36   117   116    1
    37    47    44    1
    38    67    65    1
    39    66    65    1
    40   129   128    1
    41   129   130    2
    42   128   127    1
    43    37    38    1
    44    37    36    1
    45    65    62    1
    46    38    43   am
    47    38    39    2
    48   116   115    1
    49    43    44    1
    50    44    45    1
    51    14    12    1
    52    36    27   am
    53    15    13    1
    54   127   121   am
    55    13    12    1
    56   115   114    1
    57   122   121    2
    58    45    46    2
    59    45    51   am
    60    64    63    2
    61    62    63    1
    62    62    61    1
    63    12     9    1
    64   121   120    1
    65    63    69   am
    66    27    28    2
    67    27    26    1
    68   114   111    1
    69    51    52    1
    70    69    70    1
    71    29    26    1
    72    29    30    1
    73     9    10    1
    74     9     8    1
    75    80    79   ar
    76   120   119    1
    77   120   123    1
    78    26    25    1
    79    81    79   ar
    80    70    71    1
    81    70    73    1
    82   119   112   am
    83    10    11    2
    84   113   112    2
    85   112   111    1
    86    30    31    1
    87    52    53    1
    88   111   110    1
    89    31    32    1
    90    79    78    1
    91     8     3   am
    92   124   123    1
    93   124   125    1
    94   124   126    1
    95    71    72    2
    96    71    74   am
    97    32    33    2
    98     6     5    1
    99    19    18    2
   100     4     3    2
   101    25    18   am
   102    33    34    1
   103    33    35    1
   104    74    75    1
   105     3     2    1
   106    54    53    2
   107   110   105   am
   108    53    55   am
   109     5     2    1
   110     5     7    1
   111    18    17    1
   112    78    75    1
   113    75    76    1
   114     2     1    1
   115    21    22    1
   116    21    20    1
   117    24    22   am
   118    22    23    2
   119    55    56    1
   120   105   106    2
   121   105   104    1
   122    17    20    1
   123    17    16    1
   124    93    92    1
   125    76    77    2
   126   109   107    1
   127   104   103    1
   128   104   107    1
   129    56    59    1
   130    56    57    1
   131    60    59    1
   132    92    91   ar
   133    92    90   ar
   134    58    57    2
   135   102   101    2
   136   103   101   am
   137   107   108    1
   138    91    89   ar
   139    97    96    2
   140   101   100    1
   141    90    88   ar
   142   100    99    1
   143    96    99   am
   144    96    95    1
   145    89    87   ar
   146    98    95    1
   147    88    87   ar
   148    95    94    1
   149    87    86    1
   150    82    83    1
   151    86    83    1
   152    83    84    1
   153    84    85    2
