@<TRIPOS>MOLECULE
tmp/5esqD00.pdb
 104 99 0 0 0
SMALL
GASTEIGER

@<TRIPOS>ATOM
      1  N          5.5450    2.3580  -20.0640 N.3    37  GLN37      -0.1231
      2  CA         6.3250    1.3090  -20.7080 C.3    37  GLN37       0.1698
      3  C          7.0600    1.8610  -21.9290 C.2    37  GLN37       0.2593
      4  O          6.4470    2.1600  -22.9530 O.2    37  GLN37      -0.2718
      5  CB         5.4150    0.1420  -21.1020 C.3    37  GLN37       0.0381
      6  CG         6.1470   -1.1640  -21.3600 C.3    37  GLN37       0.0905
      7  CD         5.2010   -2.3390  -21.5230 C.2    37  GLN37       0.2608
      8  OE1        4.0140   -2.1640  -21.7980 O.2    37  GLN37      -0.2717
      9  NE2        5.7250   -3.5470  -21.3500 N.am   37  GLN37      -0.0878
     10  N          8.3770    1.9970  -21.8060 N.am   38  SER38      -0.1939
     11  CA         9.1990    2.5790  -22.8630 C.3    38  SER38       0.2040
     12  C         10.2020    1.5600  -23.3970 C.2    38  SER38       0.2485
     13  O         10.5260    0.5920  -22.7120 O.2    38  SER38      -0.2729
     14  CB         9.9370    3.8120  -22.3350 C.3    38  SER38       0.2129
     15  OG        10.8560    3.4590  -21.3160 O.3    38  SER38      -0.2179
     16  N         10.6900    1.7680  -24.6320 N.am   39  PRO39      -0.2715
     17  CA        11.7150    0.8840  -25.1980 C.3    39  PRO39       0.1536
     18  C         12.9840    0.8550  -24.3500 C.2    39  PRO39       0.2599
     19  O         13.6130   -0.1950  -24.2170 O.2    39  PRO39      -0.2715
     20  CB        12.0110    1.5250  -26.5570 C.3    39  PRO39       0.0310
     21  CG        10.7560    2.2360  -26.9140 C.3    39  PRO39       0.0237
     22  CD        10.2020    2.7490  -25.6190 C.3    39  PRO39       0.0939
     23  N         13.3440    1.9970  -23.7740 N.am   40  GLY40      -0.1955
     24  CA        14.5720    2.1130  -23.0080 C.3    40  GLY40       0.1869
     25  C         14.5310    1.5050  -21.6180 C.2    40  GLY40       0.2309
     26  O         15.4220    0.7420  -21.2450 O.2    40  GLY40      -0.2863
     27  N         11.6080   -0.0080  -20.1690 N.3    42  GLY42      -0.1225
     28  CA        10.5380   -0.9760  -19.9990 C.3    42  GLY42       0.1811
     29  C          9.4300   -0.4720  -19.0940 C.2    42  GLY42       0.2280
     30  O          9.1440    0.7250  -19.0560 O.2    42  GLY42      -0.2866
     31  N          9.0090    9.2380  -24.4230 N.3    88  THR88      -0.1203
     32  CA         8.0750    8.6610  -25.3810 C.3    88  THR88       0.1994
     33  C          7.7510    7.2300  -24.9800 C.2    88  THR88       0.2618
     34  O          8.6080    6.3480  -25.0550 O.2    88  THR88      -0.2717
     35  CB         8.6590    8.6560  -26.8060 C.3    88  THR88       0.1784
     36  OG1        9.1220    9.9690  -27.1430 O.3    88  THR88      -0.2211
     37  CG2        7.6070    8.2160  -27.8130 C.3    88  THR88       0.0376
     38  N          6.5140    7.0040  -24.5520 N.am   89  ALA89      -0.1965
     39  CA         6.1100    5.6910  -24.0710 C.3    89  ALA89       0.1728
     40  C          4.5960    5.5370  -24.0180 C.2    89  ALA89       0.2616
     41  O          3.8490    6.4540  -24.3620 O.2    89  ALA89      -0.2715
     42  CB         6.7080    5.4300  -22.6930 C.3    89  ALA89       0.0334
     43  N          4.1580    4.3600  -23.5870 N.am   90  ILE90      -0.1977
     44  CA         2.7510    4.1040  -23.3290 C.3    90  ILE90       0.1596
     45  C          2.4960    4.3210  -21.8480 C.2    90  ILE90       0.2287
     46  O          3.1960    3.7620  -21.0060 O.2    90  ILE90      -0.2864
     47  CB         2.3730    2.6600  -23.6800 C.3    90  ILE90       0.0276
     48  CG1        2.8200    2.3250  -25.1030 C.3    90  ILE90       0.0022
     49  CG2        0.8760    2.4460  -23.5120 C.3    90  ILE90       0.0022
     50  CD1        2.6820    0.8660  -25.4470 C.3    90  ILE90       0.0001
     51  N          0.0290    3.9930  -18.6230 N.3    92  TYR92      -0.1241
     52  CA        -1.1220    3.3010  -18.0640 C.3    92  TYR92       0.1605
     53  C         -1.5050    3.8900  -16.7160 C.2    92  TYR92       0.2264
     54  O         -0.6450    4.3140  -15.9450 O.2    92  TYR92      -0.2867
     55  CB        -0.8150    1.8150  -17.8590 C.3    92  TYR92       0.0534
     56  CG        -0.2600    1.0900  -19.0620 C.ar   92  TYR92      -0.0201
     57  CD1       -1.1020    0.4510  -19.9630 C.ar   92  TYR92      -0.0009
     58  CD2        1.1090    1.0180  -19.2810 C.ar   92  TYR92      -0.0009
     59  CE1       -0.5960   -0.2240  -21.0570 C.ar   92  TYR92       0.0417
     60  CE2        1.6240    0.3450  -20.3710 C.ar   92  TYR92       0.0417
     61  CZ         0.7680   -0.2740  -21.2560 C.ar   92  TYR92       0.1957
     62  OH         1.2780   -0.9450  -22.3430 O.3    92  TYR92      -0.2866
     63  N         -6.4780    1.0860  -20.9440 N.3   109  GLN109     -0.1231
     64  CA        -6.0720    0.5640  -22.2460 C.3   109  GLN109      0.1698
     65  C         -4.7160    1.1250  -22.6670 C.2   109  GLN109      0.2592
     66  O         -4.0700    0.5960  -23.5700 O.2   109  GLN109     -0.2718
     67  CB        -7.1270    0.8560  -23.3180 C.3   109  GLN109      0.0381
     68  CG        -7.0410    2.2440  -23.9370 C.3   109  GLN109      0.0905
     69  CD        -7.6670    3.3190  -23.0710 C.2   109  GLN109      0.2608
     70  OE1       -7.9990    3.0870  -21.9080 O.2   109  GLN109     -0.2717
     71  NE2       -7.8390    4.5060  -23.6400 N.am  109  GLN109     -0.0878
     72  N         -4.2910    2.1950  -22.0040 N.am  110  GLY110     -0.1957
     73  CA        -2.9990    2.7960  -22.2740 C.3   110  GLY110      0.1869
     74  C         -3.0760    3.9510  -23.2520 C.2   110  GLY110      0.2309
     75  O         -3.9260    3.9700  -24.1420 O.2   110  GLY110     -0.2863
     76  N         -0.6410    6.0280  -25.9260 N.3   112  LEU112     -0.1245
     77  CA         0.6440    6.1660  -26.6000 C.3   112  LEU112      0.1561
     78  C          0.9460    7.6420  -26.7960 C.2   112  LEU112      0.2260
     79  O          0.1950    8.3730  -27.4510 O.2   112  LEU112     -0.2867
     80  CB         0.6680    5.4220  -27.9360 C.3   112  LEU112      0.0270
     81  CG         1.8910    5.6890  -28.8210 C.3   112  LEU112      0.0019
     82  CD1        3.2040    5.5050  -28.0590 C.3   112  LEU112      0.0001
     83  CD2        1.8490    4.7940  -30.0480 C.3   112  LEU112      0.0001
     84  N          1.6510    8.1410  -34.1810 N.3   146  GLU146     -0.1245
     85  CA         0.9460    6.9100  -33.8590 C.3   146  GLU146      0.1567
     86  C          0.0060    7.1710  -32.6810 C.2   146  GLU146      0.2260
     87  O          0.2010    8.1330  -31.9370 O.2   146  GLU146     -0.2867
     88  CB         1.9510    5.8070  -33.5140 C.3   146  GLU146      0.0388
     89  CG         2.7170    5.2670  -34.7090 C.3   146  GLU146      0.1160
     90  CD         3.3730    3.9300  -34.4210 C.2   146  GLU146      0.3649
     91  OE1        4.4860    3.9190  -33.8540 O.co2 146  GLU146     -0.2457
     92  OE2        2.7710    2.8890  -34.7590 O.co2 146  GLU146     -0.2457
     93  N          2.1690   -3.9980  -38.1050 N.3   165  PRO165     -0.2102
     94  CA         2.7880   -2.9010  -37.3580 C.3   165  PRO165      0.1504
     95  C          3.1150   -1.7470  -38.2900 C.2   165  PRO165      0.2575
     96  O          3.5230   -1.9730  -39.4300 O.2   165  PRO165     -0.2718
     97  CB         4.0890   -3.5190  -36.8440 C.3   165  PRO165      0.0282
     98  CG         3.8270   -4.9730  -36.7970 C.3   165  PRO165      0.0208
     99  CD         2.8970   -5.2670  -37.9290 C.3   165  PRO165      0.0893
    100  N          2.9340   -0.5250  -37.8070 N.am  166  ALA166     -0.1980
    101  CA         3.2670    0.6560  -38.5860 C.3   166  ALA166      0.1597
    102  C          4.7650    0.7290  -38.8610 C.2   166  ALA166      0.2287
    103  O          5.5790    0.2360  -38.0780 O.2   166  ALA166     -0.2864
    104  CB         2.8030    1.9040  -37.8670 C.3   166  ALA166      0.0319
@<TRIPOS>BOND
     1    96    95    2
     2   102   101    1
     3   102   103    2
     4   101   104    1
     5   101   100    1
     6    95   100   am
     7    95    94    1
     8    93    99    1
     9    93    94    1
    10    99    98    1
    11    94    97    1
    12    97    98    1
    13    92    90   ar
    14    89    90    1
    15    89    88    1
    16    90    91   ar
    17    84    85    1
    18    85    88    1
    19    85    86    1
    20    86    87    2
    21    83    81    1
    22    81    82    1
    23    81    80    1
    24    80    77    1
    25    37    35    1
    26    79    78    2
    27    36    35    1
    28    21    20    1
    29    21    22    1
    30    35    32    1
    31    78    77    1
    32    77    76    1
    33    20    17    1
    34    22    16    1
    35    50    48    1
    36    32    33    1
    37    32    31    1
    38    17    16    1
    39    17    18    1
    40    48    47    1
    41    34    33    2
    42    33    38   am
    43    16    12   am
    44    38    39    1
    45    41    40    2
    46    18    19    2
    47    18    23   am
    48    75    74    2
    49    39    40    1
    50    39    42    1
    51    40    43   am
    52    68    67    1
    53    68    69    1
    54    23    24    1
    55    47    49    1
    56    47    44    1
    57    71    69   am
    58    43    44    1
    59    66    65    2
    60    12    11    1
    61    12    13    2
    62    44    45    1
    63    67    64    1
    64    74    73    1
    65    69    70    2
    66    24    25    1
    67     4     3    2
    68    11    14    1
    69    11    10    1
    70    65    64    1
    71    65    72   am
    72    62    61    1
    73    14    15    1
    74    73    72    1
    75    64    63    1
    76     3    10   am
    77     3     2    1
    78    45    46    2
    79     8     7    2
    80    25    26    2
    81     7     6    1
    82     7     9   am
    83     6     5    1
    84    61    59   ar
    85    61    60   ar
    86     5     2    1
    87    59    57   ar
    88     2     1    1
    89    60    58   ar
    90    27    28    1
    91    28    29    1
    92    57    56   ar
    93    58    56   ar
    94    29    30    2
    95    56    55    1
    96    51    52    1
    97    52    55    1
    98    52    53    1
    99    53    54    2
