@<TRIPOS>MOLECULE
tmp/5essA01.pdb
 84 78 0 0 0
SMALL
GASTEIGER

@<TRIPOS>ATOM
      1  N        -32.7060   12.4950   -9.0630 N.3    27  PRO27      -0.2102
      2  CA       -32.7300   13.5350  -10.0970 C.3    27  PRO27       0.1504
      3  C        -33.6010   13.1890  -11.2940 C.2    27  PRO27       0.2576
      4  O        -33.7790   12.0250  -11.6610 O.2    27  PRO27      -0.2718
      5  CB       -31.2590   13.6330  -10.5250 C.3    27  PRO27       0.0282
      6  CG       -30.7340   12.2530  -10.3250 C.3    27  PRO27       0.0208
      7  CD       -31.4330   11.7520   -9.0690 C.3    27  PRO27       0.0893
      8  N        -34.1000   14.2490  -11.9240 N.am   28  GLY28      -0.1943
      9  CA       -34.8300   14.1490  -13.1740 C.3    28  GLY28       0.2014
     10  C        -35.2880   15.5260  -13.6190 C.2    28  GLY28       0.2639
     11  O        -35.2260   16.5120  -12.8740 O.2    28  GLY28      -0.2714
     12  N        -35.7590   15.5800  -14.8590 N.am   29  SER29      -0.1949
     13  CA       -36.3550   16.8110  -15.3440 C.3    29  SER29       0.1924
     14  C        -37.8440   16.9040  -14.9960 C.2    29  SER29       0.2314
     15  O        -38.3120   17.9620  -14.5550 O.2    29  SER29      -0.2863
     16  CB       -36.1300   16.9240  -16.8500 C.3    29  SER29       0.2116
     17  OG       -36.4530   18.2260  -17.2960 O.3    29  SER29      -0.2180
     18  N        -28.7260    8.7360   -6.2450 N.3    53  ILE53      -0.1245
     19  CA       -28.7050    8.4080   -7.6750 C.3    53  ILE53       0.1561
     20  C        -29.6490    7.2670   -8.0010 C.2    53  ILE53       0.2260
     21  O        -30.2750    7.2520   -9.0610 O.2    53  ILE53      -0.2867
     22  CB       -27.2760    8.0320   -8.1180 C.3    53  ILE53       0.0252
     23  CG1      -26.2970    9.1240   -7.7670 C.3    53  ILE53       0.0019
     24  CG2      -27.2540    7.7770   -9.6160 C.3    53  ILE53       0.0019
     25  CD1      -26.6760   10.3890   -8.4190 C.3    53  ILE53       0.0001
     26  N        -32.7510    5.1080   -7.3630 N.3    55  GLU55      -0.1245
     27  CA       -34.0770    5.0890   -6.7560 C.3    55  GLU55       0.1567
     28  C        -34.2880    3.8790   -5.8600 C.2    55  GLU55       0.2260
     29  O        -34.9390    3.9870   -4.8150 O.2    55  GLU55      -0.2867
     30  CB       -35.1560    5.1150   -7.8430 C.3    55  GLU55       0.0388
     31  CG       -35.2490    6.4340   -8.5760 C.3    55  GLU55       0.1160
     32  CD       -34.2560    6.5540   -9.7200 C.2    55  GLU55       0.3649
     33  OE1      -33.4470    5.6170   -9.9340 O.co2  55  GLU55      -0.2457
     34  OE2      -34.3020    7.5910  -10.4180 O.co2  55  GLU55      -0.2457
     35  N        -38.4230   10.9810  -10.6640 N.3    78  THR78      -0.1203
     36  CA       -38.9740   11.3400  -11.9610 C.3    78  THR78       0.1994
     37  C        -39.9120   10.2350  -12.4640 C.2    78  THR78       0.2618
     38  O        -40.0870    9.1910  -11.8280 O.2    78  THR78      -0.2717
     39  CB       -37.8480   11.6170  -12.9600 C.3    78  THR78       0.1784
     40  OG1      -38.3830   12.2500  -14.1210 O.3    78  THR78      -0.2211
     41  CG2      -37.1930   10.3490  -13.4070 C.3    78  THR78       0.0376
     42  N        -40.5130   10.4610  -13.6290 N.am   79  SER79      -0.1951
     43  CA       -41.4270    9.4800  -14.1990 C.3    79  SER79       0.1924
     44  C        -40.6660    8.3260  -14.8500 C.2    79  SER79       0.2314
     45  O        -39.4820    8.4380  -15.1960 O.2    79  SER79      -0.2863
     46  CB       -42.3400   10.1400  -15.2320 C.3    79  SER79       0.2116
     47  OG       -41.5800   10.5660  -16.3500 O.3    79  SER79      -0.2180
     48  N        -39.1660    4.3650  -15.2400 N.3    81  THR81      -0.1203
     49  CA       -38.6190    3.2630  -14.4430 C.3    81  THR81       0.1994
     50  C        -38.1380    3.7130  -13.0780 C.2    81  THR81       0.2617
     51  O        -38.0710    2.8870  -12.1620 O.2    81  THR81      -0.2717
     52  CB       -37.4550    2.5470  -15.1430 C.3    81  THR81       0.1784
     53  OG1      -36.4030    3.4660  -15.4350 O.3    81  THR81      -0.2211
     54  CG2      -37.9020    1.8640  -16.4270 C.3    81  THR81       0.0376
     55  N        -37.7840    4.9940  -12.9310 N.am   82  ALA82      -0.1979
     56  CA       -37.4740    5.5410  -11.6150 C.3    82  ALA82       0.1597
     57  C        -38.5660    5.1980  -10.6100 C.2    82  ALA82       0.2287
     58  O        -38.2770    4.8240   -9.4700 O.2    82  ALA82      -0.2864
     59  CB       -37.2760    7.0600  -11.7190 C.3    82  ALA82       0.0319
     60  N        -38.5490    1.4370   -9.7770 N.3    85  ASN85      -0.1240
     61  CA       -37.4350    1.0570   -8.9110 C.3    85  ASN85       0.1653
     62  C        -37.7810    1.1600   -7.4260 C.2    85  ASN85       0.2266
     63  O        -37.0200    0.6480   -6.5910 O.2    85  ASN85      -0.2867
     64  CB       -36.1970    1.9080   -9.2430 C.3    85  ASN85       0.1155
     65  CG       -35.3290    1.2910  -10.3630 C.2    85  ASN85       0.2627
     66  OD1      -34.4440    0.4990  -10.0910 O.2    85  ASN85      -0.2716
     67  ND2      -35.5940    1.6520  -11.6090 N.am   85  ASN85      -0.0877
     68  N        -41.8550   10.1150  -24.5490 N.3   117  ASN117     -0.1225
     69  CA       -40.6280    9.5870  -23.9750 C.3   117  ASN117      0.1785
     70  C        -40.7650    9.3930  -22.4680 C.2   117  ASN117      0.2597
     71  O        -41.3400   10.2250  -21.7660 O.2   117  ASN117     -0.2718
     72  CB       -39.4760   10.5380  -24.2980 C.3   117  ASN117      0.1169
     73  CG       -38.1430   10.0260  -23.8310 C.2   117  ASN117      0.2627
     74  OD1      -37.7270    8.9250  -24.1820 O.2   117  ASN117     -0.2716
     75  ND2      -37.4460   10.8400  -23.0450 N.am  117  ASN117     -0.0877
     76  N        -40.2500    8.2670  -21.9790 N.am  118  GLN118     -0.1979
     77  CA       -40.1440    7.9960  -20.5420 C.3   118  GLN118      0.1601
     78  C        -41.4990    8.1070  -19.8340 C.2   118  GLN118      0.2287
     79  O        -41.6310    8.7410  -18.7810 O.2   118  GLN118     -0.2864
     80  CB       -39.1080    8.9200  -19.8910 C.3   118  GLN118      0.0394
     81  CG       -38.6010    8.4290  -18.5450 C.3   118  GLN118      0.0908
     82  CD       -37.4690    9.2730  -17.9950 C.2   118  GLN118      0.2608
     83  OE1      -36.2920    8.9960  -18.2420 O.2   118  GLN118     -0.2717
     84  NE2      -37.8190   10.3030  -17.2300 N.am  118  GLN118     -0.0878
@<TRIPOS>BOND
     1    68    69    1
     2    72    69    1
     3    72    73    1
     4    74    73    2
     5    69    70    1
     6    73    75   am
     7    70    76   am
     8    70    71    2
     9    76    77    1
    10    77    80    1
    11    77    78    1
    12    80    81    1
    13    78    79    2
    14    81    82    1
    15    83    82    2
    16    82    84   am
    17    17    16    1
    18    16    13    1
    19    54    52    1
    20    47    46    1
    21    53    52    1
    22    13    14    1
    23    13    12    1
    24    48    49    1
    25    46    43    1
    26    45    44    2
    27    52    49    1
    28    14    15    2
    29    12    10   am
    30    44    43    1
    31    49    50    1
    32    43    42    1
    33    40    39    1
    34    42    37   am
    35    10     9    1
    36    10    11    2
    37    41    39    1
    38     9     8    1
    39    50    55   am
    40    50    51    2
    41    39    36    1
    42    55    56    1
    43    37    36    1
    44    37    38    2
    45    36    35    1
    46     8     3   am
    47    59    56    1
    48     4     3    2
    49    56    57    1
    50    67    65   am
    51     3     2    1
    52    57    58    2
    53     5     6    1
    54     5     2    1
    55    34    32   ar
    56    65    66    2
    57    65    64    1
    58     6     7    1
    59     2     1    1
    60    33    32   ar
    61    60    61    1
    62    32    31    1
    63    24    22    1
    64    64    61    1
    65     7     1    1
    66    21    20    2
    67    61    62    1
    68    31    30    1
    69    25    23    1
    70    22    23    1
    71    22    19    1
    72    20    19    1
    73    30    27    1
    74    19    18    1
    75    62    63    2
    76    26    27    1
    77    27    28    1
    78    28    29    2
