@<TRIPOS>MOLECULE
tmp/5essA00.pdb
 102 95 0 0 0
SMALL
GASTEIGER

@<TRIPOS>ATOM
      1  N        -19.1840  -15.7530   12.2360 N.3   355  GLY355     -0.1225
      2  CA       -20.1330  -14.6510   12.2970 C.3   355  GLY355      0.1811
      3  C        -20.8580  -14.5880   13.6260 C.2   355  GLY355      0.2280
      4  O        -21.2710  -13.5150   14.0660 O.2   355  GLY355     -0.2866
      5  N        -31.0300  -11.2790    7.4750 N.3   377  SER377     -0.1202
      6  CA       -30.8960  -12.7280    7.4300 C.3   377  SER377      0.2020
      7  C        -30.1910  -13.2250    8.6910 C.2   377  SER377      0.2619
      8  O        -30.7940  -13.3310    9.7630 O.2   377  SER377     -0.2717
      9  CB       -30.1520  -13.1720    6.1620 C.3   377  SER377      0.2103
     10  OG       -28.7350  -13.1440    6.3140 O.3   377  SER377     -0.2182
     11  N        -28.9100  -13.4700    8.5870 N.am  378  ASN378     -0.1960
     12  CA       -28.1520  -14.1080    9.6430 C.3   378  ASN378      0.1804
     13  C        -27.7180  -13.1600   10.7580 C.2   378  ASN378      0.2463
     14  O        -27.6460  -13.5780   11.9200 O.2   378  ASN378     -0.2730
     15  CB       -26.9690  -14.7890    8.9810 C.3   378  ASN378      0.1195
     16  CG       -27.4020  -15.6110    7.7790 C.2   378  ASN378      0.2630
     17  OD1      -28.3520  -16.3930    7.8550 O.2   378  ASN378     -0.2716
     18  ND2      -26.7370  -15.4080    6.6530 N.am  378  ASN378     -0.0877
     19  N        -27.4120  -11.8870   10.4740 N.am  379  PRO379     -0.2727
     20  CA       -27.0550  -11.0060   11.5950 C.3   379  PRO379      0.1402
     21  C        -28.1400  -10.9260   12.6520 C.2   379  PRO379      0.2269
     22  O        -27.8270  -10.8930   13.8500 O.2   379  PRO379     -0.2865
     23  CB       -26.8190   -9.6560   10.9150 C.3   379  PRO379      0.0296
     24  CG       -26.3730  -10.0240    9.5680 C.3   379  PRO379      0.0237
     25  CD       -27.2000  -11.2010    9.1860 C.3   379  PRO379      0.0939
     26  N        -28.0890  -14.3100   14.4200 N.3   382  ASP382     -0.1239
     27  CA       -26.9290  -14.5570   15.2710 C.3   382  ASP382      0.1674
     28  C        -26.9840  -13.7290   16.5430 C.2   382  ASP382      0.2266
     29  O        -26.7040  -14.2360   17.6320 O.2   382  ASP382     -0.2867
     30  CB       -25.6540  -14.2870   14.4910 C.3   382  ASP382      0.1410
     31  CG       -25.4500  -15.2890   13.3700 C.2   382  ASP382      0.3668
     32  OD1      -26.0780  -16.3740   13.4220 O.co2 382  ASP382     -0.2456
     33  OD2      -24.6690  -14.9960   12.4400 O.co2 382  ASP382     -0.2456
     34  N        -32.6710   -8.6810    0.7580 N.3   404  ILE404     -0.1245
     35  CA       -31.2670   -8.3120    0.8090 C.3   404  ILE404      0.1561
     36  C        -31.0240   -6.8790    0.3260 C.2   404  ILE404      0.2260
     37  O        -30.0070   -6.2730    0.7060 O.2   404  ILE404     -0.2867
     38  CB       -30.4790   -9.3760    0.0100 C.3   404  ILE404      0.0252
     39  CG1      -29.0050   -9.0240   -0.1270 C.3   404  ILE404      0.0019
     40  CG2      -31.1100   -9.6030   -1.3770 C.3   404  ILE404      0.0019
     41  CD1      -28.2200  -10.0470   -0.9420 C.3   404  ILE404      0.0001
     42  N        -23.9100   -8.8660    6.9490 N.3   439  GLY439     -0.1210
     43  CA       -23.0640   -9.8710    6.3350 C.3   439  GLY439      0.1956
     44  C        -22.4830   -9.3970    5.0170 C.2   439  GLY439      0.2612
     45  O        -22.9860   -8.4620    4.3870 O.2   439  GLY439     -0.2717
     46  N        -21.4130  -10.0790    4.5800 N.am  440  ASP440     -0.1959
     47  CA       -20.6220   -9.5800    3.4530 C.3   440  ASP440      0.1840
     48  C        -21.3890   -9.6420    2.1310 C.2   440  ASP440      0.2622
     49  O        -21.2270   -8.7540    1.2840 O.2   440  ASP440     -0.2715
     50  CB       -19.3000  -10.3470    3.3350 C.3   440  ASP440      0.1450
     51  CG       -19.5070  -11.8250    3.1360 C.2   440  ASP440      0.3671
     52  OD1      -19.8550  -12.4930    4.1270 O.co2 440  ASP440     -0.2456
     53  OD2      -19.3350  -12.3130    1.9980 O.co2 440  ASP440     -0.2456
     54  N        -22.2080  -10.6830    1.9150 N.am  441  LEU441     -0.1963
     55  CA       -23.0150  -10.7170    0.6930 C.3   441  LEU441      0.1728
     56  C        -24.0060   -9.5650    0.6640 C.2   441  LEU441      0.2616
     57  O        -24.1810   -8.9140   -0.3720 O.2   441  LEU441     -0.2715
     58  CB       -23.7600  -12.0450    0.5570 C.3   441  LEU441      0.0311
     59  CG       -22.9320  -13.2660    0.1350 C.3   441  LEU441      0.0022
     60  CD1      -23.7920  -14.5020    0.2430 C.3   441  LEU441      0.0001
     61  CD2      -22.3480  -13.1560   -1.2800 C.3   441  LEU441      0.0001
     62  N        -24.6530   -9.2900    1.7950 N.am  442  THR442     -0.1951
     63  CA       -25.5960   -8.1820    1.8610 C.3   442  THR442      0.1897
     64  C        -24.8960   -6.8480    1.6470 C.2   442  THR442      0.2313
     65  O        -25.4030   -5.9770    0.9290 O.2   442  THR442     -0.2863
     66  CB       -26.3100   -8.2130    3.2100 C.3   442  THR442      0.1794
     67  OG1      -26.9610   -9.4780    3.3520 O.3   442  THR442     -0.2208
     68  CG2      -27.3320   -7.1210    3.3050 C.3   442  THR442      0.0378
     69  N        -19.4420   -8.5100    8.8960 N.3   467  SER467     -0.1217
     70  CA       -19.0050   -9.8600    9.2450 C.3   467  SER467      0.1889
     71  C        -18.7850  -10.6300    7.9460 C.2   467  SER467      0.2288
     72  O        -19.7340  -11.1360    7.3370 O.2   467  SER467     -0.2866
     73  CB       -20.0340  -10.5390   10.1420 C.3   467  SER467      0.2089
     74  OG       -19.6160  -11.8540   10.4480 O.3   467  SER467     -0.2183
     75  N        -17.5100  -13.6110    5.9610 N.3   469  ASP469     -0.1239
     76  CA       -17.0950  -14.9980    5.7930 C.3   469  ASP469      0.1674
     77  C        -17.0280  -15.4030    4.3250 C.2   469  ASP469      0.2266
     78  O        -17.1330  -16.5940    4.0170 O.2   469  ASP469     -0.2867
     79  CB       -18.0130  -15.9500    6.5650 C.3   469  ASP469      0.1410
     80  CG       -19.4840  -15.5970    6.4260 C.2   469  ASP469      0.3668
     81  OD1      -19.8210  -14.8320    5.5040 O.co2 469  ASP469     -0.2456
     82  OD2      -20.3030  -16.0920    7.2350 O.co2 469  ASP469     -0.2456
     83  N        -18.7760  -15.3780    1.4300 N.3   471  GLY471     -0.1210
     84  CA       -19.8140  -16.3220    1.0610 C.3   471  GLY471      0.1956
     85  C        -20.8550  -16.3620    2.1580 C.2   471  GLY471      0.2612
     86  O        -20.6260  -15.9500    3.2930 O.2   471  GLY471     -0.2717
     87  N        -22.0220  -16.8720    1.8200 N.am  472  GLY472     -0.1942
     88  CA       -23.1360  -16.7490    2.7290 C.3   472  GLY472      0.2014
     89  C        -23.0950  -17.7110    3.9050 C.2   472  GLY472      0.2639
     90  O        -22.4000  -18.7290    3.9200 O.2   472  GLY472     -0.2714
     91  N        -23.8670  -17.3490    4.9270 N.am  473  GLY473     -0.1939
     92  CA       -24.3230  -18.3090    5.9120 C.3   473  GLY473      0.2014
     93  C        -25.5040  -19.0460    5.3100 C.2   473  GLY473      0.2638
     94  O        -26.6550  -18.8490    5.7230 O.2   473  GLY473     -0.2714
     95  N        -25.2110  -19.8860    4.3090 N.am  474  ILE474     -0.1977
     96  CA       -26.2040  -20.5230    3.4440 C.3   474  ILE474      0.1596
     97  C        -26.2040  -22.0350    3.6320 C.2   474  ILE474      0.2287
     98  O        -26.9880  -22.5770    4.4180 O.2   474  ILE474     -0.2864
     99  CB       -25.9390  -20.1870    1.9630 C.3   474  ILE474      0.0276
    100  CG1      -25.7650  -18.6870    1.7680 C.3   474  ILE474      0.0022
    101  CG2      -27.0820  -20.6690    1.0910 C.3   474  ILE474      0.0022
    102  CD1      -25.8580  -18.2480    0.3350 C.3   474  ILE474      0.0001
@<TRIPOS>BOND
     1    40    38    1
     2    61    59    1
     3    41    39    1
     4    57    56    2
     5    39    38    1
     6    38    35    1
     7    59    60    1
     8    59    58    1
     9    36    37    2
    10    36    35    1
    11   102   100    1
    12    58    55    1
    13    56    55    1
    14    56    62   am
    15    55    54    1
    16    34    35    1
    17    65    64    2
    18    84    83    1
    19    84    85    1
    20   101    99    1
    21    49    48    2
    22    64    63    1
    23   100    99    1
    24    62    63    1
    25    87    85   am
    26    87    88    1
    27    63    66    1
    28    54    48   am
    29    99    96    1
    30    53    51   ar
    31    48    47    1
    32    85    86    2
    33    88    89    1
    34    51    50    1
    35    51    52   ar
    36    66    68    1
    37    66    67    1
    38    50    47    1
    39    96    97    1
    40    96    95    1
    41    47    46    1
    42    97    98    2
    43    89    90    2
    44    89    91   am
    45    78    77    2
    46    95    93   am
    47    77    76    1
    48    45    44    2
    49    46    44   am
    50    91    92    1
    51    44    43    1
    52    93    94    2
    53    93    92    1
    54    81    80   ar
    55    76    75    1
    56    76    79    1
    57     9    10    1
    58     9     6    1
    59    43    42    1
    60    80    79    1
    61    80    82   ar
    62    18    16   am
    63    72    71    2
    64     6     5    1
    65     6     7    1
    66    16    17    2
    67    16    15    1
    68    71    70    1
    69    11     7   am
    70    11    12    1
    71     7     8    2
    72    69    70    1
    73    15    12    1
    74    25    24    1
    75    25    19    1
    76    70    73    1
    77    24    23    1
    78    12    13    1
    79    73    74    1
    80    19    13   am
    81    19    20    1
    82    13    14    2
    83    23    20    1
    84    20    21    1
    85     1     2    1
    86     2     3    1
    87    33    31   ar
    88    21    22    2
    89    31    32   ar
    90    31    30    1
    91     3     4    2
    92    26    27    1
    93    30    27    1
    94    27    28    1
    95    28    29    2
