@<TRIPOS>MOLECULE
tmp/5essC00.pdb
 173 165 0 0 0
SMALL
GASTEIGER

@<TRIPOS>ATOM
      1  N        -74.3930   13.1100    0.4610 N.3   268  THR268     -0.1218
      2  CA       -74.5130   13.0570   -0.9820 C.3   268  THR268      0.1862
      3  C        -75.6680   13.8960   -1.5230 C.2   268  THR268      0.2287
      4  O        -75.6910   14.1820   -2.7270 O.2   268  THR268     -0.2866
      5  CB       -74.6740   11.6000   -1.4410 C.3   268  THR268      0.1770
      6  OG1      -75.5730   10.9040   -0.5550 O.3   268  THR268     -0.2211
      7  CG2      -73.3040   10.8980   -1.4170 C.3   268  THR268      0.0375
      8  N        -93.9360   13.0760   -7.7270 N.3   344  GLY344     -0.1225
      9  CA       -93.1950   12.1640   -6.8710 C.3   344  GLY344      0.1811
     10  C        -93.0680   12.6890   -5.4570 C.2   344  GLY344      0.2280
     11  O        -93.1630   11.9310   -4.4890 O.2   344  GLY344     -0.2866
     12  N        -82.5480    5.6360   -5.6390 N.3   365  ALA365     -0.1231
     13  CA       -81.8220    6.8540   -5.9600 C.3   365  ALA365      0.1694
     14  C        -82.7630    7.8090   -6.7100 C.2   365  ALA365      0.2593
     15  O        -83.9640    7.5630   -6.8570 O.2   365  ALA365     -0.2718
     16  CB       -80.5610    6.5170   -6.7500 C.3   365  ALA365      0.0304
     17  N        -82.2070    8.9120   -7.2070 N.am  366  SER366     -0.1938
     18  CA       -82.9650    9.9390   -7.9100 C.3   366  SER366      0.2055
     19  C        -83.8780   10.6710   -6.9270 C.2   366  SER366      0.2643
     20  O        -83.5240   10.8330   -5.7530 O.2   366  SER366     -0.2714
     21  CB       -83.7660    9.3360   -9.0770 C.3   366  SER366      0.2130
     22  OG       -83.9010   10.2640  -10.1390 O.3   366  SER366     -0.2179
     23  N        -85.0490   11.1130   -7.3920 N.am  367  ASN367     -0.1958
     24  CA       -85.9050   11.9440   -6.5480 C.3   367  ASN367      0.1804
     25  C        -86.4470   11.2340   -5.3070 C.2   367  ASN367      0.2463
     26  O        -86.5350   11.8950   -4.2580 O.2   367  ASN367     -0.2730
     27  CB       -87.0520   12.5320   -7.3830 C.3   367  ASN367      0.1195
     28  CG       -86.6720   13.8450   -8.0390 C.2   367  ASN367      0.2630
     29  OD1      -85.7940   14.5660   -7.5520 O.2   367  ASN367     -0.2716
     30  ND2      -87.3190   14.1600   -9.1530 N.am  367  ASN367     -0.0877
     31  N        -86.8170    9.9430   -5.3310 N.am  368  PRO368     -0.2727
     32  CA       -87.3720    9.3350   -4.1080 C.3   368  PRO368      0.1402
     33  C        -86.5980    9.6300   -2.8290 C.2   368  PRO368      0.2269
     34  O        -87.2170   10.0030   -1.8220 O.2   368  PRO368     -0.2865
     35  CB       -87.3560    7.8400   -4.4400 C.3   368  PRO368      0.0296
     36  CG       -87.6200    7.8070   -5.8900 C.3   368  PRO368      0.0237
     37  CD       -86.8960    9.0040   -6.4680 C.3   368  PRO368      0.0939
     38  N        -84.3570   11.9730   -2.1780 N.3   370  ARG370     -0.1245
     39  CA       -84.4030   13.3960   -1.8800 C.3   370  ARG370      0.1563
     40  C        -85.7900   13.8140   -1.3990 C.2   370  ARG370      0.2260
     41  O        -85.9190   14.5170   -0.3890 O.2   370  ARG370     -0.2867
     42  CB       -84.0000   14.1900   -3.1160 C.3   370  ARG370      0.0307
     43  CG       -82.5480   14.0220   -3.4800 C.3   370  ARG370      0.0489
     44  CD       -82.2610   14.3420   -4.9360 C.3   370  ARG370      0.2205
     45  NE       -80.8210   14.2530   -5.1730 N.pl3 370  ARG370     -0.0865
     46  CZ       -80.1500   13.1250   -5.4230 C.cat 370  ARG370      0.5346
     47  NH1      -80.7770   11.9540   -5.4980 N.pl3 370  ARG370      0.1354
     48  NH2      -78.8340   13.1740   -5.5970 N.pl3 370  ARG370      0.1354
     49  N        -76.5060    4.3010   -1.3380 N.3   388  ARG388     -0.1245
     50  CA       -75.8300    5.5840   -1.5290 C.3   388  ARG388      0.1563
     51  C        -74.3420    5.4360   -1.8360 C.2   388  ARG388      0.2260
     52  O        -73.6890    6.4440   -2.1420 O.2   388  ARG388     -0.2867
     53  CB       -76.0000    6.4990   -0.2950 C.3   388  ARG388      0.0307
     54  CG       -77.4240    7.0810   -0.0030 C.3   388  ARG388      0.0489
     55  CD       -78.1880    7.4900   -1.2520 C.3   388  ARG388      0.2205
     56  NE       -77.5970    8.6400   -1.9250 N.pl3 388  ARG388     -0.0865
     57  CZ       -77.8630    8.9760   -3.1840 C.cat 388  ARG388      0.5346
     58  NH1      -78.6900    8.2350   -3.9040 N.pl3 388  ARG388      0.1354
     59  NH2      -77.2880   10.0370   -3.7370 N.pl3 388  ARG388      0.1354
     60  N        -72.7580    4.2460   -4.4810 N.3   390  VAL390     -0.1231
     61  CA       -72.5960    4.7820   -5.8280 C.3   390  VAL390      0.1692
     62  C        -73.9020    5.3390   -6.3900 C.2   390  VAL390      0.2592
     63  O        -73.9120    5.8590   -7.5160 O.2   390  VAL390     -0.2718
     64  CB       -72.0060    3.7250   -6.7890 C.3   390  VAL390      0.0266
     65  CG1      -71.2510    4.3960   -7.9270 C.3   390  VAL390      0.0020
     66  CG2      -71.1060    2.7380   -6.0510 C.3   390  VAL390      0.0020
     67  N        -75.0060    5.2370   -5.6490 N.am  391  ALA391     -0.1966
     68  CA       -76.2650    5.8920   -6.0230 C.3   391  ALA391      0.1728
     69  C        -76.7630    5.4250   -7.3900 C.2   391  ALA391      0.2617
     70  O        -77.3040    6.2040   -8.1720 O.2   391  ALA391     -0.2715
     71  CB       -76.1260    7.4190   -5.9880 C.3   391  ALA391      0.0334
     72  N        -76.5780    4.1450   -7.6910 N.am  392  GLY392     -0.1940
     73  CA       -77.0980    3.6160   -8.9320 C.3   392  GLY392      0.2014
     74  C        -78.6080    3.4590   -8.8830 C.2   392  GLY392      0.2639
     75  O        -79.2130    3.2830   -7.8250 O.2   392  GLY392     -0.2714
     76  N        -79.2360    3.5390  -10.0600 N.am  393  ILE393     -0.1963
     77  CA       -80.6440    3.1720  -10.1590 C.3   393  ILE393      0.1727
     78  C        -80.8190    1.7070  -10.5290 C.2   393  ILE393      0.2616
     79  O        -81.9570    1.2520  -10.7150 O.2   393  ILE393     -0.2715
     80  CB       -81.4110    4.0630  -11.1610 C.3   393  ILE393      0.0290
     81  CG1      -80.9070    3.8760  -12.5880 C.3   393  ILE393      0.0022
     82  CG2      -81.3340    5.5400  -10.7570 C.3   393  ILE393      0.0023
     83  CD1      -81.8870    4.4320  -13.6130 C.3   393  ILE393      0.0001
     84  N        -79.7260    0.9510  -10.6240 N.am  394  ASP394     -0.1971
     85  CA       -79.7780   -0.4720  -10.9240 C.3   394  ASP394      0.1709
     86  C        -79.9350   -1.2820   -9.6380 C.2   394  ASP394      0.2293
     87  O        -79.5090   -0.8600   -8.5650 O.2   394  ASP394     -0.2864
     88  CB       -78.5230   -0.9140  -11.6960 C.3   394  ASP394      0.1436
     89  CG       -77.1850   -0.4730  -11.0320 C.2   394  ASP394      0.3671
     90  OD1      -77.0890    0.6380  -10.4560 O.co2 394  ASP394     -0.2456
     91  OD2      -76.1980   -1.2500  -11.1190 O.co2 394  ASP394     -0.2456
     92  N        -88.5160    5.3240   -8.0890 N.3   428  GLY428     -0.1210
     93  CA       -89.0240    5.8670   -9.3290 C.3   428  GLY428      0.1956
     94  C        -89.2640    4.7910  -10.3780 C.2   428  GLY428      0.2612
     95  O        -88.9550    3.6070  -10.2010 O.2   428  GLY428     -0.2717
     96  N        -89.8130    5.2320  -11.5170 N.am  429  ASP429     -0.1959
     97  CA       -90.2300    4.3050  -12.5690 C.3   429  ASP429      0.1840
     98  C        -89.0430    3.7900  -13.3920 C.2   429  ASP429      0.2622
     99  O        -88.9750    2.5970  -13.6850 O.2   429  ASP429     -0.2715
    100  CB       -91.2780    4.9640  -13.4780 C.3   429  ASP429      0.1450
    101  CG       -90.8490    6.3400  -13.9560 C.2   429  ASP429      0.3671
    102  OD1      -90.7580    7.2530  -13.1040 O.co2 429  ASP429     -0.2456
    103  OD2      -90.5830    6.5030  -15.1680 O.co2 429  ASP429     -0.2456
    104  N        -88.1130    4.6570  -13.7970 N.am  430  LEU430     -0.1963
    105  CA       -86.8750    4.1610  -14.3980 C.3   430  LEU430      0.1728
    106  C        -86.2020    3.1190  -13.5060 C.2   430  LEU430      0.2616
    107  O        -85.7900    2.0530  -13.9750 O.2   430  LEU430     -0.2715
    108  CB       -85.9170    5.3160  -14.6600 C.3   430  LEU430      0.0311
    109  CG       -86.4180    6.2980  -15.7110 C.3   430  LEU430      0.0022
    110  CD1      -85.3570    7.3590  -16.0230 C.3   430  LEU430      0.0001
    111  CD2      -86.8540    5.5420  -16.9640 C.3   430  LEU430      0.0001
    112  N        -86.0520    3.4290  -12.2180 N.am  431  THR431     -0.1951
    113  CA       -85.4310    2.4870  -11.2900 C.3   431  THR431      0.1897
    114  C        -86.1560    1.1510  -11.2980 C.2   431  THR431      0.2313
    115  O        -85.5250    0.0840  -11.2880 O.2   431  THR431     -0.2863
    116  CB       -85.4290    3.0860   -9.8850 C.3   431  THR431      0.1794
    117  OG1      -84.8020    4.3670   -9.9300 O.3   431  THR431     -0.2208
    118  CG2      -84.7050    2.1980   -8.8980 C.3   431  THR431      0.0378
    119  N        -85.3890   -0.7150  -14.5460 N.3   434  HIS434     -0.1241
    120  CA       -84.0060   -1.1770  -14.5870 C.3   434  HIS434      0.1621
    121  C        -83.8700   -2.5800  -14.0120 C.2   434  HIS434      0.2264
    122  O        -83.2530   -3.4540  -14.6270 O.2   434  HIS434     -0.2867
    123  CB       -83.1070   -0.2020  -13.8240 C.3   434  HIS434      0.0745
    124  CG       -81.7630   -0.0100  -14.4520 C.ar  434  HIS434      0.0817
    125  ND1      -80.7550   -0.9490  -14.3560 N.ar  434  HIS434     -0.2268
    126  CD2      -81.2650    1.0080  -15.1950 C.ar  434  HIS434      0.1154
    127  CE1      -79.6920   -0.5110  -15.0100 C.ar  434  HIS434      0.1986
    128  NE2      -79.9760    0.6710  -15.5300 N.ar  434  HIS434     -0.2212
    129  N        -93.3870    5.4150   -7.7270 N.3   456  SER456     -0.1217
    130  CA       -93.8050    6.7250   -8.1920 C.3   456  SER456      0.1889
    131  C        -93.4410    6.8310   -9.6690 C.2   456  SER456      0.2288
    132  O        -92.2640    6.9940  -10.0160 O.2   456  SER456     -0.2866
    133  CB       -93.1340    7.8070   -7.3520 C.3   456  SER456      0.2089
    134  OG       -93.5610    9.0960   -7.7290 O.3   456  SER456     -0.2183
    135  N        -93.6100    8.7410  -13.0170 N.3   458  ASP458     -0.1239
    136  CA       -93.8050    9.9120  -13.8630 C.3   458  ASP458      0.1674
    137  C        -93.2400    9.7050  -15.2670 C.2   458  ASP458      0.2266
    138  O        -92.8970   10.6800  -15.9420 O.2   458  ASP458     -0.2867
    139  CB       -93.2150   11.1770  -13.2180 C.3   458  ASP458      0.1410
    140  CG       -91.7460   11.0160  -12.7860 C.2   458  ASP458      0.3668
    141  OD1      -91.0700   10.0900  -13.2760 O.co2 458  ASP458     -0.2456
    142  OD2      -91.2750   11.8290  -11.9590 O.co2 458  ASP458     -0.2456
    143  N        -90.4730    8.6380  -16.7470 N.3   460  GLY460     -0.1210
    144  CA       -89.1840    9.2020  -17.0840 C.3   460  GLY460      0.1956
    145  C        -88.3980    9.5870  -15.8470 C.2   460  GLY460      0.2612
    146  O        -88.7370    9.2140  -14.7220 O.2   460  GLY460     -0.2717
    147  N        -87.3250   10.3430  -16.0920 N.am  461  GLY461     -0.1942
    148  CA       -86.4570   10.7960  -15.0220 C.3   461  GLY461      0.2014
    149  C        -86.8590   12.1380  -14.4420 C.2   461  GLY461      0.2639
    150  O        -86.5440   13.1860  -15.0140 O.2   461  GLY461     -0.2714
    151  N        -87.5480   12.1200  -13.2960 N.am  462  GLY462     -0.1939
    152  CA       -87.9890   13.3680  -12.6850 C.3   462  GLY462      0.2014
    153  C        -86.8470   14.2870  -12.2780 C.2   462  GLY462      0.2639
    154  O        -86.9380   15.5120  -12.4330 O.2   462  GLY462     -0.2714
    155  N        -85.7560   13.7120  -11.7550 N.am  463  ILE463     -0.1963
    156  CA       -84.6660   14.5110  -11.1910 C.3   463  ILE463      0.1727
    157  C        -84.0940   15.4710  -12.2230 C.2   463  ILE463      0.2616
    158  O        -83.6200   16.5590  -11.8720 O.2   463  ILE463     -0.2715
    159  CB       -83.5690   13.5900  -10.6010 C.3   463  ILE463      0.0290
    160  CG1      -82.5550   14.4090   -9.7990 C.3   463  ILE463      0.0022
    161  CG2      -82.8380   12.8420  -11.7100 C.3   463  ILE463      0.0023
    162  CD1      -81.9490   13.6890   -8.6210 C.3   463  ILE463      0.0001
    163  N        -84.1330   15.1100  -13.5040 N.am  464  PHE464     -0.1974
    164  CA       -83.5120   15.9840  -14.4860 C.3   464  PHE464      0.1639
    165  C        -84.3670   17.2060  -14.7880 C.2   464  PHE464      0.2290
    166  O        -83.8480   18.1870  -15.3330 O.2   464  PHE464     -0.2864
    167  CB       -83.1900   15.2010  -15.7640 C.3   464  PHE464      0.0560
    168  CG       -82.2500   14.0490  -15.5340 C.ar  464  PHE464     -0.0200
    169  CD1      -80.9830   14.2710  -15.0230 C.ar  464  PHE464     -0.0042
    170  CD2      -82.6390   12.7450  -15.7930 C.ar  464  PHE464     -0.0042
    171  CE1      -80.1130   13.2180  -14.7950 C.ar  464  PHE464     -0.0003
    172  CE2      -81.7720   11.6850  -15.5650 C.ar  464  PHE464     -0.0003
    173  CZ       -80.5110   11.9260  -15.0650 C.ar  464  PHE464     -0.0000
@<TRIPOS>BOND
     1   144   143    1
     2   144   145    1
     3   111   109    1
     4   147   145   am
     5   147   148    1
     6   110   109    1
     7   138   137    2
     8   145   146    2
     9   170   172   ar
    10   170   168   ar
    11   167   168    1
    12   167   164    1
    13   109   108    1
    14   172   173   ar
    15   168   169   ar
    16   128   126   ar
    17   128   127   ar
    18   166   165    2
    19   137   136    1
    20   126   124   ar
    21   103   101   ar
    22   173   171   ar
    23   169   171   ar
    24   148   149    1
    25   150   149    2
    26   127   125   ar
    27   165   164    1
    28   108   105    1
    29   122   121    2
    30   120   119    1
    31   120   121    1
    32   120   123    1
    33   164   163    1
    34   124   125   ar
    35   124   123    1
    36   149   151   am
    37   105   104    1
    38   105   106    1
    39   107   106    2
    40   101   100    1
    41   101   102   ar
    42   136   139    1
    43   136   135    1
    44   104    98   am
    45    99    98    2
    46    83    81    1
    47   106   112   am
    48   163   157   am
    49   100    97    1
    50    98    97    1
    51   151   152    1
    52   141   140   ar
    53   139   140    1
    54   140   142   ar
    55   152   153    1
    56    81    80    1
    57    97    96    1
    58   154   153    2
    59   153   155   am
    60   157   158    2
    61   157   156    1
    62   112   113    1
    63   155   156    1
    64   161   159    1
    65    88    89    1
    66    88    85    1
    67    96    94   am
    68   114   113    1
    69   114   115    2
    70   113   116    1
    71   156   159    1
    72    80    82    1
    73    80    77    1
    74    91    89   ar
    75    89    90   ar
    76    85    84    1
    77    85    86    1
    78    79    78    2
    79    84    78   am
    80   159   160    1
    81    78    77    1
    82    94    95    2
    83    94    93    1
    84    77    76    1
    85    22    21    1
    86    76    74   am
    87   132   131    2
    88   117   116    1
    89   116   118    1
    90   160   162    1
    91   131   130    1
    92    86    87    2
    93    93    92    1
    94    30    28   am
    95    21    18    1
    96    73    74    1
    97    73    72    1
    98    74    75    2
    99   130   129    1
   100   130   133    1
   101    70    69    2
   102    28    29    2
   103    28    27    1
   104    65    64    1
   105    18    17    1
   106    18    19    1
   107   134   133    1
   108     8     9    1
   109    72    69   am
   110    63    62    2
   111    23    19   am
   112    23    24    1
   113    69    68    1
   114    27    24    1
   115    17    14   am
   116    19    20    2
   117     9    10    1
   118    15    14    2
   119    64    66    1
   120    64    61    1
   121    16    13    1
   122    14    13    1
   123    24    25    1
   124    37    36    1
   125    37    31    1
   126    62    61    1
   127    62    67   am
   128    68    71    1
   129    68    67    1
   130    13    12    1
   131    36    35    1
   132    61    60    1
   133    48    46    1
   134    47    46    1
   135    10    11    2
   136    46    45    2
   137    31    25   am
   138    31    32    1
   139    25    26    2
   140    45    44    1
   141    44    43    1
   142    35    32    1
   143    32    33    1
   144    58    57    1
   145    59    57    1
   146    43    42    1
   147    57    56    2
   148    42    39    1
   149    33    34    2
   150     4     3    2
   151    38    39    1
   152    52    51    2
   153    56    55    1
   154    39    40    1
   155    51    50    1
   156    50    49    1
   157    50    53    1
   158     3     2    1
   159     5     7    1
   160     5     2    1
   161     5     6    1
   162    40    41    2
   163    55    54    1
   164     2     1    1
   165    53    54    1
