@<TRIPOS>MOLECULE
tmp/5estA00.pdb
 135 131 0 0 0
SMALL
GASTEIGER

@<TRIPOS>ATOM
      1  N         -4.3180   17.6140   41.4020 N.3    45  HIS45      -0.1241
      2  CA        -4.8990   17.2370   40.1290 C.3    45  HIS45       0.1621
      3  C         -4.1340   17.9120   38.9710 C.2    45  HIS45       0.2264
      4  O         -4.1340   17.3530   37.8820 O.2    45  HIS45      -0.2867
      5  CB        -6.4480   17.4460   40.0770 C.3    45  HIS45       0.0745
      6  CG        -6.8860   18.8650   39.8210 C.ar   45  HIS45       0.0817
      7  ND1       -7.2370   19.7250   40.8520 N.ar   45  HIS45      -0.2268
      8  CD2       -6.9810   19.5660   38.6520 C.ar   45  HIS45       0.1154
      9  CE1       -7.5600   20.9550   40.3370 C.ar   45  HIS45       0.1986
     10  NE2       -7.4450   20.8210   38.9650 N.ar   45  HIS45      -0.2212
     11  N         -4.4440   11.7290   48.3540 N.3    83  TRP83      -0.1241
     12  CA        -5.1370   12.3550   47.2120 C.3    83  TRP83       0.1605
     13  C         -5.6440   11.2290   46.3250 C.2    83  TRP83       0.2264
     14  O         -4.9050   10.2750   46.1310 O.2    83  TRP83      -0.2867
     15  CB        -4.1600   13.3030   46.4130 C.3    83  TRP83       0.0550
     16  CG        -4.5790   13.5040   44.9890 C.ar   83  TRP83       0.0003
     17  CD1       -3.9420   13.1170   43.8400 C.ar   83  TRP83       0.0946
     18  CD2       -5.8040   14.1390   44.5570 C.ar   83  TRP83       0.0152
     19  NE1       -4.6320   13.5730   42.7400 N.ar   83  TRP83      -0.2442
     20  CE2       -5.8020   14.1690   43.1340 C.ar   83  TRP83       0.0810
     21  CE3       -6.9040   14.7000   45.2350 C.ar   83  TRP83       0.0012
     22  CZ2       -6.8410   14.8040   42.4670 C.ar   83  TRP83       0.0191
     23  CZ3       -7.9610   15.3140   44.5560 C.ar   83  TRP83       0.0001
     24  CH2       -7.9020   15.3810   43.1620 C.ar   83  TRP83       0.0015
     25  N         -7.4020   10.7140   42.6220 N.3    85  THR85      -0.1218
     26  CA        -7.7650   11.2920   41.3370 C.3    85  THR85       0.1862
     27  C         -9.2020   11.0260   40.9470 C.2    85  THR85       0.2287
     28  O         -9.8360   11.9360   40.4580 O.2    85  THR85      -0.2866
     29  CB        -6.8380   10.7760   40.2500 C.3    85  THR85       0.1770
     30  OG1       -5.4820   10.7930   40.6950 O.3    85  THR85      -0.2211
     31  CG2       -6.9860   11.7700   39.1240 C.3    85  THR85       0.0375
     32  N        -11.9660   13.6990   43.6060 N.3    88  VAL88      -0.1231
     33  CA       -11.7850   15.0700   44.0170 C.3    88  VAL88       0.1692
     34  C        -12.6450   15.4780   45.2420 C.2    88  VAL88       0.2591
     35  O        -12.2250   16.3170   46.0360 O.2    88  VAL88      -0.2718
     36  CB       -11.8800   16.0600   42.8160 C.3    88  VAL88       0.0266
     37  CG1      -13.3150   16.2790   42.2970 C.3    88  VAL88       0.0020
     38  CG2      -11.2520   17.3850   43.2580 C.3    88  VAL88       0.0020
     39  N        -13.8660   14.9650   45.3650 N.am   89  ALA89      -0.1980
     40  CA       -14.7880   15.4280   46.4160 C.3    89  ALA89       0.1597
     41  C        -14.4410   14.7710   47.7740 C.2    89  ALA89       0.2287
     42  O        -14.9220   15.1950   48.8320 O.2    89  ALA89      -0.2864
     43  CB       -16.1960   15.0800   45.9160 C.3    89  ALA89       0.0319
     44  N        -23.5940   22.6730   47.2380 N.3   164  TRP164     -0.1298
     45  CA       -22.9570   21.4090   46.8720 C.3   164  TRP164      0.1291
     46  C        -23.4910   20.1610   47.5600 C.3   164  TRP164      0.2013
     47  O        -22.8540   19.1380   47.3320 O.3   164  TRP164     -0.2188
     48  CB       -21.4620   21.5220   47.0830 C.3   164  TRP164      0.0497
     49  CG       -20.8220   22.3540   45.9980 C.ar  164  TRP164     -0.0001
     50  CD1      -20.4830   23.6920   45.9630 C.ar  164  TRP164      0.0946
     51  CD2      -20.4320   21.7940   44.7230 C.ar  164  TRP164      0.0152
     52  NE1      -19.8760   23.9880   44.7570 N.ar  164  TRP164     -0.2442
     53  CE2      -19.8690   22.8680   43.9330 C.ar  164  TRP164      0.0810
     54  CE3      -20.5040   20.4770   44.1860 C.ar  164  TRP164      0.0012
     55  CZ2      -19.3670   22.6230   42.6370 C.ar  164  TRP164      0.0191
     56  CZ3      -19.9820   20.2430   42.8820 C.ar  164  TRP164      0.0001
     57  CH2      -19.4200   21.3000   42.1230 C.ar  164  TRP164      0.0015
     58  N        -20.9600   16.9090   48.6730 N.3   167  THR167     -0.1218
     59  CA       -19.7510   16.8820   47.8870 C.3   167  THR167      0.1862
     60  C        -18.7210   17.8200   48.4730 C.2   167  THR167      0.2287
     61  O        -17.5300   17.5530   48.3240 O.2   167  THR167     -0.2866
     62  CB       -20.1420   17.1820   46.4410 C.3   167  THR167      0.1770
     63  OG1      -20.8740   16.0560   45.9390 O.3   167  THR167     -0.2211
     64  CG2      -18.9610   17.4670   45.5240 C.3   167  THR167      0.0375
     65  N        -13.7690   30.6430   39.4630 N.3   183  GLY183     -0.1210
     66  CA       -12.6000   30.1460   38.7410 C.3   183  GLY183      0.1956
     67  C        -13.1020   29.3950   37.4920 C.2   183  GLY183      0.2612
     68  O        -14.2760   29.0430   37.3790 O.2   183  GLY183     -0.2717
     69  N        -12.1670   28.9060   36.7010 N.am  184  CYS184     -0.1956
     70  CA       -12.4550   28.0360   35.5340 C.3   184  CYS184      0.1843
     71  C        -11.2380   27.1400   35.2690 C.2   184  CYS184      0.2625
     72  O        -10.1970   27.3990   35.9270 O.2   184  CYS184     -0.2714
     73  CB       -12.9180   28.9400   34.2920 C.3   184  CYS184      0.0997
     74  SG       -14.1580   28.0960   33.2130 S.3   184  CYS184     -0.0797
     75  N        -11.3400   26.1430   34.3210 N.am  185  GLN185     -0.1963
     76  CA       -10.1550   25.4140   33.8760 C.3   185  GLN185      0.1733
     77  C         -9.0490   26.4290   33.6370 C.2   185  GLN185      0.2616
     78  O         -9.2860   27.5210   33.0820 O.2   185  GLN185     -0.2715
     79  CB       -10.3620   24.6300   32.5310 C.3   185  GLN185      0.0408
     80  CG       -11.2950   23.3980   32.5810 C.3   185  GLN185      0.0908
     81  CD       -12.7300   23.6360   33.0850 C.2   185  GLN185      0.2608
     82  OE1      -13.3110   24.6750   32.8100 O.2   185  GLN185     -0.2717
     83  NE2      -13.3820   22.5460   33.5150 N.am  185  GLN185     -0.0878
     84  N         -7.8850   26.0920   34.1380 N.am  186  GLY186     -0.1955
     85  CA        -6.7240   26.9690   34.0100 C.3   186  GLY186      0.1869
     86  C         -6.4580   27.7880   35.2790 C.2   186  GLY186      0.2309
     87  O         -5.3300   28.2490   35.4770 O.2   186  GLY186     -0.2863
     88  N         -6.9560   26.1880   38.5220 N.3   188  SER188     -0.1217
     89  CA        -6.6480   25.1940   39.5760 C.3   188  SER188      0.1889
     90  C         -5.2650   25.4250   40.1780 C.2   188  SER188      0.2288
     91  O         -4.3280   25.7980   39.4710 O.2   188  SER188     -0.2866
     92  CB        -6.5600   23.8680   38.9070 C.3   188  SER188      0.2089
     93  OG        -7.9350   23.5360   38.5450 O.3   188  SER188     -0.2183
     94  N         -7.3080   26.4680   44.4460 N.3   206  THR206     -0.1203
     95  CA        -8.4770   26.1420   43.6350 C.3   206  THR206      0.1994
     96  C         -8.5200   24.6360   43.2810 C.2   206  THR206      0.2619
     97  O         -7.5080   24.0570   42.8780 O.2   206  THR206     -0.2717
     98  CB        -8.4320   27.0790   42.3890 C.3   206  THR206      0.1784
     99  OG1       -8.1940   28.4390   42.7970 O.3   206  THR206     -0.2211
    100  CG2       -9.6000   26.8520   41.4570 C.3   206  THR206      0.0376
    101  N         -9.7140   24.0550   43.4640 N.am  207  SER207     -0.1937
    102  CA        -9.8820   22.6800   43.2030 C.3   207  SER207      0.2055
    103  C        -10.8940   22.3400   42.1070 C.2   207  SER207      0.2643
    104  O        -10.6110   21.4370   41.3320 O.2   207  SER207     -0.2714
    105  CB       -10.1570   21.9600   44.5940 C.3   207  SER207      0.2130
    106  OG       -10.3020   20.5500   44.4250 O.3   207  SER207     -0.2179
    107  N        -12.1650   22.6550   42.2930 N.am  208  PHE208     -0.1959
    108  CA       -13.1010   22.1780   41.3150 C.3   208  PHE208      0.1771
    109  C        -14.2370   23.1720   41.1640 C.2   208  PHE208      0.2619
    110  O        -14.5110   23.9070   42.1040 O.2   208  PHE208     -0.2715
    111  CB       -13.7410   20.8390   41.6860 C.3   208  PHE208      0.0574
    112  CG       -14.4230   20.7330   43.0310 C.ar  208  PHE208     -0.0200
    113  CD1      -13.7180   20.1420   44.0930 C.ar  208  PHE208     -0.0042
    114  CD2      -15.8200   20.8170   43.1040 C.ar  208  PHE208     -0.0042
    115  CE1      -14.4100   19.7990   45.2650 C.ar  208  PHE208     -0.0003
    116  CE2      -16.5180   20.4080   44.2760 C.ar  208  PHE208     -0.0003
    117  CZ       -15.8050   19.9060   45.3640 C.ar  208  PHE208     -0.0000
    118  N        -15.0150   22.9770   40.0910 N.am  209  VAL209     -0.1977
    119  CA       -16.2620   23.6970   39.8440 C.3   209  VAL209      0.1596
    120  C        -17.2710   22.6340   39.4360 C.2   209  VAL209      0.2287
    121  O        -16.9060   21.4780   39.2840 O.2   209  VAL209     -0.2864
    122  CB       -16.0760   24.8170   38.7520 C.3   209  VAL209      0.0276
    123  CG1      -15.0950   25.9320   39.2080 C.3   209  VAL209      0.0022
    124  CG2      -15.5810   24.2540   37.4290 C.3   209  VAL209      0.0022
    125  N        -19.7840   20.4610   37.0380 N.3   211  ARG211     -0.1245
    126  CA       -19.6940   19.7800   35.7430 C.3   211  ARG211      0.1563
    127  C        -20.5050   20.6170   34.7550 C.2   211  ARG211      0.2260
    128  O        -20.3020   20.5540   33.5610 O.2   211  ARG211     -0.2867
    129  CB       -20.3550   18.4110   35.8930 C.3   211  ARG211      0.0307
    130  CG       -19.4750   17.2970   35.3900 C.3   211  ARG211      0.0489
    131  CD       -20.3350   16.0890   35.0480 C.3   211  ARG211      0.2205
    132  NE       -20.9010   15.5310   36.2510 N.pl3 211  ARG211     -0.0865
    133  CZ       -22.2100   15.2900   36.3550 C.cat 211  ARG211      0.5346
    134  NH1      -22.9730   15.5550   35.2630 N.pl3 211  ARG211      0.1354
    135  NH2      -22.6740   14.6550   37.4660 N.pl3 211  ARG211      0.1354
@<TRIPOS>BOND
     1    79    80    1
     2    79    76    1
     3    80    81    1
     4    82    81    2
     5    78    77    2
     6    81    83   am
     7    74    73    1
     8   128   127    2
     9    77    76    1
    10    77    84   am
    11    76    75    1
    12    85    84    1
    13    85    86    1
    14    73    70    1
    15    75    71   am
    16   127   126    1
    17   131   130    1
    18   131   132    1
    19   134   133    1
    20    71    70    1
    21    71    72    2
    22    86    87    2
    23   130   129    1
    24    70    69    1
    25   126   129    1
    26   126   125    1
    27   132   133    2
    28   133   135    1
    29    69    67   am
    30    68    67    2
    31   124   122    1
    32    67    66    1
    33     4     3    2
    34    88    89    1
    35    93    92    1
    36     8    10   ar
    37     8     6   ar
    38    66    65    1
    39   122   123    1
    40   122   119    1
    41    92    89    1
    42    10     9   ar
    43     3     2    1
    44    31    29    1
    45   121   120    2
    46   120   119    1
    47    91    90    2
    48    89    90    1
    49     6     5    1
    50     6     7   ar
    51   119   118    1
    52     5     2    1
    53   118   109   am
    54     2     1    1
    55    29    30    1
    56    29    26    1
    57     9     7   ar
    58    28    27    2
    59    27    26    1
    60   109   108    1
    61   109   110    2
    62   108   111    1
    63   108   107    1
    64   104   103    2
    65    26    25    1
    66   100    98    1
    67   111   112    1
    68   103   107   am
    69   103   102    1
    70    57    55   ar
    71    57    56   ar
    72    37    36    1
    73    98    99    1
    74    98    95    1
    75    22    20   ar
    76    22    24   ar
    77    55    53   ar
    78    19    20   ar
    79    19    17   ar
    80    36    38    1
    81    36    33    1
    82    97    96    2
    83    56    54   ar
    84   112   114   ar
    85   112   113   ar
    86   114   116   ar
    87    20    18   ar
    88    24    23   ar
    89   102   101    1
    90   102   105    1
    91    96   101   am
    92    96    95    1
    93    32    33    1
    94    95    94    1
    95    17    16   ar
    96    53    51   ar
    97    53    52   ar
    98    33    34    1
    99   113   115   ar
   100    54    51   ar
   101   116   117   ar
   102   106   105    1
   103    23    21   ar
   104    18    16   ar
   105    18    21   ar
   106    51    49   ar
   107    52    50   ar
   108    16    15    1
   109    34    39   am
   110    34    35    2
   111   115   117   ar
   112    39    40    1
   113    64    62    1
   114    43    40    1
   115    63    62    1
   116    50    49   ar
   117    49    48    1
   118    14    13    2
   119    13    12    1
   120    15    12    1
   121    40    41    1
   122    62    59    1
   123    45    48    1
   124    45    44    1
   125    45    46    1
   126    12    11    1
   127    47    46    1
   128    41    42    2
   129    59    60    1
   130    59    58    1
   131    61    60    2
