@<TRIPOS>MOLECULE
tmp/5esuC00.pdb
 178 169 0 0 0
SMALL
GASTEIGER

@<TRIPOS>ATOM
      1  N        -25.4110   22.2860    6.7990 N.3   270  ARG270     -0.1245
      2  CA       -26.4540   23.1860    7.2900 C.3   270  ARG270      0.1563
      3  C        -26.9050   24.2600    6.2830 C.2   270  ARG270      0.2260
      4  O        -28.1020   24.5320    6.1900 O.2   270  ARG270     -0.2867
      5  CB       -25.9950   23.8620    8.5870 C.3   270  ARG270      0.0307
      6  CG       -26.2410   23.0340    9.8430 C.3   270  ARG270      0.0489
      7  CD       -25.2060   23.3330   10.9150 C.3   270  ARG270      0.2205
      8  NE       -25.4390   22.5680   12.1370 N.pl3 270  ARG270     -0.0865
      9  CZ       -25.8870   23.0940   13.2730 C.cat 270  ARG270      0.5346
     10  NH1      -26.1490   24.3910   13.3470 N.pl3 270  ARG270      0.1354
     11  NH2      -26.0690   22.3230   14.3370 N.pl3 270  ARG270      0.1354
     12  N         -8.9200   15.6110   10.7880 N.3   343  GLY343     -0.1225
     13  CA        -9.6430   14.7310    9.8890 C.3   343  GLY343      0.1811
     14  C         -9.8000   15.3500    8.5140 C.2   343  GLY343      0.2280
     15  O         -9.8210   14.6470    7.5040 O.2   343  GLY343     -0.2866
     16  N        -19.7630    7.6310    8.3870 N.3   364  ALA364     -0.1231
     17  CA       -20.5790    8.7720    8.7810 C.3   364  ALA364      0.1694
     18  C        -19.7370    9.7990    9.5370 C.2   364  ALA364      0.2593
     19  O        -18.5120    9.6790    9.5970 O.2   364  ALA364     -0.2718
     20  CB       -21.7610    8.3150    9.6290 C.3   364  ALA364      0.0304
     21  N        -20.4080   10.7990   10.1070 N.am  365  SER365     -0.1938
     22  CA       -19.7620   11.8810   10.8510 C.3   365  SER365      0.2055
     23  C        -18.9000   12.7450    9.9310 C.2   365  SER365      0.2643
     24  O        -19.2840   13.0230    8.7950 O.2   365  SER365     -0.2714
     25  CB       -18.9220   11.3240   12.0050 C.3   365  SER365      0.2130
     26  OG       -18.6700   12.3160   12.9820 O.3   365  SER365     -0.2179
     27  N        -17.7420   13.1710   10.4260 N.am  366  ASN366     -0.1958
     28  CA       -16.8490   14.0480    9.6620 C.3   366  ASN366      0.1804
     29  C        -16.2980   13.4930    8.3350 C.2   366  ASN366      0.2463
     30  O        -16.2630   14.2340    7.3530 O.2   366  ASN366     -0.2730
     31  CB       -15.6720   14.4880   10.5420 C.3   366  ASN366      0.1195
     32  CG       -15.9770   15.7420   11.3400 C.2   366  ASN366      0.2630
     33  OD1      -16.8750   16.5100   10.9910 O.2   366  ASN366     -0.2716
     34  ND2      -15.2280   15.9580   12.4150 N.am  366  ASN366     -0.0877
     35  N        -15.8550   12.2130    8.2950 N.am  367  PRO367     -0.2727
     36  CA       -15.2630   11.6850    7.0540 C.3   367  PRO367      0.1402
     37  C        -16.0460   11.9580    5.7640 C.2   367  PRO367      0.2269
     38  O        -15.4430   12.4020    4.7870 O.2   367  PRO367     -0.2865
     39  CB       -15.2000   10.1810    7.3240 C.3   367  PRO367      0.0296
     40  CG       -14.9640   10.0960    8.7750 C.3   367  PRO367      0.0237
     41  CD       -15.7390   11.2330    9.3930 C.3   367  PRO367      0.0939
     42  N        -18.2960   14.2410    5.2770 N.3   369  ARG369     -0.1245
     43  CA       -18.4020   15.6860    5.1080 C.3   369  ARG369      0.1563
     44  C        -17.0640   16.3120    4.7210 C.2   369  ARG369      0.2260
     45  O        -17.0060   17.1820    3.8490 O.2   369  ARG369     -0.2867
     46  CB       -18.9310   16.3320    6.3900 C.3   369  ARG369      0.0307
     47  CG       -20.4140   16.1000    6.6290 C.3   369  ARG369      0.0489
     48  CD       -20.7830   16.2750    8.0910 C.3   369  ARG369      0.2205
     49  NE       -22.2010   16.0160    8.3210 N.pl3 369  ARG369     -0.0865
     50  CZ       -22.7010   14.8260    8.6390 C.cat 369  ARG369      0.5346
     51  NH1      -21.8980   13.7760    8.7660 N.pl3 369  ARG369      0.1354
     52  NH2      -24.0060   14.6830    8.8260 N.pl3 369  ARG369      0.1354
     53  N        -25.8110    6.2690    4.0720 N.3   387  ARG387     -0.1245
     54  CA       -26.5300    7.5090    4.3580 C.3   387  ARG387      0.1563
     55  C        -28.0210    7.2950    4.6120 C.2   387  ARG387      0.2260
     56  O        -28.7630    8.2570    4.8230 O.2   387  ARG387     -0.2867
     57  CB       -26.3520    8.5060    3.2090 C.3   387  ARG387      0.0307
     58  CG       -24.9170    8.9500    2.9680 C.3   387  ARG387      0.0489
     59  CD       -24.2740    9.4740    4.2420 C.3   387  ARG387      0.2205
     60  NE       -25.0400   10.5600    4.8470 N.pl3 387  ARG387     -0.0865
     61  CZ       -24.8220   11.0330    6.0700 C.cat 387  ARG387      0.5346
     62  NH1      -23.8590   10.5160    6.8220 N.pl3 387  ARG387      0.1354
     63  NH2      -25.5670   12.0220    6.5430 N.pl3 387  ARG387      0.1354
     64  N        -27.4150    6.7840    8.4950 N.3   390  ALA390     -0.1231
     65  CA       -26.1370    7.3870    8.8770 C.3   390  ALA390      0.1694
     66  C        -25.6230    6.9170   10.2330 C.2   390  ALA390      0.2593
     67  O        -25.2230    7.7270   11.0680 O.2   390  ALA390     -0.2718
     68  CB       -26.2520    8.9080    8.8660 C.3   390  ALA390      0.0304
     69  N        -25.6280    5.6070   10.4500 N.am  391  GLY391     -0.1942
     70  CA       -25.0670    5.0500   11.6660 C.3   391  GLY391      0.2014
     71  C        -23.5610    4.9090   11.5560 C.2   391  GLY391      0.2639
     72  O        -23.0210    4.7780   10.4570 O.2   391  GLY391     -0.2714
     73  N        -22.8760    4.9470   12.6920 N.am  392  ILE392     -0.1963
     74  CA       -21.4370    4.7130   12.7060 C.3   392  ILE392      0.1727
     75  C        -21.1630    3.2410   12.9800 C.2   392  ILE392      0.2616
     76  O        -20.0270    2.8450   13.2380 O.2   392  ILE392     -0.2715
     77  CB       -20.7180    5.5830   13.7570 C.3   392  ILE392      0.0290
     78  CG1      -21.1810    5.2200   15.1690 C.3   392  ILE392      0.0022
     79  CG2      -20.9460    7.0630   13.4740 C.3   392  ILE392      0.0023
     80  CD1      -20.2700    5.7470   16.2560 C.3   392  ILE392      0.0001
     81  N        -22.2190    2.4360   12.9250 N.am  393  ASP393     -0.1971
     82  CA       -22.0940    0.9980   13.1160 C.3   393  ASP393      0.1709
     83  C        -21.9890    0.2730   11.7780 C.2   393  ASP393      0.2293
     84  O        -22.5720    0.7030   10.7820 O.2   393  ASP393     -0.2864
     85  CB       -23.2810    0.4520   13.9190 C.3   393  ASP393      0.1436
     86  CG       -24.6250    0.8920   13.3580 C.2   393  ASP393      0.3671
     87  OD1      -24.7770    2.0910   13.0330 O.co2 393  ASP393     -0.2456
     88  OD2      -25.5310    0.0380   13.2410 O.co2 393  ASP393     -0.2456
     89  N        -13.8850    7.2480   10.7120 N.3   422  GLY422     -0.1210
     90  CA       -13.4130    7.8150   11.9630 C.3   422  GLY422      0.1956
     91  C        -12.9470    6.7230   12.9050 C.2   422  GLY422      0.2612
     92  O        -13.0100    5.5410   12.5690 O.2   422  GLY422     -0.2717
     93  N        -12.4810    7.1100   14.0880 N.am  423  ASP423     -0.1959
     94  CA       -11.9650    6.1390   15.0490 C.3   423  ASP423      0.1840
     95  C        -13.0880    5.4650   15.8320 C.2   423  ASP423      0.2622
     96  O        -13.0150    4.2720   16.1250 O.2   423  ASP423     -0.2715
     97  CB       -10.9780    6.8040   16.0100 C.3   423  ASP423      0.1450
     98  CG       -11.5460    8.0500   16.6590 C.2   423  ASP423      0.3671
     99  OD1      -11.7570    9.0500   15.9400 O.co2 423  ASP423     -0.2456
    100  OD2      -11.7770    8.0310   17.8880 O.co2 423  ASP423     -0.2456
    101  N        -14.1200    6.2310   16.1770 N.am  424  LEU424     -0.1963
    102  CA       -15.2920    5.6700   16.8440 C.3   424  LEU424      0.1728
    103  C        -15.9480    4.6270   15.9530 C.2   424  LEU424      0.2616
    104  O        -16.2830    3.5300   16.4010 O.2   424  LEU424     -0.2715
    105  CB       -16.2970    6.7670   17.2020 C.3   424  LEU424      0.0311
    106  CG       -16.2540    7.3160   18.6300 C.3   424  LEU424      0.0022
    107  CD1      -14.8450    7.7270   19.0130 C.3   424  LEU424      0.0001
    108  CD2      -17.2210    8.4830   18.7850 C.3   424  LEU424      0.0001
    109  N        -16.1180    4.9860   14.6850 N.am  425  THR425     -0.1951
    110  CA       -16.6880    4.0980   13.6830 C.3   425  THR425      0.1897
    111  C        -15.9000    2.7940   13.5760 C.2   425  THR425      0.2313
    112  O        -16.4810    1.7130   13.4680 O.2   425  THR425     -0.2863
    113  CB       -16.7340    4.7860   12.3070 C.3   425  THR425      0.1794
    114  OG1      -17.6080    5.9190   12.3700 O.3   425  THR425     -0.2208
    115  CG2      -17.2370    3.8360   11.2500 C.3   425  THR425      0.0378
    116  N        -16.4420    0.6960   16.7060 N.3   428  HIS428     -0.1241
    117  CA       -17.7950    0.1550   16.6700 C.3   428  HIS428      0.1621
    118  C        -17.8470   -1.2020   15.9700 C.2   428  HIS428      0.2264
    119  O        -18.3540   -2.1770   16.5230 O.2   428  HIS428     -0.2867
    120  CB       -18.7380    1.1350   15.9700 C.3   428  HIS428      0.0745
    121  CG       -20.0900    1.2330   16.6040 C.ar  428  HIS428      0.0817
    122  ND1      -21.0470    0.2500   16.4750 N.ar  428  HIS428     -0.2268
    123  CD2      -20.6480    2.2050   17.3650 C.ar  428  HIS428      0.1154
    124  CE1      -22.1340    0.6080   17.1350 C.ar  428  HIS428      0.1986
    125  NE2      -21.9180    1.7910   17.6830 N.ar  428  HIS428     -0.2212
    126  N         -8.9170    7.9330   10.3210 N.3   450  SER450     -0.1217
    127  CA        -8.5750    9.2250   10.9020 C.3   450  SER450      0.1889
    128  C         -8.9250    9.2170   12.3860 C.2   450  SER450      0.2288
    129  O        -10.0760    9.4320   12.7630 O.2   450  SER450     -0.2866
    130  CB        -9.3050   10.3600   10.1790 C.3   450  SER450      0.2089
    131  OG        -9.1010   11.5990   10.8370 O.3   450  SER450     -0.2183
    132  N         -8.8390   10.8170   15.7740 N.3   452  ASP452     -0.1239
    133  CA        -8.6710   11.9710   16.6510 C.3   452  ASP452      0.1674
    134  C         -9.1320   11.6360   18.0690 C.2   452  ASP452      0.2266
    135  O         -9.4410   12.5290   18.8580 O.2   452  ASP452     -0.2867
    136  CB        -9.4260   13.1930   16.1100 C.3   452  ASP452      0.1410
    137  CG       -10.8610   12.8800   15.7220 C.2   452  ASP452      0.3668
    138  OD1      -11.4100   11.8700   16.2050 O.co2 452  ASP452     -0.2456
    139  OD2      -11.4430   13.6570   14.9350 O.co2 452  ASP452     -0.2456
    140  N        -11.9040   10.2770   19.4630 N.3   454  GLY454     -0.1210
    141  CA       -13.2040   10.7680   19.8810 C.3   454  GLY454      0.1956
    142  C        -14.0800   11.2120   18.7250 C.2   454  GLY454      0.2612
    143  O        -13.7600   10.9710   17.5610 O.2   454  GLY454     -0.2717
    144  N        -15.1930   11.8640   19.0510 N.am  455  GLY455     -0.1942
    145  CA       -16.1200   12.3500   18.0440 C.3   455  GLY455      0.2014
    146  C        -15.8400   13.7880   17.6560 C.2   455  GLY455      0.2639
    147  O        -16.3190   14.7220   18.3020 O.2   455  GLY455     -0.2714
    148  N        -15.0640   13.9650   16.5920 N.am  456  GLY456     -0.1939
    149  CA       -14.6490   15.2850   16.1550 C.3   456  GLY456      0.2014
    150  C        -15.7750   16.1920   15.6960 C.2   456  GLY456      0.2639
    151  O        -15.6740   17.4140   15.8160 O.2   456  GLY456     -0.2714
    152  N        -16.8510   15.6030   15.1790 N.am  457  ILE457     -0.1963
    153  CA       -17.9490   16.3790   14.6040 C.3   457  ILE457      0.1727
    154  C        -18.6720   17.2270   15.6510 C.2   457  ILE457      0.2616
    155  O        -19.2960   18.2350   15.3210 O.2   457  ILE457     -0.2715
    156  CB       -18.9800   15.4650   13.8950 C.3   457  ILE457      0.0290
    157  CG1      -19.9340   16.2940   13.0310 C.3   457  ILE457      0.0022
    158  CG2      -19.7530   14.6270   14.9060 C.3   457  ILE457      0.0023
    159  CD1      -20.6640   15.4950   11.9780 C.3   457  ILE457      0.0001
    160  N        -18.5710   16.8320   16.9160 N.am  458  PHE458     -0.1974
    161  CA       -19.2760   17.5330   17.9810 C.3   458  PHE458      0.1639
    162  C        -18.6090   18.8630   18.3290 C.2   458  PHE458      0.2290
    163  O        -19.2120   19.7150   18.9850 O.2   458  PHE458     -0.2864
    164  CB       -19.3800   16.6410   19.2190 C.3   458  PHE458      0.0560
    165  CG       -20.2020   15.4030   18.9960 C.ar  458  PHE458     -0.0200
    166  CD1      -21.5520   15.4990   18.6940 C.ar  458  PHE458     -0.0042
    167  CD2      -19.6260   14.1450   19.0720 C.ar  458  PHE458     -0.0042
    168  CE1      -22.3150   14.3620   18.4810 C.ar  458  PHE458     -0.0003
    169  CE2      -20.3830   13.0030   18.8620 C.ar  458  PHE458     -0.0003
    170  CZ       -21.7290   13.1130   18.5660 C.ar  458  PHE458     -0.0000
    171  N        -20.5320   21.6890   16.4890 N.3   461  LEU461     -0.1245
    172  CA       -21.9210   21.9380   16.8600 C.3   461  LEU461      0.1561
    173  C        -21.9920   22.8490   18.0810 C.2   461  LEU461      0.2260
    174  O        -20.9600   23.2140   18.6420 O.2   461  LEU461     -0.2867
    175  CB       -22.6460   20.6170   17.1260 C.3   461  LEU461      0.0270
    176  CG       -22.5530   19.5970   15.9860 C.3   461  LEU461      0.0019
    177  CD1      -23.1500   18.2590   16.3930 C.3   461  LEU461      0.0001
    178  CD2      -23.2240   20.1310   14.7280 C.3   461  LEU461      0.0001
@<TRIPOS>BOND
     1    58    57    1
     2    58    59    1
     3    57    54    1
     4    45    44    2
     5    53    54    1
     6    59    60    1
     7    54    55    1
     8    55    56    2
     9    44    43    1
    10    38    37    2
    11    60    61    2
    12    43    42    1
    13    43    46    1
    14    37    36    1
    15    61    63    1
    16    61    62    1
    17     4     3    2
    18     3     2    1
    19    46    47    1
    20    47    48    1
    21     1     2    1
    22    36    39    1
    23    36    35    1
    24     2     5    1
    25    39    40    1
    26    30    29    2
    27    15    14    2
    28    48    49    1
    29    35    29   am
    30    35    41    1
    31    49    50    2
    32    29    28    1
    33    16    17    1
    34    64    65    1
    35    14    13    1
    36     5     6    1
    37    50    51    1
    38    50    52    1
    39    40    41    1
    40    17    18    1
    41    17    20    1
    42    24    23    2
    43    68    65    1
    44    65    66    1
    45    18    19    2
    46    18    21   am
    47    28    27    1
    48    28    31    1
    49     6     7    1
    50    13    12    1
    51    23    27   am
    52    23    22    1
    53    21    22    1
    54   130   131    1
    55   130   127    1
    56    66    69   am
    57    66    67    2
    58   126   127    1
    59    69    70    1
    60    72    71    2
    61    31    32    1
    62    89    90    1
    63    84    83    2
    64    22    25    1
    65   127   128    1
    66     7     8    1
    67    33    32    2
    68   115   113    1
    69    32    34   am
    70    71    70    1
    71    71    73   am
    72    83    82    1
    73    90    91    1
    74   159   157    1
    75    25    26    1
    76     8     9    2
    77   113   114    1
    78   113   110    1
    79   128   129    2
    80    92    91    2
    81    73    74    1
    82    74    75    1
    83    74    77    1
    84    91    93   am
    85    81    75   am
    86    81    82    1
    87    75    76    2
    88   157   156    1
    89    87    86   ar
    90    82    85    1
    91    88    86   ar
    92     9    10    1
    93     9    11    1
    94    86    85    1
    95   112   111    2
    96    79    77    1
    97   111   110    1
    98   110   109    1
    99    77    78    1
   100   156   153    1
   101   156   158    1
   102    93    94    1
   103   153   152    1
   104   153   154    1
   105   109   103   am
   106   178   176    1
   107   139   137   ar
   108    94    95    1
   109    94    97    1
   110    78    80    1
   111   152   150   am
   112   155   154    2
   113   154   160   am
   114   150   151    2
   115   150   149    1
   116   137   136    1
   117   137   138   ar
   118   132   133    1
   119    95    96    2
   120    95   101   am
   121    99    98   ar
   122   103   104    2
   123   103   102    1
   124   118   119    2
   125   118   117    1
   126   120   121    1
   127   120   117    1
   128   176   177    1
   129   176   175    1
   130    97    98    1
   131   136   133    1
   132   149   148    1
   133   101   102    1
   134   122   121   ar
   135   122   124   ar
   136   171   172    1
   137   148   146   am
   138   121   123   ar
   139   133   134    1
   140    98   100   ar
   141   117   116    1
   142   102   105    1
   143   172   175    1
   144   172   173    1
   145   160   161    1
   146   124   125   ar
   147   105   106    1
   148   123   125   ar
   149   143   142    2
   150   146   145    1
   151   146   147    2
   152   161   162    1
   153   161   164    1
   154   145   144    1
   155   134   135    2
   156   173   174    2
   157   162   163    2
   158   168   170   ar
   159   168   166   ar
   160   170   169   ar
   161   106   108    1
   162   106   107    1
   163   166   165   ar
   164   142   144   am
   165   142   141    1
   166   169   167   ar
   167   165   167   ar
   168   165   164    1
   169   140   141    1
