@<TRIPOS>MOLECULE
tmp/5esuA00.pdb
 106 99 0 0 0
SMALL
GASTEIGER

@<TRIPOS>ATOM
      1  N        -70.3560   11.5560   12.8950 N.3    27  PRO27      -0.2102
      2  CA       -70.4240   12.4650   14.0410 C.3    27  PRO27       0.1504
      3  C        -69.4760   12.0840   15.1690 C.2    27  PRO27       0.2576
      4  O        -69.1650   10.9100   15.3700 O.2    27  PRO27      -0.2718
      5  CB       -71.8800   12.3440   14.4940 C.3    27  PRO27       0.0282
      6  CG       -72.2760   10.9660   14.0830 C.3    27  PRO27       0.0208
      7  CD       -71.5620   10.7170   12.7840 C.3    27  PRO27       0.0893
      8  N        -69.0250   13.0990   15.8940 N.am   28  GLY28      -0.1943
      9  CA       -68.1740   12.9150   17.0500 C.3    28  GLY28       0.2014
     10  C        -67.8150   14.2820   17.5940 C.2    28  GLY28       0.2640
     11  O        -68.1270   15.3020   16.9770 O.2    28  GLY28      -0.2714
     12  N        -67.1630   14.3120   18.7480 N.am   29  SER29      -0.1935
     13  CA       -66.7530   15.5750   19.3370 C.3    29  SER29       0.2055
     14  C        -65.2830   15.8530   19.0470 C.2    29  SER29       0.2642
     15  O        -64.9030   16.9900   18.7790 O.2    29  SER29      -0.2714
     16  CB       -67.0100   15.5760   20.8430 C.3    29  SER29       0.2130
     17  OG       -66.8400   16.8740   21.3780 O.3    29  SER29      -0.2179
     18  N        -64.4610   14.8080   19.0880 N.am   30  ARG30      -0.1977
     19  CA       -63.0260   14.9680   18.8890 C.3    30  ARG30       0.1597
     20  C        -62.7030   15.4000   17.4580 C.2    30  ARG30       0.2287
     21  O        -61.6880   16.0600   17.2170 O.2    30  ARG30      -0.2864
     22  CB       -62.2890   13.6700   19.2400 C.3    30  ARG30       0.0334
     23  CG       -60.7680   13.7900   19.2470 C.3    30  ARG30       0.0492
     24  CD       -60.2860   14.9420   20.1320 C.3    30  ARG30       0.2205
     25  NE       -60.8190   14.8520   21.4890 N.pl3  30  ARG30      -0.0865
     26  CZ       -60.2020   15.3170   22.5710 C.cat  30  ARG30       0.5346
     27  NH1      -59.0150   15.9050   22.4640 N.pl3  30  ARG30       0.1354
     28  NH2      -60.7670   15.1880   23.7630 N.pl3  30  ARG30       0.1354
     29  N        -73.9860    7.8580    9.7470 N.3    53  ILE53      -0.1245
     30  CA       -73.9930    7.4640   11.1480 C.3    53  ILE53       0.1561
     31  C        -73.0830    6.2590   11.4020 C.2    53  ILE53       0.2260
     32  O        -72.3400    6.2220   12.3840 O.2    53  ILE53      -0.2867
     33  CB       -75.4300    7.1460   11.6090 C.3    53  ILE53       0.0252
     34  CG1      -76.2710    8.4270   11.6260 C.3    53  ILE53       0.0019
     35  CG2      -75.4290    6.4900   12.9810 C.3    53  ILE53       0.0019
     36  CD1      -77.7650    8.1770   11.6120 C.3    53  ILE53       0.0001
     37  N        -69.9340    4.2090   10.6600 N.3    55  GLU55      -0.1245
     38  CA       -68.5960    4.3670   10.0880 C.3    55  GLU55       0.1567
     39  C        -68.2220    3.2940    9.0680 C.2    55  GLU55       0.2260
     40  O        -67.5240    3.5810    8.0930 O.2    55  GLU55      -0.2867
     41  CB       -67.5390    4.3840   11.1960 C.3    55  GLU55       0.0388
     42  CG       -67.4700    5.6760   11.9950 C.3    55  GLU55       0.1160
     43  CD       -68.5030    5.7380   13.1010 C.2    55  GLU55       0.3649
     44  OE1      -69.1680    4.7110   13.3580 O.co2  55  GLU55      -0.2457
     45  OE2      -68.6440    6.8120   13.7200 O.co2  55  GLU55      -0.2457
     46  N        -64.4320   10.3460   14.3780 N.3    78  THR78      -0.1203
     47  CA       -63.8400   10.6540   15.6740 C.3    78  THR78       0.1994
     48  C        -62.9360    9.5130   16.1340 C.2    78  THR78       0.2618
     49  O        -62.7720    8.5200   15.4240 O.2    78  THR78      -0.2717
     50  CB       -64.9190   10.9220   16.7340 C.3    78  THR78       0.1784
     51  OG1      -64.3010   11.3620   17.9500 O.3    78  THR78      -0.2211
     52  CG2      -65.7350    9.6620   16.9980 C.3    78  THR78       0.0376
     53  N        -62.3490    9.6550   17.3200 N.am   79  SER79      -0.1951
     54  CA       -61.3990    8.6620   17.8180 C.3    79  SER79       0.1924
     55  C        -62.0940    7.4060   18.3440 C.2    79  SER79       0.2314
     56  O        -63.2900    7.4250   18.6340 O.2    79  SER79      -0.2863
     57  CB       -60.5200    9.2660   18.9180 C.3    79  SER79       0.2116
     58  OG       -61.2750    9.5580   20.0800 O.3    79  SER79      -0.2180
     59  N        -63.3360    3.2860   18.3160 N.3    81  THR81      -0.1203
     60  CA       -63.8120    2.2350   17.4150 C.3    81  THR81       0.1994
     61  C        -64.3660    2.7860   16.1080 C.2    81  THR81       0.2617
     62  O        -64.5140    2.0410   15.1410 O.2    81  THR81      -0.2717
     63  CB       -64.9040    1.3600   18.0610 C.3    81  THR81       0.1784
     64  OG1      -65.8640    2.1850   18.7260 O.3    81  THR81      -0.2211
     65  CG2      -64.2920    0.3890   19.0520 C.3    81  THR81       0.0376
     66  N        -64.6760    4.0820   16.0830 N.am   82  ALA82      -0.1979
     67  CA       -65.0980    4.7330   14.8490 C.3    82  ALA82       0.1597
     68  C        -64.0450    4.5090   13.7750 C.2    82  ALA82       0.2287
     69  O        -64.3660    4.2080   12.6260 O.2    82  ALA82      -0.2864
     70  CB       -65.3320    6.2240   15.0730 C.3    82  ALA82       0.0319
     71  N        -63.8390    0.7810   12.6610 N.3    85  ASN85      -0.1240
     72  CA       -64.9240    0.3730   11.7750 C.3    85  ASN85       0.1653
     73  C        -64.6170    0.6240   10.2990 C.2    85  ASN85       0.2266
     74  O        -65.3580    0.1830    9.4190 O.2    85  ASN85      -0.2867
     75  CB       -66.2220    1.0810   12.1670 C.3    85  ASN85       0.1155
     76  CG       -67.0460    0.2750   13.1550 C.2    85  ASN85       0.2627
     77  OD1      -67.8490   -0.5760   12.7660 O.2    85  ASN85      -0.2716
     78  ND2      -66.8450    0.5330   14.4410 N.am   85  ASN85      -0.0877
     79  N        -57.2220   11.8650   20.1770 N.3   107  ARG107     -0.1245
     80  CA       -56.6780   12.5230   21.3530 C.3   107  ARG107      0.1563
     81  C        -55.1820   12.6940   21.1140 C.2   107  ARG107      0.2260
     82  O        -54.6020   11.9630   20.3060 O.2   107  ARG107     -0.2867
     83  CB       -56.9430   11.7010   22.6190 C.3   107  ARG107      0.0307
     84  CG       -58.2220   12.0630   23.3640 C.3   107  ARG107      0.0489
     85  CD       -59.4790   11.5230   22.6840 C.3   107  ARG107      0.2205
     86  NE       -60.6550   11.7070   23.5330 N.pl3 107  ARG107     -0.0865
     87  CZ       -61.9150   11.6400   23.1110 C.cat 107  ARG107      0.5346
     88  NH1      -62.1850   11.3890   21.8370 N.pl3 107  ARG107      0.1354
     89  NH2      -62.9110   11.8260   23.9670 N.pl3 107  ARG107      0.1354
     90  N        -60.7210    8.5480   28.1310 N.3   117  ASN117     -0.1225
     91  CA       -61.9030    8.0420   27.4500 C.3   117  ASN117      0.1785
     92  C        -61.7160    7.9710   25.9370 C.2   117  ASN117      0.2597
     93  O        -61.1110    8.8620   25.3400 O.2   117  ASN117     -0.2718
     94  CB       -63.1120    8.9210   27.7830 C.3   117  ASN117      0.1169
     95  CG       -64.4260    8.3050   27.3370 C.2   117  ASN117      0.2627
     96  OD1      -64.6720    7.1190   27.5490 O.2   117  ASN117     -0.2716
     97  ND2      -65.2780    9.1130   26.7110 N.am  117  ASN117     -0.0877
     98  N        -62.2190    6.8970   25.3320 N.am  118  GLN118     -0.1979
     99  CA       -62.3180    6.7940   23.8770 C.3   118  GLN118      0.1601
    100  C        -60.9650    6.9550   23.1840 C.2   118  GLN118      0.2287
    101  O        -60.8600    7.5840   22.1330 O.2   118  GLN118     -0.2864
    102  CB       -63.3080    7.8430   23.3570 C.3   118  GLN118      0.0394
    103  CG       -63.9100    7.5490   21.9970 C.3   118  GLN118      0.0908
    104  CD       -64.9450    8.5760   21.6080 C.2   118  GLN118      0.2608
    105  OE1      -65.7860    8.9560   22.4210 O.2   118  GLN118     -0.2717
    106  NE2      -64.8890    9.0400   20.3650 N.am  118  GLN118     -0.0878
@<TRIPOS>BOND
     1    40    39    2
     2    39    38    1
     3    74    73    2
     4    29    30    1
     5    38    37    1
     6    38    41    1
     7    73    72    1
     8    30    31    1
     9    30    33    1
    10    41    42    1
    11    31    32    2
    12    33    34    1
    13    33    35    1
    14    36    34    1
    15    72    75    1
    16    72    71    1
    17    42    43    1
    18    75    76    1
    19    69    68    2
    20    77    76    2
    21     7     1    1
    22     7     6    1
    23     1     2    1
    24    43    44   ar
    25    43    45   ar
    26    76    78   am
    27    68    67    1
    28     2     5    1
    29     2     3    1
    30     6     5    1
    31    46    47    1
    32    67    70    1
    33    67    66    1
    34    62    61    2
    35     3     4    2
    36     3     8   am
    37    49    48    2
    38    47    48    1
    39    47    50    1
    40     8     9    1
    41    66    61   am
    42    61    60    1
    43    48    53   am
    44    50    52    1
    45    50    51    1
    46    11    10    2
    47     9    10    1
    48    21    20    2
    49    53    54    1
    50    60    63    1
    51    60    59    1
    52    20    19    1
    53    10    12   am
    54    54    55    1
    55    54    57    1
    56    63    64    1
    57    63    65    1
    58    55    56    2
    59    12    13    1
    60    15    14    2
    61    19    18    1
    62    19    22    1
    63    57    58    1
    64    14    18   am
    65    14    13    1
    66    22    23    1
    67    23    24    1
    68    13    16    1
    69    24    25    1
    70    79    80    1
    71    82    81    2
    72   106   104   am
    73    16    17    1
    74    81    80    1
    75    80    83    1
    76    25    26    2
    77   104   103    1
    78   104   105    2
    79    88    87    1
    80   103   102    1
    81   101   100    2
    82    27    26    1
    83    26    28    1
    84    83    84    1
    85    85    84    1
    86    85    86    1
    87    87    86    2
    88    87    89    1
    89   100    99    1
    90   102    99    1
    91    99    98    1
    92    98    92   am
    93    93    92    2
    94    92    91    1
    95    97    95   am
    96    95    96    2
    97    95    94    1
    98    91    94    1
    99    91    90    1
