@<TRIPOS>MOLECULE
tmp/5esvC04.pdb
 101 97 0 0 0
SMALL
GASTEIGER

@<TRIPOS>ATOM
      1  N         -7.6480   60.7900   32.4770 N.3    52  ASN52      -0.1225
      2  CA        -6.9350   59.7390   33.1840 C.3    52  ASN52       0.1785
      3  C         -7.2670   59.8030   34.6760 C.2    52  ASN52       0.2597
      4  O         -8.1420   60.5580   35.1100 O.2    52  ASN52      -0.2718
      5  CB        -5.4330   59.8570   32.9240 C.3    52  ASN52       0.1169
      6  CG        -4.8080   61.0280   33.6440 C.2    52  ASN52       0.2627
      7  OD1       -5.4830   62.0030   33.9770 O.2    52  ASN52      -0.2716
      8  ND2       -3.5090   60.9390   33.8910 N.am   52  ASN52      -0.0877
      9  N         -6.5440   59.0170   35.4810 N.am   53  TRP53      -0.1962
     10  CA        -6.9890   58.7350   36.8450 C.3    53  TRP53       0.1771
     11  C         -7.0640   59.9920   37.7060 C.2    53  TRP53       0.2619
     12  O         -7.9350   60.0870   38.5790 O.2    53  TRP53      -0.2715
     13  CB        -6.0700   57.6970   37.4930 C.3    53  TRP53       0.0590
     14  CG        -4.7030   58.1930   37.8540 C.ar   53  TRP53       0.0006
     15  CD1       -3.6150   58.2740   37.0340 C.ar   53  TRP53       0.0946
     16  CD2       -4.2700   58.6560   39.1400 C.ar   53  TRP53       0.0152
     17  NE1       -2.5350   58.7660   37.7260 N.ar   53  TRP53      -0.2442
     18  CE2       -2.9110   59.0080   39.0210 C.ar   53  TRP53       0.0810
     19  CE3       -4.9010   58.8100   40.3780 C.ar   53  TRP53       0.0012
     20  CZ2       -2.1730   59.5070   40.0920 C.ar   53  TRP53       0.0191
     21  CZ3       -4.1660   59.3040   41.4400 C.ar   53  TRP53       0.0001
     22  CH2       -2.8170   59.6460   41.2900 C.ar   53  TRP53       0.0015
     23  N         -6.1770   60.9640   37.4830 N.am   54  ASN54      -0.1972
     24  CA        -6.1260   62.1650   38.3090 C.3    54  ASN54       0.1688
     25  C         -6.5510   63.4310   37.5790 C.2    54  ASN54       0.2292
     26  O         -6.6850   64.4780   38.2220 O.2    54  ASN54      -0.2864
     27  CB        -4.7100   62.3640   38.8690 C.3    54  ASN54       0.1181
     28  CG        -3.6670   62.5100   37.7800 C.2    54  ASN54       0.2629
     29  OD1       -3.9940   62.6500   36.6020 O.2    54  ASN54      -0.2716
     30  ND2       -2.4010   62.4830   38.1720 N.am   54  ASN54      -0.0877
     31  N         -4.8250   64.8000   34.9160 N.3    56  GLY56      -0.1210
     32  CA        -3.6970   65.4780   34.3180 C.3    56  GLY56       0.1956
     33  C         -3.4860   65.1920   32.8530 C.2    56  GLY56       0.2611
     34  O         -2.4820   65.6290   32.2860 O.2    56  GLY56      -0.2717
     35  N         -4.4070   64.4640   32.2150 N.am   57  ASP57      -0.1973
     36  CA        -4.3440   64.1490   30.7910 C.3    57  ASP57       0.1709
     37  C         -5.7850   64.1490   30.2750 C.2    57  ASP57       0.2293
     38  O         -6.3960   63.1120   30.0170 O.2    57  ASP57      -0.2864
     39  CB        -3.6440   62.8120   30.5360 C.3    57  ASP57       0.1436
     40  CG        -3.6430   62.4130   29.0680 C.2    57  ASP57       0.3671
     41  OD1       -4.0910   63.2170   28.2240 O.co2  57  ASP57      -0.2456
     42  OD2       -3.1800   61.2920   28.7630 O.co2  57  ASP57      -0.2456
     43  N         -8.4670   65.3730   27.3760 N.3    59  ARG59      -0.1245
     44  CA        -8.5510   65.7260   25.9690 C.3    59  ARG59       0.1563
     45  C        -10.0150   65.7240   25.5640 C.2    59  ARG59       0.2260
     46  O        -10.8740   65.1940   26.2720 O.2    59  ARG59      -0.2867
     47  CB        -7.7470   64.7550   25.0960 C.3    59  ARG59       0.0307
     48  CG        -6.3590   64.4770   25.6370 C.3    59  ARG59       0.0489
     49  CD        -5.6140   63.4680   24.7990 C.3    59  ARG59       0.2205
     50  NE        -4.6630   62.7270   25.6190 N.pl3  59  ARG59      -0.0865
     51  CZ        -3.8280   61.8030   25.1570 C.cat  59  ARG59       0.5346
     52  NH1       -3.8140   61.5010   23.8660 N.pl3  59  ARG59       0.1354
     53  NH2       -3.0040   61.1830   25.9900 N.pl3  59  ARG59       0.1354
     54  N         -1.9120   52.0440   32.2550 N.3   103  THR103     -0.1203
     55  CA        -1.5100   52.9050   31.1510 C.3   103  THR103      0.1994
     56  C         -0.0740   52.5930   30.7570 C.2   103  THR103      0.2618
     57  O          0.7120   52.0690   31.5520 O.2   103  THR103     -0.2717
     58  CB        -1.6600   54.3880   31.5100 C.3   103  THR103      0.1784
     59  OG1       -1.3440   55.1910   30.3670 O.3   103  THR103     -0.2211
     60  CG2       -0.7450   54.7670   32.6630 C.3   103  THR103      0.0376
     61  N          0.2540   52.9380   29.5110 N.am  104  ILE104     -0.1965
     62  CA         1.5450   52.6430   28.9000 C.3   104  ILE104      0.1727
     63  C          2.0540   53.9050   28.2130 C.2   104  ILE104      0.2616
     64  O          1.2710   54.6510   27.6150 O.2   104  ILE104     -0.2715
     65  CB         1.4350   51.4860   27.8820 C.3   104  ILE104      0.0290
     66  CG1        0.8690   50.2340   28.5570 C.3   104  ILE104      0.0022
     67  CG2        2.7910   51.1890   27.2520 C.3   104  ILE104      0.0023
     68  CD1        0.4980   49.1260   27.5960 C.3   104  ILE104      0.0001
     69  N          3.3660   54.1360   28.2830 N.am  105  ASP105     -0.1971
     70  CA         3.9840   55.2820   27.6330 C.3   105  ASP105      0.1709
     71  C          4.7210   54.8290   26.3700 C.2   105  ASP105      0.2293
     72  O          4.6610   53.6610   25.9710 O.2   105  ASP105     -0.2864
     73  CB         4.9230   56.0050   28.6010 C.3   105  ASP105      0.1436
     74  CG         6.2740   55.3350   28.7040 C.2   105  ASP105      0.3671
     75  OD1        7.2830   56.0510   28.8820 O.co2 105  ASP105     -0.2456
     76  OD2        6.3230   54.0930   28.5910 O.co2 105  ASP105     -0.2456
     77  N          1.9800   50.8680   33.8730 N.3   111  TYR111     -0.1241
     78  CA         1.6890   51.5620   35.1280 C.3   111  TYR111      0.1605
     79  C          0.3310   51.0870   35.6350 C.2   111  TYR111      0.2264
     80  O         -0.7080   51.4930   35.1040 O.2   111  TYR111     -0.2867
     81  CB         1.6780   53.0770   34.9390 C.3   111  TYR111      0.0534
     82  CG         2.9410   53.6770   34.3650 C.ar  111  TYR111     -0.0201
     83  CD1        3.1040   53.8230   32.9940 C.ar  111  TYR111     -0.0009
     84  CD2        3.9560   54.1290   35.1960 C.ar  111  TYR111     -0.0009
     85  CE1        4.2510   54.3850   32.4650 C.ar  111  TYR111      0.0417
     86  CE2        5.1060   54.6920   34.6780 C.ar  111  TYR111      0.0417
     87  CZ         5.2480   54.8170   33.3130 C.ar  111  TYR111      0.1957
     88  OH         6.3890   55.3820   32.7950 O.3   111  TYR111     -0.2866
     89  N         -2.8160   53.5480   37.3340 N.3   114  SER114     -0.1217
     90  CA        -2.8020   54.8320   36.6470 C.3   114  SER114      0.1889
     91  C         -3.6630   54.7250   35.3910 C.2   114  SER114      0.2288
     92  O         -3.1770   54.7810   34.2600 O.2   114  SER114     -0.2866
     93  CB        -1.3580   55.2320   36.3220 C.3   114  SER114      0.2089
     94  OG        -0.5280   55.1050   37.4640 O.3   114  SER114     -0.2183
     95  N         -6.4390   55.0800   32.3170 N.3   116  THR116     -0.1218
     96  CA        -6.5940   56.0430   31.2360 C.3   116  THR116      0.1862
     97  C         -7.9260   55.7760   30.5410 C.2   116  THR116      0.2287
     98  O         -8.7680   55.0180   31.0330 O.2   116  THR116     -0.2866
     99  CB        -5.4150   55.9710   30.2560 C.3   116  THR116      0.1770
    100  OG1       -5.5710   56.9740   29.2450 O.3   116  THR116     -0.2211
    101  CG2       -5.3380   54.6010   29.5950 C.3   116  THR116      0.0375
@<TRIPOS>BOND
     1    52    51    1
     2    49    50    1
     3    49    48    1
     4    47    48    1
     5    47    44    1
     6    51    50    2
     7    51    53    1
     8    45    44    1
     9    45    46    2
    10    44    43    1
    11    72    71    2
    12    71    70    1
    13    67    65    1
    14    68    66    1
    15    64    63    2
    16    70    69    1
    17    70    73    1
    18    65    66    1
    19    65    62    1
    20    63    69   am
    21    63    62    1
    22    41    40   ar
    23    76    74   ar
    24    73    74    1
    25    74    75   ar
    26    42    40   ar
    27    62    61    1
    28    40    39    1
    29   100    99    1
    30    61    56   am
    31   101    99    1
    32    38    37    2
    33    99    96    1
    34    37    36    1
    35    59    58    1
    36    39    36    1
    37    97    98    2
    38    97    96    1
    39    56    55    1
    40    56    57    2
    41    36    35    1
    42    55    58    1
    43    55    54    1
    44    96    95    1
    45    58    60    1
    46    35    33   am
    47    34    33    2
    48    85    83   ar
    49    85    87   ar
    50     1     2    1
    51    88    87    1
    52    33    32    1
    53     5     2    1
    54     5     6    1
    55    83    82   ar
    56     2     3    1
    57    87    86   ar
    58     6     8   am
    59     6     7    2
    60    77    78    1
    61    92    91    2
    62    32    31    1
    63    82    81    1
    64    82    84   ar
    65     3     4    2
    66     3     9   am
    67    86    84   ar
    68    81    78    1
    69    80    79    2
    70    78    79    1
    71    91    90    1
    72     9    10    1
    73    93    90    1
    74    93    94    1
    75    29    28    2
    76    90    89    1
    77    10    13    1
    78    10    11    1
    79    15    17   ar
    80    15    14   ar
    81    23    11   am
    82    23    24    1
    83    13    14    1
    84    25    26    2
    85    25    24    1
    86    11    12    2
    87    17    18   ar
    88    28    30   am
    89    28    27    1
    90    14    16   ar
    91    24    27    1
    92    18    16   ar
    93    18    20   ar
    94    16    19   ar
    95    20    22   ar
    96    19    21   ar
    97    22    21   ar
