@<TRIPOS>MOLECULE
tmp/5esxA00.pdb
 137 134 0 0 0
SMALL
GASTEIGER

@<TRIPOS>ATOM
      1  N         29.2540   -0.6660  -13.9200 N.3    77  ARG77      -0.1245
      2  CA        30.3860   -1.0850  -14.7320 C.3    77  ARG77       0.1563
      3  C         30.3080   -0.5110  -16.1510 C.2    77  ARG77       0.2260
      4  O         29.2530   -0.5530  -16.7900 O.2    77  ARG77      -0.2867
      5  CB        30.4430   -2.6070  -14.7770 C.3    77  ARG77       0.0307
      6  CG        31.3500   -3.1300  -15.8650 C.3    77  ARG77       0.0489
      7  CD        31.6650   -4.5900  -15.6820 C.3    77  ARG77       0.2205
      8  NE        30.7220   -5.5110  -16.3220 N.pl3  77  ARG77      -0.0865
      9  CZ        30.6060   -5.7130  -17.6340 C.cat  77  ARG77       0.5346
     10  NH1       31.3300   -5.0240  -18.5090 N.pl3  77  ARG77       0.1354
     11  NH2       29.7380   -6.6030  -18.0790 N.pl3  77  ARG77       0.1354
     12  N         20.6110   -9.9040   -7.0130 N.3   106  ASP106     -0.1225
     13  CA        20.5600   -9.0980   -8.2320 C.3   106  ASP106      0.1805
     14  C         19.5410   -9.6210   -9.2320 C.2   106  ASP106      0.2598
     15  O         19.0660  -10.7510   -9.1320 O.2   106  ASP106     -0.2718
     16  CB        21.9370   -9.0630   -8.8940 C.3   106  ASP106      0.1424
     17  CG        22.2150   -7.7440   -9.6420 C.2   106  ASP106      0.3668
     18  OD1       21.3600   -6.8100   -9.6600 O.co2 106  ASP106     -0.2456
     19  OD2       23.3250   -7.6410  -10.2140 O.co2 106  ASP106     -0.2456
     20  N         19.2220   -8.7940  -10.2190 N.am  107  ASP107     -0.1960
     21  CA        18.3020   -9.1800  -11.2820 C.3   107  ASP107      0.1840
     22  C         18.8510  -10.2390  -12.2590 C.2   107  ASP107      0.2622
     23  O         18.1820  -11.2440  -12.5060 O.2   107  ASP107     -0.2715
     24  CB        17.7410   -7.9390  -12.0220 C.3   107  ASP107      0.1450
     25  CG        18.8280   -7.0370  -12.6470 C.2   107  ASP107      0.3671
     26  OD1       20.0420   -7.2870  -12.4590 O.co2 107  ASP107     -0.2456
     27  OD2       18.4420   -6.0620  -13.3480 O.co2 107  ASP107     -0.2456
     28  N         20.0400  -10.0030  -12.8120 N.am  108  ILE108     -0.1963
     29  CA        20.5710  -10.8090  -13.9180 C.3   108  ILE108      0.1727
     30  C         22.0660  -11.0680  -13.8040 C.2   108  ILE108      0.2616
     31  O         22.8470  -10.1320  -13.5720 O.2   108  ILE108     -0.2715
     32  CB        20.3780  -10.1270  -15.3010 C.3   108  ILE108      0.0290
     33  CG1       18.9470   -9.6540  -15.5270 C.3   108  ILE108      0.0022
     34  CG2       20.7650  -11.0580  -16.4490 C.3   108  ILE108      0.0023
     35  CD1       18.8040   -8.6890  -16.6980 C.3   108  ILE108      0.0001
     36  N         22.4530  -12.3350  -14.0000 N.am  109  LEU109     -0.1963
     37  CA        23.8600  -12.7180  -14.2270 C.3   109  LEU109      0.1728
     38  C         24.1680  -12.8180  -15.7170 C.2   109  LEU109      0.2616
     39  O         23.6930  -13.7310  -16.3980 O.2   109  LEU109     -0.2715
     40  CB        24.1970  -14.0390  -13.5250 C.3   109  LEU109      0.0311
     41  CG        25.6570  -14.5140  -13.4760 C.3   109  LEU109      0.0022
     42  CD1       26.5780  -13.4850  -12.8400 C.3   109  LEU109      0.0001
     43  CD2       25.7520  -15.8300  -12.7220 C.3   109  LEU109      0.0001
     44  N         24.9540  -11.8670  -16.2160 N.am  110  ASP110     -0.1957
     45  CA        25.3110  -11.8320  -17.6280 C.3   110  ASP110      0.1840
     46  C         26.7600  -12.1880  -18.0030 C.2   110  ASP110      0.2623
     47  O         27.0580  -13.3620  -18.3000 O.2   110  ASP110     -0.2715
     48  CB        24.9600  -10.4750  -18.2380 C.3   110  ASP110      0.1450
     49  CG        24.9770  -10.4890  -19.7520 C.2   110  ASP110      0.3671
     50  OD1       25.2970  -11.5320  -20.3550 O.co2 110  ASP110     -0.2456
     51  OD2       24.6720   -9.4490  -20.3580 O.co2 110  ASP110     -0.2456
     52  N         27.6420  -11.1830  -17.9950 N.am  111  GLY111     -0.1940
     53  CA        29.0860  -11.3720  -18.0510 C.3   111  GLY111      0.2014
     54  C         29.5930  -11.8550  -16.7100 C.2   111  GLY111      0.2639
     55  O         30.4270  -12.7510  -16.6580 O.2   111  GLY111     -0.2714
     56  N         29.0640  -11.2760  -15.6310 N.am  112  GLY112     -0.1939
     57  CA        29.3870  -11.6780  -14.2610 C.3   112  GLY112      0.2014
     58  C         30.3460  -10.7590  -13.5280 C.2   112  GLY112      0.2639
     59  O         30.6570  -11.0120  -12.3540 O.2   112  GLY112     -0.2714
     60  N         30.8190   -9.7080  -14.2140 N.am  113  ILE113     -0.1963
     61  CA        31.8950   -8.8400  -13.7130 C.3   113  ILE113      0.1727
     62  C         31.4350   -7.9040  -12.5920 C.2   113  ILE113      0.2617
     63  O         32.1520   -7.7160  -11.5940 O.2   113  ILE113     -0.2715
     64  CB        32.5840   -8.0440  -14.8510 C.3   113  ILE113      0.0290
     65  CG1       33.3680   -8.9830  -15.7540 C.3   113  ILE113      0.0022
     66  CG2       33.5590   -6.9990  -14.3080 C.3   113  ILE113      0.0023
     67  CD1       33.5430   -8.4270  -17.1530 C.3   113  ILE113      0.0001
     68  N         30.2530   -7.3180  -12.7620 N.am  114  THR114     -0.1937
     69  CA        29.6830   -6.4360  -11.7590 C.3   114  THR114      0.2028
     70  C         29.5500   -7.1540  -10.4140 C.2   114  THR114      0.2642
     71  O         29.9690   -6.6310   -9.3720 O.2   114  THR114     -0.2714
     72  CB        28.3150   -5.9040  -12.2100 C.3   114  THR114      0.1808
     73  OG1       28.3810   -5.5670  -13.6030 O.3   114  THR114     -0.2208
     74  CG2       27.9350   -4.6710  -11.4200 C.3   114  THR114      0.0379
     75  N         28.9860   -8.3580  -10.4620 N.am  115  LEU115     -0.1977
     76  CA        28.6910   -9.1270   -9.2790 C.3   115  LEU115      0.1596
     77  C         29.9400   -9.7040   -8.6260 C.2   115  LEU115      0.2287
     78  O         30.0240   -9.7680   -7.4000 O.2   115  LEU115     -0.2864
     79  CB        27.7230  -10.2380   -9.6320 C.3   115  LEU115      0.0297
     80  CG        26.7530  -10.6270   -8.5340 C.3   115  LEU115      0.0022
     81  CD1       25.8740   -9.4340   -8.1970 C.3   115  LEU115      0.0001
     82  CD2       25.9400  -11.8310   -8.9720 C.3   115  LEU115      0.0001
     83  N         21.7850  -15.6890  -17.5600 N.3   138  LYS138     -0.1245
     84  CA        22.1570  -15.8830  -18.9450 C.3   138  LYS138      0.1561
     85  C         23.3690  -16.8110  -18.9530 C.2   138  LYS138      0.2260
     86  O         24.5270  -16.3680  -18.9780 O.2   138  LYS138     -0.2867
     87  CB        22.4430  -14.5440  -19.6040 C.3   138  LYS138      0.0271
     88  CG        21.1880  -13.8490  -20.0760 C.3   138  LYS138      0.0035
     89  CD        21.4560  -12.3650  -20.2310 C.3   138  LYS138      0.0206
     90  CE        20.2760  -11.6300  -20.8550 C.3   138  LYS138      0.1093
     91  NZ        20.7960  -10.5260  -21.7040 N.3   138  LYS138     -0.1314
     92  N         18.5990  -12.8440  -24.5860 N.3   160  HIS160     -0.1226
     93  CA        17.6140  -11.9690  -25.1770 C.3   160  HIS160      0.1752
     94  C         17.8440  -10.6260  -24.5580 C.2   160  HIS160      0.2596
     95  O         18.5040  -10.5400  -23.5340 O.2   160  HIS160     -0.2718
     96  CB        16.2260  -12.4450  -24.8010 C.3   160  HIS160      0.0759
     97  CG        15.7970  -13.6800  -25.5250 C.ar  160  HIS160      0.0818
     98  ND1       15.6440  -14.9000  -24.8980 N.ar  160  HIS160     -0.2268
     99  CD2       15.4760  -13.8810  -26.8250 C.ar  160  HIS160      0.1154
    100  CE1       15.2490  -15.8000  -25.7820 C.ar  160  HIS160      0.1986
    101  NE2       15.1390  -15.2080  -26.9570 N.ar  160  HIS160     -0.2212
    102  N         17.3280   -9.5720  -25.1750 N.am  161  TYR161     -0.1962
    103  CA        17.2290   -8.2960  -24.4840 C.3   161  TYR161      0.1771
    104  C         15.9260   -8.4460  -23.7190 C.2   161  TYR161      0.2619
    105  O         14.8750   -8.5810  -24.3360 O.2   161  TYR161     -0.2715
    106  CB        17.1730   -7.1160  -25.4630 C.3   161  TYR161      0.0574
    107  CG        17.3860   -5.7430  -24.8340 C.ar  161  TYR161     -0.0198
    108  CD1       17.3210   -5.5610  -23.4370 C.ar  161  TYR161     -0.0009
    109  CD2       17.6380   -4.6120  -25.6380 C.ar  161  TYR161     -0.0009
    110  CE1       17.5120   -4.3170  -22.8580 C.ar  161  TYR161      0.0417
    111  CE2       17.8280   -3.3520  -25.0670 C.ar  161  TYR161      0.0417
    112  CZ        17.7610   -3.2150  -23.6780 C.ar  161  TYR161      0.1957
    113  OH        17.9400   -1.9900  -23.0770 O.3   161  TYR161     -0.2866
    114  N         16.0000   -8.4860  -22.3900 N.am  162  ILE162     -0.1977
    115  CA        14.8120   -8.7090  -21.5640 C.3   162  ILE162      0.1596
    116  C         14.5150   -7.5550  -20.6210 C.2   162  ILE162      0.2287
    117  O         15.4040   -6.7570  -20.2840 O.2   162  ILE162     -0.2864
    118  CB        14.8410  -10.0460  -20.7680 C.3   162  ILE162      0.0276
    119  CG1       15.9030  -10.0170  -19.6610 C.3   162  ILE162      0.0022
    120  CG2       15.0100  -11.2330  -21.7000 C.3   162  ILE162      0.0022
    121  CD1       16.0030  -11.2990  -18.8530 C.3   162  ILE162      0.0001
    122  N         13.8400   -5.5460  -14.1240 N.3   167  MET167     -0.1230
    123  CA        14.7730   -5.3770  -15.2250 C.3   167  MET167      0.1702
    124  C         14.3060   -4.2610  -16.1410 C.2   167  MET167      0.2592
    125  O         13.1190   -4.1860  -16.5040 O.2   167  MET167     -0.2718
    126  CB        14.9970   -6.6990  -15.9330 C.3   167  MET167      0.0401
    127  CG        15.4620   -7.7350  -14.9170 C.3   167  MET167      0.0596
    128  SD        15.7270   -9.3510  -15.6380 S.3   167  MET167     -0.1393
    129  CE        14.0600   -9.9780  -15.7180 C.3   167  MET167      0.0692
    130  N         15.2340   -3.3700  -16.4690 N.am  168  ASP168     -0.1974
    131  CA        14.8620   -2.1370  -17.1670 C.3   168  ASP168      0.1709
    132  C         15.0050   -2.2290  -18.6700 C.2   168  ASP168      0.2293
    133  O         15.7370   -3.0590  -19.1930 O.2   168  ASP168     -0.2864
    134  CB        15.6170   -0.9130  -16.6070 C.3   168  ASP168      0.1436
    135  CG        17.0280   -0.7770  -17.1590 C.2   168  ASP168      0.3671
    136  OD1       17.7910   -1.7530  -17.1280 O.co2 168  ASP168     -0.2456
    137  OD2       17.3890    0.3160  -17.6310 O.co2 168  ASP168     -0.2456
@<TRIPOS>BOND
     1   101    99   ar
     2   101   100   ar
     3    99    97   ar
     4   100    98   ar
     5   109   111   ar
     6   109   107   ar
     7    97    98   ar
     8    97    96    1
     9   106   107    1
    10   106   103    1
    11    93    96    1
    12    93    92    1
    13    93    94    1
    14   102    94   am
    15   102   103    1
    16   111   112   ar
    17   107   108   ar
    18    94    95    2
    19   103   104    1
    20   105   104    2
    21   104   114   am
    22   112   113    1
    23   112   110   ar
    24   108   110   ar
    25   114   115    1
    26    91    90    1
    27   120   118    1
    28   115   118    1
    29   115   116    1
    30    90    89    1
    31   118   119    1
    32   116   117    2
    33    51    49   ar
    34    50    49   ar
    35    89    88    1
    36    88    87    1
    37    49    48    1
    38   119   121    1
    39    87    84    1
    40   133   132    2
    41    86    85    2
    42    85    84    1
    43    84    83    1
    44   132   131    1
    45    10     9    1
    46    47    46    2
    47    48    45    1
    48    11     9    1
    49    53    52    1
    50    53    54    1
    51    46    52   am
    52    46    45    1
    53     9     8    2
    54   137   135   ar
    55    45    44    1
    56   131   134    1
    57   131   130    1
    58   135   136   ar
    59   135   134    1
    60    67    65    1
    61     4     3    2
    62    54    55    2
    63    54    56   am
    64    35    33    1
    65   125   124    2
    66   130   124   am
    67    34    32    1
    68    39    38    2
    69     8     7    1
    70    44    38   am
    71     3     2    1
    72   124   123    1
    73   126   123    1
    74   126   127    1
    75     6     7    1
    76     6     5    1
    77    65    64    1
    78   129   128    1
    79    38    37    1
    80   128   127    1
    81    56    57    1
    82    33    32    1
    83    32    29    1
    84   123   122    1
    85    64    66    1
    86    64    61    1
    87     5     2    1
    88     2     1    1
    89    57    58    1
    90    37    36    1
    91    37    40    1
    92    60    61    1
    93    60    58   am
    94    36    30   am
    95    29    30    1
    96    29    28    1
    97    30    31    2
    98    61    62    1
    99    73    72    1
   100    58    59    2
   101    40    41    1
   102    41    42    1
   103    41    43    1
   104    27    25   ar
   105    28    22   am
   106    68    62   am
   107    68    69    1
   108    25    26   ar
   109    25    24    1
   110    62    63    2
   111    23    22    2
   112    22    21    1
   113    72    69    1
   114    72    74    1
   115    24    21    1
   116    69    70    1
   117    21    20    1
   118    75    70   am
   119    75    76    1
   120    70    71    2
   121    20    14   am
   122    19    17   ar
   123    18    17   ar
   124    17    16    1
   125    79    76    1
   126    79    80    1
   127    76    77    1
   128    14    15    2
   129    14    13    1
   130    82    80    1
   131    16    13    1
   132    77    78    2
   133    80    81    1
   134    13    12    1
