@<TRIPOS>MOLECULE
tmp/5et6D00.pdb
 127 118 0 0 0
SMALL
GASTEIGER

@<TRIPOS>ATOM
      1  N         56.9290   20.1510   24.5630 N.3     9  VAL9       -0.1245
      2  CA        57.3250   19.9990   23.1710 C.3     9  VAL9        0.1561
      3  C         56.3630   20.7190   22.2500 C.2     9  VAL9        0.2260
      4  O         56.7750   21.4060   21.3380 O.2     9  VAL9       -0.2867
      5  CB        57.3880   18.5020   22.7790 C.3     9  VAL9        0.0252
      6  CG1       57.5150   18.3160   21.2740 C.3     9  VAL9        0.0019
      7  CG2       58.6330   17.8250   23.4820 C.3     9  VAL9        0.0019
      8  N         57.1640   24.4510   22.6010 N.3    12  LYS12      -0.1231
      9  CA        58.4170   24.7520   21.9040 C.3    12  LYS12       0.1693
     10  C         58.1790   24.8370   20.3900 C.2    12  LYS12       0.2592
     11  O         58.7200   25.7080   19.7220 O.2    12  LYS12      -0.2718
     12  CB        59.4680   23.6650   22.2460 C.3    12  LYS12       0.0285
     13  CG        60.1010   23.8890   23.5990 C.3    12  LYS12       0.0035
     14  CD        61.1800   24.9500   23.4490 C.3    12  LYS12       0.0206
     15  CE        61.8610   25.2480   24.7590 C.3    12  LYS12       0.1093
     16  NZ        63.2090   25.8370   24.5250 N.3    12  LYS12      -0.1314
     17  N         57.3410   23.9450   19.8560 N.am   13  GLY13      -0.1957
     18  CA        57.0090   23.9650   18.4380 C.3    13  GLY13       0.1869
     19  C         56.2230   25.1980   18.0000 C.2    13  GLY13       0.2309
     20  O         56.4850   25.8040   16.9290 O.2    13  GLY13      -0.2863
     21  N         58.5810   28.1110   17.9360 N.3    16  ALA16      -0.1245
     22  CA        59.4890   28.0330   16.7920 C.3    16  ALA16       0.1562
     23  C         58.7420   28.3580   15.5200 C.2    16  ALA16       0.2260
     24  O         59.3100   28.3310   14.4300 O.2    16  ALA16      -0.2867
     25  CB        60.0860   26.6490   16.7010 C.3    16  ALA16       0.0290
     26  N         56.8000   26.2790   14.0560 N.3    18  GLY18      -0.1210
     27  CA        56.8110   25.1060   13.1890 C.3    18  GLY18       0.1956
     28  C         55.4330   24.8130   12.5730 C.2    18  GLY18       0.2613
     29  O         54.3870   25.2900   13.0430 O.2    18  GLY18      -0.2717
     30  N         55.4260   24.0280   11.5040 N.am   19  THR19      -0.1938
     31  CA        54.1890   23.5340   10.9210 C.3    19  THR19       0.2028
     32  C         53.6290   22.3120   11.6800 C.2    19  THR19       0.2643
     33  O         52.6280   21.7350   11.2570 O.2    19  THR19      -0.2714
     34  CB        54.4020   23.0990    9.4980 C.3    19  THR19       0.1808
     35  OG1       55.3470   22.0280    9.5090 O.3    19  THR19      -0.2208
     36  CG2       54.9340   24.2820    8.6410 C.3    19  THR19       0.0379
     37  N         54.3190   21.8840   12.7330 N.am   20  GLY20      -0.1939
     38  CA        53.8280   20.7340   13.4960 C.3    20  GLY20       0.2014
     39  C         54.4820   19.4300   13.0650 C.2    20  GLY20       0.2639
     40  O         54.2250   18.3970   13.6710 O.2    20  GLY20      -0.2714
     41  N         55.3240   19.4610   12.0330 N.am   21  GLU21      -0.1963
     42  CA        55.8790   18.2280   11.4840 C.3    21  GLU21       0.1733
     43  C         56.9170   17.6550   12.4380 C.2    21  GLU21       0.2616
     44  O         56.8730   16.4620   12.7590 O.2    21  GLU21      -0.2715
     45  CB        56.5110   18.4450   10.0990 C.3    21  GLU21       0.0429
     46  CG        56.9470   17.1590    9.4170 C.3    21  GLU21       0.1163
     47  CD        57.4110   17.3840    7.9770 C.2    21  GLU21       0.3649
     48  OE1       57.3460   18.5440    7.5190 O.co2  21  GLU21      -0.2457
     49  OE2       57.8420   16.4160    7.3030 O.co2  21  GLU21      -0.2457
     50  N         57.8070   18.4950   12.9470 N.am   22  LEU22      -0.1963
     51  CA        58.8050   18.0230   13.9120 C.3    22  LEU22       0.1728
     52  C         58.1290   17.6250   15.2400 C.2    22  LEU22       0.2616
     53  O         58.5160   16.6490   15.8720 O.2    22  LEU22      -0.2715
     54  CB        59.8840   19.0670   14.1800 C.3    22  LEU22       0.0311
     55  CG        61.0350   18.6580   15.1220 C.3    22  LEU22       0.0022
     56  CD1       61.7970   17.3670   14.7060 C.3    22  LEU22       0.0001
     57  CD2       61.9970   19.8480   15.3170 C.3    22  LEU22       0.0001
     58  N         57.1490   18.4100   15.6680 N.am   23  THR23      -0.1951
     59  CA        56.3940   18.0580   16.8600 C.3    23  THR23       0.1897
     60  C         55.7760   16.6650   16.7230 C.2    23  THR23       0.2313
     61  O         55.8890   15.8410   17.6550 O.2    23  THR23      -0.2863
     62  CB        55.3220   19.1150   17.1190 C.3    23  THR23       0.1794
     63  OG1       55.9720   20.2970   17.5750 O.3    23  THR23      -0.2208
     64  CG2       54.3370   18.6520   18.2060 C.3    23  THR23       0.0378
     65  N         58.6320   14.0410   17.1150 N.3    26  LEU26      -0.1245
     66  CA        59.0010   13.8600   18.5050 C.3    26  LEU26       0.1561
     67  C         57.9060   13.1190   19.2800 C.2    26  LEU26       0.2260
     68  O         58.2220   12.2090   20.0640 O.2    26  LEU26      -0.2867
     69  CB        59.3160   15.1960   19.1520 C.3    26  LEU26       0.0270
     70  CG        60.5750   15.8600   18.5990 C.3    26  LEU26       0.0019
     71  CD1       60.6100   17.2990   19.0760 C.3    26  LEU26       0.0001
     72  CD2       61.8910   15.1200   18.9730 C.3    26  LEU26       0.0001
     73  N         59.9580   15.5180    5.6930 N.3    97  LYS97      -0.1231
     74  CA        61.2700   16.0760    5.4140 C.3    97  LYS97       0.1693
     75  C         62.4080   15.6150    6.3270 C.2    97  LYS97       0.2592
     76  O         63.5670   15.9340    6.0490 O.2    97  LYS97      -0.2718
     77  CB        61.2100   17.5960    5.4400 C.3    97  LYS97       0.0285
     78  CG        61.0910   18.3100    6.7720 C.3    97  LYS97       0.0035
     79  CD        60.8880   19.7800    6.3960 C.3    97  LYS97       0.0206
     80  CE        60.5180   20.6740    7.5520 C.3    97  LYS97       0.1093
     81  NZ        59.0830   20.4780    7.9670 N.3    97  LYS97      -0.1314
     82  N         62.1020   14.8690    7.3900 N.am   98  TYR98      -0.1976
     83  CA        63.1340   14.5710    8.3760 C.3    98  TYR98       0.1639
     84  C         63.7810   13.1760    8.2650 C.2    98  TYR98       0.2290
     85  O         63.1970   12.1990    7.7670 O.2    98  TYR98      -0.2864
     86  CB        62.5730   14.7660    9.8020 C.3    98  TYR98       0.0560
     87  CG        62.2950   16.2130   10.1190 C.ar   98  TYR98      -0.0198
     88  CD1       63.3400   17.0930   10.3780 C.ar   98  TYR98      -0.0009
     89  CD2       60.9850   16.7250   10.1150 C.ar   98  TYR98      -0.0009
     90  CE1       63.1030   18.4410   10.6330 C.ar   98  TYR98       0.0417
     91  CE2       60.7380   18.0580   10.4030 C.ar   98  TYR98       0.0417
     92  CZ        61.8010   18.9300   10.6360 C.ar   98  TYR98       0.1957
     93  OH        61.5990   20.2600   10.9120 O.3    98  TYR98      -0.2866
     94  N         67.2600   17.3890    9.0500 N.3   125  ARG125     -0.1245
     95  CA        66.3690   17.8050    7.9490 C.3   125  ARG125      0.1563
     96  C         67.0180   17.3480    6.6270 C.2   125  ARG125      0.2260
     97  O         68.2620   17.5470    6.4620 O.2   125  ARG125     -0.2867
     98  CB        66.1750   19.3400    8.0270 C.3   125  ARG125      0.0307
     99  CG        65.0380   20.0080    7.2800 C.3   125  ARG125      0.0489
    100  CD        64.8160   21.4230    7.8880 C.3   125  ARG125      0.2205
    101  NE        63.7630   22.2170    7.2280 N.pl3 125  ARG125     -0.0865
    102  CZ        63.1730   23.2950    7.7610 C.cat 125  ARG125      0.5346
    103  NH1       62.2220   23.9460    7.0900 N.pl3 125  ARG125      0.1354
    104  NH2       63.5170   23.7130    8.9780 N.pl3 125  ARG125      0.1354
    105  N         69.0510   18.6910   14.1650 N.3   141  VAL141     -0.1245
    106  CA        67.8790   19.4970   14.4950 C.3   141  VAL141      0.1561
    107  C         67.3840   19.2320   15.9300 C.2   141  VAL141      0.2260
    108  O         66.9730   20.1440   16.6720 O.2   141  VAL141     -0.2867
    109  CB        66.7380   19.1690   13.5100 C.3   141  VAL141      0.0252
    110  CG1       65.4530   19.7770   13.9690 C.3   141  VAL141      0.0019
    111  CG2       67.1440   19.6430   12.0930 C.3   141  VAL141      0.0019
    112  N         66.6590   20.4840   21.4850 N.3   158  THR158     -0.1218
    113  CA        66.3030   20.9610   20.1660 C.3   158  THR158      0.1862
    114  C         67.1370   22.1940   19.8020 C.2   158  THR158      0.2287
    115  O         66.7190   22.9900   18.9540 O.2   158  THR158     -0.2866
    116  CB        64.8100   21.3250   20.0620 C.3   158  THR158      0.1770
    117  OG1       64.4720   22.3060   21.0590 O.3   158  THR158     -0.2211
    118  CG2       63.9060   20.0670   20.3290 C.3   158  THR158      0.0375
    119  N         68.3960   24.4390   22.3000 N.3   160  GLN160     -0.1245
    120  CA        68.4180   25.4440   23.3540 C.3   160  GLN160      0.1566
    121  C         68.7360   24.8190   24.6960 C.2   160  GLN160      0.2260
    122  O         68.0890   25.1360   25.7060 O.2   160  GLN160     -0.2867
    123  CB        67.0790   26.1970   23.4510 C.3   160  GLN160      0.0367
    124  CG        66.5890   26.8230   22.1660 C.3   160  GLN160      0.0905
    125  CD        66.0800   25.7910   21.1810 C.2   160  GLN160      0.2608
    126  OE1       65.2310   24.9260   21.5230 O.2   160  GLN160     -0.2717
    127  NE2       66.5940   25.8510   19.9560 N.am  160  GLN160     -0.0878
@<TRIPOS>BOND
     1    74    77    1
     2    74    73    1
     3    74    75    1
     4    77    78    1
     5    76    75    2
     6    75    82   am
     7    79    78    1
     8    79    80    1
     9    97    96    2
    10    96    95    1
    11   103   102    1
    12   101   102    2
    13   101   100    1
    14    99   100    1
    15    99    98    1
    16    49    47   ar
    17    82    83    1
    18    48    47   ar
    19    80    81    1
    20   102   104    1
    21    85    84    2
    22    95    98    1
    23    95    94    1
    24    47    46    1
    25    84    83    1
    26    83    86    1
    27    36    34    1
    28    46    45    1
    29    34    35    1
    30    34    31    1
    31    86    87    1
    32    45    42    1
    33    89    87   ar
    34    89    91   ar
    35    87    88   ar
    36    88    90   ar
    37    91    92   ar
    38    90    92   ar
    39    92    93    1
    40    31    30    1
    41    31    32    1
    42    33    32    2
    43    42    41    1
    44    42    43    1
    45    30    28   am
    46    32    37   am
    47    41    39   am
    48   111   109    1
    49    43    44    2
    50    43    50   am
    51    28    29    2
    52    28    27    1
    53    37    38    1
    54    50    51    1
    55    39    38    1
    56    39    40    2
    57    27    26    1
    58   109   110    1
    59   109   106    1
    60    51    54    1
    61    51    52    1
    62   105   106    1
    63    54    55    1
    64    24    23    2
    65   106   107    1
    66    56    55    1
    67    55    57    1
    68    52    58   am
    69    52    53    2
    70    23    22    1
    71    58    59    1
    72   107   108    2
    73    25    22    1
    74    60    59    1
    75    60    61    2
    76    22    21    1
    77    59    62    1
    78    20    19    2
    79    65    66    1
    80    62    63    1
    81    62    64    1
    82    19    18    1
    83    18    17    1
    84    66    69    1
    85    66    67    1
    86    70    72    1
    87    70    71    1
    88    70    69    1
    89   115   114    2
    90    67    68    2
    91    11    10    2
    92   114   113    1
    93    17    10   am
    94   127   125   am
    95   116   113    1
    96   116   118    1
    97   116   117    1
    98   113   112    1
    99    10     9    1
   100   125   126    2
   101   125   124    1
   102     6     5    1
   103     4     3    2
   104     9    12    1
   105     9     8    1
   106   124   123    1
   107    12    13    1
   108     3     2    1
   109   119   120    1
   110     5     2    1
   111     5     7    1
   112     2     1    1
   113   120   123    1
   114   120   121    1
   115    14    13    1
   116    14    15    1
   117    16    15    1
   118   121   122    2
