@<TRIPOS>MOLECULE
tmp/5etdA00.pdb
 115 111 0 0 0
SMALL
GASTEIGER

@<TRIPOS>ATOM
      1  N         15.2640  -12.6690    5.3690 N.3    25  ILE25      -0.1231
      2  CA        13.8150  -12.6050    5.2180 C.3    25  ILE25       0.1692
      3  C         13.1930  -13.9890    5.0960 C.2    25  ILE25       0.2592
      4  O         11.9860  -14.1330    5.3160 O.2    25  ILE25      -0.2718
      5  CB        13.3430  -11.6460    4.1070 C.3    25  ILE25       0.0266
      6  CG1       13.6910  -12.1900    2.7390 C.3    25  ILE25       0.0019
      7  CG2       13.9590  -10.2600    4.2770 C.3    25  ILE25       0.0020
      8  CD1       12.9930  -11.4420    1.6270 C.3    25  ILE25       0.0001
      9  N         13.9840  -15.0140    4.7600 N.am   26  PHE26      -0.1976
     10  CA        13.4910  -16.3790    4.6140 C.3    26  PHE26       0.1639
     11  C         13.9080  -17.2810    5.7650 C.2    26  PHE26       0.2290
     12  O         13.7140  -18.4970    5.6820 O.2    26  PHE26      -0.2864
     13  CB        13.9780  -16.9580    3.2860 C.3    26  PHE26       0.0560
     14  CG        13.6840  -16.0820    2.1090 C.ar   26  PHE26      -0.0200
     15  CD1       12.3860  -15.8830    1.6920 C.ar   26  PHE26      -0.0042
     16  CD2       14.7070  -15.4600    1.4200 C.ar   26  PHE26      -0.0042
     17  CE1       12.1120  -15.0800    0.6000 C.ar   26  PHE26      -0.0003
     18  CE2       14.4450  -14.6350    0.3380 C.ar   26  PHE26      -0.0003
     19  CZ        13.1410  -14.4550   -0.0780 C.ar   26  PHE26      -0.0000
     20  N         12.7750  -17.6300    8.8760 N.3    28  GLU28      -0.1245
     21  CA        11.7100  -18.1350    9.7260 C.3    28  GLU28       0.1567
     22  C         10.4020  -18.0040    8.9640 C.2    28  GLU28       0.2260
     23  O         10.3300  -17.2690    7.9710 O.2    28  GLU28      -0.2867
     24  CB        11.6560  -17.3220   11.0280 C.3    28  GLU28       0.0388
     25  CG        12.9070  -17.4770   11.8810 C.3    28  GLU28       0.1160
     26  CD        12.8530  -16.6780   13.1710 C.2    28  GLU28       0.3649
     27  OE1       12.0020  -15.7710   13.2820 O.co2  28  GLU28      -0.2457
     28  OE2       13.6670  -16.9610   14.0750 O.co2  28  GLU28      -0.2457
     29  N          7.0050  -16.8450    7.4110 N.3    30  VAL30      -0.1231
     30  CA         6.3130  -15.5720    7.2340 C.3    30  VAL30       0.1678
     31  C          5.3860  -15.3980    8.4320 C.2    30  VAL30       0.2434
     32  O          4.6280  -16.3220    8.7630 O.2    30  VAL30      -0.2733
     33  CB         5.5470  -15.5420    5.9010 C.3    30  VAL30       0.0265
     34  CG1        4.6840  -14.2950    5.7960 C.3    30  VAL30       0.0020
     35  CG2        6.5200  -15.6070    4.7260 C.3    30  VAL30       0.0020
     36  N          5.4460  -14.2660    9.1400 N.am   31  PRO31      -0.2729
     37  CA         4.6080  -14.0990   10.3380 C.3    31  PRO31       0.1401
     38  C          3.1370  -13.9230    9.9940 C.2    31  PRO31       0.2269
     39  O          2.7000  -12.8250    9.6310 O.2    31  PRO31      -0.2865
     40  CB         5.1940  -12.8480   11.0060 C.3    31  PRO31       0.0296
     41  CG         5.7700  -12.0630    9.8620 C.3    31  PRO31       0.0237
     42  CD         6.2840  -13.0830    8.8730 C.3    31  PRO31       0.0939
     43  N          0.9960  -11.0290   11.0340 N.3    34  GLU34      -0.1231
     44  CA         1.1430   -9.7720   10.3130 C.3    34  GLU34       0.1699
     45  C          0.4980   -9.7890    8.9330 C.2    34  GLU34       0.2592
     46  O          0.1780   -8.7180    8.4030 O.2    34  GLU34      -0.2718
     47  CB         2.6240   -9.4120   10.1660 C.3    34  GLU34       0.0402
     48  CG         3.3180   -9.0830   11.4750 C.3    34  GLU34       0.1161
     49  CD         4.7790   -8.7250   11.2820 C.2    34  GLU34       0.3649
     50  OE1        5.5870   -8.9980   12.1960 O.co2  34  GLU34      -0.2457
     51  OE2        5.1190   -8.1760   10.2110 O.co2  34  GLU34      -0.2457
     52  N          0.3050  -10.9630    8.3390 N.am   35  VAL35      -0.1980
     53  CA        -0.2850  -11.0540    7.0040 C.3    35  VAL35       0.1595
     54  C         -1.4200  -12.0700    7.0120 C.2    35  VAL35       0.2287
     55  O         -1.2520  -13.1950    6.5150 O.2    35  VAL35      -0.2864
     56  CB         0.7740  -11.3780    5.9380 C.3    35  VAL35       0.0276
     57  CG1        1.4340  -10.1030    5.4400 C.3    35  VAL35       0.0022
     58  CG2        1.8140  -12.3150    6.5060 C.3    35  VAL35       0.0022
     59  N         -2.1350  -14.0940    3.8720 N.3    38  TYR38      -0.1241
     60  CA        -1.0530  -14.8480    3.2440 C.3    38  TYR38       0.1605
     61  C         -1.5340  -16.2140    2.7740 C.2    38  TYR38       0.2264
     62  O         -1.2450  -16.6330    1.6470 O.2    38  TYR38      -0.2867
     63  CB         0.1170  -14.9920    4.2220 C.3    38  TYR38       0.0534
     64  CG         1.3710  -15.5530    3.5860 C.ar   38  TYR38      -0.0201
     65  CD1        2.1660  -14.7610    2.7620 C.ar   38  TYR38      -0.0009
     66  CD2        1.7690  -16.8680    3.8060 C.ar   38  TYR38      -0.0009
     67  CE1        3.3170  -15.2630    2.1710 C.ar   38  TYR38       0.0417
     68  CE2        2.9270  -17.3750    3.2190 C.ar   38  TYR38       0.0417
     69  CZ         3.6890  -16.5680    2.3980 C.ar   38  TYR38       0.1957
     70  OH         4.8330  -17.0580    1.8070 O.3    38  TYR38      -0.2866
     71  N         10.1280  -21.6490   -0.9870 N.3    73  ILE73      -0.1245
     72  CA        10.5350  -20.3750   -0.3980 C.3    73  ILE73       0.1561
     73  C         10.5300  -19.2880   -1.4610 C.2    73  ILE73       0.2260
     74  O          9.9510  -18.2070   -1.2800 O.2    73  ILE73      -0.2867
     75  CB        11.9210  -20.5040    0.2530 C.3    73  ILE73       0.0252
     76  CG1       11.8750  -21.5020    1.4140 C.3    73  ILE73       0.0019
     77  CG2       12.4010  -19.1450    0.7430 C.3    73  ILE73       0.0019
     78  CD1       13.2300  -21.7620    2.0380 C.3    73  ILE73       0.0001
     79  N          7.2920  -16.3180   -2.2820 N.3    77  CYS77      -0.1235
     80  CA         7.6440  -14.9120   -2.1380 C.3    77  CYS77       0.1677
     81  C          7.3700  -14.1340   -3.4200 C.2    77  CYS77       0.2270
     82  O          6.8430  -13.0120   -3.3680 O.2    77  CYS77      -0.2867
     83  CB         9.1080  -14.8130   -1.7190 C.3    77  CYS77       0.0956
     84  SG         9.6680  -13.1590   -1.3220 S.3    77  CYS77      -0.0801
     85  N          3.4310  -13.8170   -3.5520 N.3    80  TYR80      -0.1227
     86  CA         2.7380  -12.9610   -2.5960 C.3    80  TYR80       0.1736
     87  C          3.0810  -11.4820   -2.7660 C.2    80  TYR80       0.2595
     88  O          2.2050  -10.6230   -2.6180 O.2    80  TYR80      -0.2718
     89  CB         3.0240  -13.4130   -1.1620 C.3    80  TYR80       0.0548
     90  CG         2.2300  -12.5890   -0.1880 C.ar   80  TYR80      -0.0200
     91  CD1        0.8660  -12.7900   -0.0350 C.ar   80  TYR80      -0.0009
     92  CD2        2.8280  -11.5700    0.5320 C.ar   80  TYR80      -0.0009
     93  CE1        0.1210  -12.0060    0.8300 C.ar   80  TYR80       0.0417
     94  CE2        2.0930  -10.7820    1.3980 C.ar   80  TYR80       0.0417
     95  CZ         0.7420  -11.0070    1.5420 C.ar   80  TYR80       0.1957
     96  OH         0.0020  -10.2250    2.4060 O.3    80  TYR80      -0.2866
     97  N          4.3360  -11.1590   -3.0570 N.am   81  ASN81      -0.1974
     98  CA         4.8240   -9.7890   -3.0120 C.3    81  ASN81       0.1688
     99  C          4.8300   -9.1610   -4.3960 C.2    81  ASN81       0.2292
    100  O          5.0820   -9.8290   -5.4010 O.2    81  ASN81      -0.2864
    101  CB         6.2310   -9.7580   -2.4230 C.3    81  ASN81       0.1181
    102  CG         6.2530  -10.2310   -0.9900 C.2    81  ASN81       0.2629
    103  OD1        5.7930   -9.5270   -0.0910 O.2    81  ASN81      -0.2716
    104  ND2        6.7500  -11.4400   -0.7650 N.am   81  ASN81      -0.0877
    105  N         11.2380   -7.5100   -1.1410 N.3    87  PHE87      -0.1241
    106  CA        10.9930   -8.9280   -0.9040 C.3    87  PHE87       0.1605
    107  C         10.9500   -9.7030   -2.2160 C.2    87  PHE87       0.2264
    108  O         11.5520  -10.7740   -2.3400 O.2    87  PHE87      -0.2867
    109  CB         9.6750   -9.1250   -0.1540 C.3    87  PHE87       0.0534
    110  CG         9.7430   -8.8090    1.3130 C.ar   87  PHE87      -0.0203
    111  CD1       10.9300   -8.4250    1.9090 C.ar   87  PHE87      -0.0042
    112  CD2        8.6070   -8.9150    2.1000 C.ar   87  PHE87      -0.0042
    113  CE1       10.9790   -8.1390    3.2680 C.ar   87  PHE87      -0.0003
    114  CE2        8.6520   -8.6340    3.4590 C.ar   87  PHE87      -0.0003
    115  CZ         9.8370   -8.2510    4.0390 C.ar   87  PHE87      -0.0000
@<TRIPOS>BOND
     1   100    99    2
     2    99    98    1
     3    85    86    1
     4    81    82    2
     5    81    80    1
     6    97    98    1
     7    97    87   am
     8    98   101    1
     9    87    88    2
    10    87    86    1
    11    86    89    1
    12   101   102    1
    13   108   107    2
    14    79    80    1
    15   107   106    1
    16    80    83    1
    17    83    84    1
    18    73    74    2
    19    73    72    1
    20    89    90    1
    21   105   106    1
    22   102   104   am
    23   102   103    2
    24    71    72    1
    25   106   109    1
    26    72    75    1
    27    90    91   ar
    28    90    92   ar
    29   109   110    1
    30    19    18   ar
    31    19    17   ar
    32    91    93   ar
    33    75    77    1
    34    75    76    1
    35    18    16   ar
    36    92    94   ar
    37    17    15   ar
    38    93    95   ar
    39   110   111   ar
    40   110   112   ar
    41    94    95   ar
    42    76    78    1
    43    16    14   ar
    44    95    96    1
    45     8     6    1
    46    62    61    2
    47    15    14   ar
    48    70    69    1
    49   111   113   ar
    50   112   114   ar
    51    14    13    1
    52    67    69   ar
    53    67    65   ar
    54    69    68   ar
    55     6     5    1
    56    65    64   ar
    57    61    60    1
    58    68    66   ar
    59    60    59    1
    60    60    63    1
    61   113   115   ar
    62    13    10    1
    63   114   115   ar
    64    64    66   ar
    65    64    63    1
    66     5     7    1
    67     5     2    1
    68    10     9    1
    69    10    11    1
    70    35    33    1
    71     9     3   am
    72     3     2    1
    73     3     4    2
    74     2     1    1
    75    57    56    1
    76    12    11    2
    77    34    33    1
    78    33    30    1
    79    56    58    1
    80    56    53    1
    81    55    54    2
    82    53    54    1
    83    53    52    1
    84    30    29    1
    85    30    31    1
    86    23    22    2
    87    52    45   am
    88    46    45    2
    89    31    32    2
    90    31    36   am
    91    42    36    1
    92    42    41    1
    93    20    21    1
    94    45    44    1
    95    22    21    1
    96    36    37    1
    97    39    38    2
    98    21    24    1
    99    41    40    1
   100    38    37    1
   101    47    44    1
   102    47    48    1
   103    51    49   ar
   104    44    43    1
   105    37    40    1
   106    24    25    1
   107    49    48    1
   108    49    50   ar
   109    25    26    1
   110    26    27   ar
   111    26    28   ar
