@<TRIPOS>MOLECULE
tmp/5ethA00.pdb
 210 202 0 0 0
SMALL
GASTEIGER

@<TRIPOS>ATOM
      1  N        -34.6800   -4.2750    7.3960 N.3    18  GLN18      -0.1245
      2  CA       -35.6860   -3.8290    6.4090 C.3    18  GLN18       0.1566
      3  C        -35.1340   -2.8070    5.4380 C.2    18  GLN18       0.2260
      4  O        -35.1220   -3.0370    4.2410 O.2    18  GLN18      -0.2867
      5  CB       -36.9960   -3.3160    7.0600 C.3    18  GLN18       0.0367
      6  CG       -38.0750   -2.8410    6.0840 C.3    18  GLN18       0.0905
      7  CD       -39.4450   -2.6230    6.7360 C.2    18  GLN18       0.2608
      8  OE1      -39.5650   -2.5150    7.9510 O.2    18  GLN18      -0.2717
      9  NE2      -40.4830   -2.5510    5.9160 N.am   18  GLN18      -0.0878
     10  N        -55.1530    5.2980    6.7600 N.3    49  TRP49      -0.1241
     11  CA       -55.0810    4.1710    7.6810 C.3    49  TRP49       0.1605
     12  C        -54.6840    2.8590    6.9770 C.2    49  TRP49       0.2264
     13  O        -53.7720    2.1820    7.4440 O.2    49  TRP49      -0.2867
     14  CB       -56.2100    4.1400    8.7110 C.3    49  TRP49       0.0550
     15  CG       -55.9580    5.1340    9.8850 C.ar   49  TRP49       0.0003
     16  CD1      -56.3770    6.4260    9.9720 C.ar   49  TRP49       0.0946
     17  CD2      -55.2200    4.8830   11.0940 C.ar   49  TRP49       0.0152
     18  NE1      -55.9620    6.9970   11.1550 N.ar   49  TRP49      -0.2442
     19  CE2      -55.2620    6.0700   11.8680 C.ar   49  TRP49       0.0810
     20  CE3      -54.5410    3.7680   11.6040 C.ar   49  TRP49       0.0012
     21  CZ2      -54.6540    6.1790   13.1030 C.ar   49  TRP49       0.0191
     22  CZ3      -53.9390    3.8740   12.8390 C.ar   49  TRP49       0.0001
     23  CH2      -53.9950    5.0770   13.5770 C.ar   49  TRP49       0.0015
     24  N        -50.9720    3.0080    6.0340 N.3    52  CYS52      -0.1221
     25  CA       -50.1520    2.9290    7.2260 C.3    52  CYS52       0.1808
     26  C        -50.2310    1.5340    7.8790 C.2    52  CYS52       0.2601
     27  O        -49.2140    1.0150    8.3440 O.2    52  CYS52      -0.2717
     28  CB       -50.4220    4.1230    8.1200 C.3    52  CYS52       0.0970
     29  SG       -49.8780    5.5880    7.2050 S.3    52  CYS52      -0.0800
     30  N        -51.4320    0.9550    7.9020 N.am   53  ALA53      -0.1979
     31  CA       -51.6180   -0.3940    8.4200 C.3    53  ALA53       0.1597
     32  C        -50.7620   -1.4090    7.6350 C.2    53  ALA53       0.2287
     33  O        -50.1260   -2.2710    8.2210 O.2    53  ALA53      -0.2864
     34  CB       -53.0890   -0.7830    8.4120 C.3    53  ALA53       0.0319
     35  N        -47.9630   -0.7850    5.8700 N.3    55  HIS55      -0.1226
     36  CA       -46.5540   -0.5650    6.1920 C.3    55  HIS55       0.1752
     37  C        -46.1590   -1.0370    7.6030 C.2    55  HIS55       0.2595
     38  O        -45.0670   -1.5790    7.8100 O.2    55  HIS55      -0.2718
     39  CB       -46.1710    0.9040    5.9990 C.3    55  HIS55       0.0759
     40  CG       -46.2960    1.3910    4.5850 C.ar   55  HIS55       0.0818
     41  ND1      -46.0050    0.6030    3.4900 N.ar   55  HIS55      -0.2268
     42  CD2      -46.6510    2.6020    4.0920 C.ar   55  HIS55       0.1154
     43  CE1      -46.1890    1.3040    2.3860 C.ar   55  HIS55       0.1986
     44  NE2      -46.5790    2.5200    2.7240 N.ar   55  HIS55      -0.2212
     45  N        -47.0610   -0.8570    8.5590 N.am   56  LEU56      -0.1980
     46  CA       -46.8220   -1.3310    9.9190 C.3    56  LEU56       0.1596
     47  C        -46.8010   -2.8540   10.0270 C.2    56  LEU56       0.2287
     48  O        -45.9870   -3.4110   10.7410 O.2    56  LEU56      -0.2864
     49  CB       -47.9280   -0.7930   10.8360 C.3    56  LEU56       0.0297
     50  CG       -48.0400   -1.2670   12.2910 C.3    56  LEU56       0.0022
     51  CD1      -46.7220   -1.1390   13.0130 C.3    56  LEU56       0.0001
     52  CD2      -49.0700   -0.4530   13.0340 C.3    56  LEU56       0.0001
     53  N        -43.5990   -4.0580    8.6420 N.3    59  ALA59      -0.1245
     54  CA       -42.5140   -3.8030    9.5790 C.3    59  ALA59       0.1562
     55  C        -42.4980   -4.8130   10.7410 C.2    59  ALA59       0.2260
     56  O        -41.4420   -5.3010   11.1460 O.2    59  ALA59      -0.2867
     57  CB       -42.5730   -2.3820   10.1030 C.3    59  ALA59       0.0290
     58  N        -44.4350   -4.1290   18.0590 N.3    90  MET90      -0.1245
     59  CA       -44.7330   -2.7310   17.6950 C.3    90  MET90       0.1570
     60  C        -43.8260   -1.7170   18.4150 C.2    90  MET90       0.2261
     61  O        -43.4240   -0.7060   17.8390 O.2    90  MET90      -0.2867
     62  CB       -46.1580   -2.3490   18.0700 C.3    90  MET90       0.0387
     63  CG       -47.2230   -3.1670   17.3860 C.3    90  MET90       0.0595
     64  SD       -48.5970   -2.1090   16.9470 S.3    90  MET90      -0.1393
     65  CE       -49.8450   -3.3610   16.6870 C.3    90  MET90       0.0692
     66  N        -40.6960   -1.7220   16.4280 N.3    93  VAL93      -0.1231
     67  CA       -40.9160   -0.9330   15.2130 C.3    93  VAL93       0.1692
     68  C        -40.7470    0.5770   15.4980 C.2    93  VAL93       0.2591
     69  O        -40.1110    1.2960   14.7130 O.2    93  VAL93      -0.2718
     70  CB       -42.2620   -1.2710   14.5390 C.3    93  VAL93       0.0266
     71  CG1      -42.5490   -0.2950   13.4050 C.3    93  VAL93       0.0020
     72  CG2      -42.2550   -2.7090   13.9990 C.3    93  VAL93       0.0020
     73  N        -41.2930    1.0360   16.6200 N.am   94  LEU94      -0.1980
     74  CA       -41.1780    2.4470   16.9900 C.3    94  LEU94       0.1596
     75  C        -39.7410    2.8650   17.2890 C.2    94  LEU94       0.2287
     76  O        -39.3180    3.9590   16.9370 O.2    94  LEU94      -0.2864
     77  CB       -42.0560    2.6990   18.1810 C.3    94  LEU94       0.0297
     78  CG       -42.1140    4.1510   18.5800 C.3    94  LEU94       0.0022
     79  CD1      -42.5720    5.0650   17.4460 C.3    94  LEU94       0.0001
     80  CD2      -43.0260    4.2400   19.7800 C.3    94  LEU94       0.0001
     81  N        -37.7740    2.9830   13.9650 N.3    97  MET97      -0.1245
     82  CA       -38.1440    4.1860   13.2200 C.3    97  MET97       0.1570
     83  C        -37.1510    5.3590   13.3450 C.2    97  MET97       0.2261
     84  O        -37.0360    6.1860   12.4440 O.2    97  MET97      -0.2867
     85  CB       -39.4990    4.6810   13.7680 C.3    97  MET97       0.0387
     86  CG       -40.4820    5.2500   12.7610 C.3    97  MET97       0.0595
     87  SD       -42.1530    4.9720   13.3860 S.3    97  MET97      -0.1393
     88  CE       -42.2260    3.1810   13.2680 C.3    97  MET97       0.0692
     89  N        -39.2060   12.3250    8.2020 N.3   108  VAL108     -0.1231
     90  CA       -39.1560   10.8710    8.3270 C.3   108  VAL108      0.1692
     91  C        -39.2350   10.2540    6.9400 C.2   108  VAL108      0.2592
     92  O        -39.9460   10.7670    6.0780 O.2   108  VAL108     -0.2718
     93  CB       -40.2030   10.4260    9.3570 C.3   108  VAL108      0.0266
     94  CG1      -41.6030   10.4250    8.7470 C.3   108  VAL108      0.0020
     95  CG2      -39.7970    9.1030    9.9800 C.3   108  VAL108      0.0020
     96  N        -38.4860    9.1660    6.6960 N.am  109  PHE109     -0.1962
     97  CA       -38.5650    8.4200    5.4350 C.3   109  PHE109      0.1771
     98  C        -39.8950    7.6760    5.3120 C.2   109  PHE109      0.2619
     99  O        -40.1930    6.7800    6.1020 O.2   109  PHE109     -0.2715
    100  CB       -37.4010    7.4160    5.3610 C.3   109  PHE109      0.0574
    101  CG       -37.2600    6.7080    4.0220 C.ar  109  PHE109     -0.0200
    102  CD1      -36.6330    7.3280    2.9440 C.ar  109  PHE109     -0.0042
    103  CD2      -37.7280    5.4010    3.8500 C.ar  109  PHE109     -0.0042
    104  CE1      -36.4900    6.6740    1.7270 C.ar  109  PHE109     -0.0003
    105  CE2      -37.5890    4.7470    2.6300 C.ar  109  PHE109     -0.0003
    106  CZ       -36.9670    5.3840    1.5690 C.ar  109  PHE109     -0.0000
    107  N        -40.6950    8.0530    4.3170 N.am  110  PHE110     -0.1974
    108  CA       -42.0120    7.4580    4.1000 C.3   110  PHE110      0.1639
    109  C        -42.2590    7.3080    2.6070 C.2   110  PHE110      0.2290
    110  O        -42.2360    8.2900    1.8830 O.2   110  PHE110     -0.2864
    111  CB       -43.0520    8.3960    4.6820 C.3   110  PHE110      0.0560
    112  CG       -44.4660    7.9580    4.4650 C.ar  110  PHE110     -0.0200
    113  CD1      -44.9850    6.9070    5.1800 C.ar  110  PHE110     -0.0042
    114  CD2      -45.2910    8.6320    3.5810 C.ar  110  PHE110     -0.0042
    115  CE1      -46.2950    6.5080    5.0050 C.ar  110  PHE110     -0.0003
    116  CE2      -46.6060    8.2490    3.4010 C.ar  110  PHE110     -0.0003
    117  CZ       -47.1090    7.1830    4.1150 C.ar  110  PHE110     -0.0000
    118  N        -48.7790   13.5250    7.2560 N.3   120  PHE120     -0.1241
    119  CA       -49.6780   12.5300    7.8650 C.3   120  PHE120      0.1605
    120  C        -50.9650   13.1230    8.3900 C.2   120  PHE120      0.2264
    121  O        -51.7110   12.4540    9.1340 O.2   120  PHE120     -0.2867
    122  CB       -48.9660   11.8120    9.0110 C.3   120  PHE120      0.0534
    123  CG       -47.7200   11.1180    8.5810 C.ar  120  PHE120     -0.0203
    124  CD1      -47.7860    9.8840    7.9550 C.ar  120  PHE120     -0.0042
    125  CD2      -46.4820   11.7150    8.7500 C.ar  120  PHE120     -0.0042
    126  CE1      -46.6290    9.2440    7.5260 C.ar  120  PHE120     -0.0003
    127  CE2      -45.3230   11.0750    8.3250 C.ar  120  PHE120     -0.0003
    128  CZ       -45.3970    9.8370    7.7140 C.ar  120  PHE120     -0.0000
    129  N        -54.4100   11.1220    8.7120 N.3   123  LEU123     -0.1245
    130  CA       -54.6020   10.1860    9.8090 C.3   123  LEU123      0.1561
    131  C        -55.5070   10.7520   10.9330 C.2   123  LEU123      0.2260
    132  O        -56.2360    9.9630   11.5840 O.2   123  LEU123     -0.2867
    133  CB       -53.2780    9.6910   10.3770 C.3   123  LEU123      0.0270
    134  CG       -52.4810    8.7820    9.4330 C.3   123  LEU123      0.0019
    135  CD1      -51.1200    8.5120   10.0440 C.3   123  LEU123      0.0001
    136  CD2      -53.1840    7.4620    9.1350 C.3   123  LEU123      0.0001
    137  N        -51.0940   12.0280   18.3700 N.3   128  LEU128     -0.1231
    138  CA       -50.3380   10.7980   18.1690 C.3   128  LEU128      0.1693
    139  C        -49.1520   10.9780   17.2210 C.2   128  LEU128      0.2591
    140  O        -48.0500   10.5490   17.5260 O.2   128  LEU128     -0.2718
    141  CB       -51.2370    9.6810   17.6430 C.3   128  LEU128      0.0284
    142  CG       -50.6040    8.3020   17.3940 C.3   128  LEU128      0.0019
    143  CD1      -50.0560    7.7110   18.6790 C.3   128  LEU128      0.0001
    144  CD2      -51.6200    7.3650   16.7690 C.3   128  LEU128      0.0001
    145  N        -49.3610   11.6080   16.0790 N.am  129  ILE129     -0.1980
    146  CA       -48.2630   11.7950   15.0860 C.3   129  ILE129      0.1595
    147  C        -47.1520   12.6190   15.6990 C.2   129  ILE129      0.2287
    148  O        -45.9700   12.2740   15.5700 O.2   129  ILE129     -0.2864
    149  CB       -48.8010   12.4590   13.8040 C.3   129  ILE129      0.0276
    150  CG1      -49.7890   11.5080   13.1180 C.3   129  ILE129      0.0022
    151  CG2      -47.6700   12.8500   12.8540 C.3   129  ILE129      0.0022
    152  CD1      -49.2660   10.0970   12.8930 C.3   129  ILE129      0.0001
    153  N        -45.1400   10.4800   18.1170 N.3   132  ILE132     -0.1231
    154  CA       -44.2310    9.5820   17.3790 C.3   132  ILE132      0.1692
    155  C        -42.9890   10.3240   16.9000 C.2   132  ILE132      0.2592
    156  O        -41.8620    9.8030   17.0370 O.2   132  ILE132     -0.2718
    157  CB       -44.9030    9.0030   16.1170 C.3   132  ILE132      0.0266
    158  CG1      -46.0330    8.0320   16.5210 C.3   132  ILE132      0.0019
    159  CG2      -43.8760    8.2960   15.2080 C.3   132  ILE132      0.0020
    160  CD1      -46.9590    7.6050   15.3960 C.3   132  ILE132      0.0001
    161  N        -43.1950   11.5270   16.3420 N.am  133  PHE133     -0.1976
    162  CA       -42.0790   12.3630   15.8970 C.3   133  PHE133      0.1639
    163  C        -41.1530   12.7490   17.0690 C.2   133  PHE133      0.2290
    164  O        -39.9160   12.6730   16.9380 O.2   133  PHE133     -0.2864
    165  CB       -42.5500   13.6150   15.1520 C.3   133  PHE133      0.0560
    166  CG       -42.7780   13.3960   13.6770 C.ar  133  PHE133     -0.0200
    167  CD1      -43.8730   12.6610   13.2250 C.ar  133  PHE133     -0.0042
    168  CD2      -41.9030   13.9250   12.7300 C.ar  133  PHE133     -0.0042
    169  CE1      -44.0820   12.4600   11.8620 C.ar  133  PHE133     -0.0003
    170  CE2      -42.1100   13.7390   11.3680 C.ar  133  PHE133     -0.0003
    171  CZ       -43.1920   12.9940   10.9300 C.ar  133  PHE133     -0.0000
    172  N        -47.2970    4.8300   24.1710 N.3   207  LEU207     -0.1231
    173  CA       -47.3920    5.1330   22.7390 C.3   207  LEU207      0.1693
    174  C        -47.9780    3.9610   21.9750 C.2   207  LEU207      0.2592
    175  O        -48.8310    4.1600   21.1030 O.2   207  LEU207     -0.2718
    176  CB       -46.0200    5.4730   22.1400 C.3   207  LEU207      0.0284
    177  CG       -45.3770    6.7950   22.5590 C.3   207  LEU207      0.0019
    178  CD1      -43.9320    6.8540   22.0880 C.3   207  LEU207      0.0001
    179  CD2      -46.1440    7.9900   22.0250 C.3   207  LEU207      0.0001
    180  N        -47.5150    2.7570   22.2980 N.am  208  CYS208     -0.1970
    181  CA       -48.0670    1.5690   21.6500 C.3   208  CYS208      0.1712
    182  C        -49.4990    1.1360   22.0980 C.2   208  CYS208      0.2296
    183  O        -49.6700    0.0380   22.6530 O.2   208  CYS208     -0.2864
    184  CB       -47.0930    0.4030   21.6880 C.3   208  CYS208      0.0983
    185  SG       -45.5880    0.8160   20.7990 S.3   208  CYS208     -0.0798
    186  N        -54.8690    3.1380   19.3630 N.3   211  HIS211     -0.1226
    187  CA       -54.7570    3.4900   17.9700 C.3   211  HIS211      0.1752
    188  C        -54.2020    2.3590   17.1070 C.2   211  HIS211      0.2595
    189  O        -54.9350    2.0180   16.1450 O.2   211  HIS211     -0.2718
    190  CB       -54.0460    4.8440   17.7950 C.3   211  HIS211      0.0759
    191  CG       -54.9300    6.0300   18.0880 C.ar  211  HIS211      0.0818
    192  ND1      -56.1770    6.1940   17.5140 N.ar  211  HIS211     -0.2268
    193  CD2      -54.7390    7.1160   18.8780 C.ar  211  HIS211      0.1154
    194  CE1      -56.7160    7.3190   17.9470 C.ar  211  HIS211      0.1986
    195  NE2      -55.8630    7.9000   18.7710 N.ar  211  HIS211     -0.2212
    196  N        -53.0720    1.7220   17.5070 N.am  212  VAL212     -0.1980
    197  CA       -52.5080    0.6390   16.6780 C.3   212  VAL212      0.1595
    198  C        -53.0520   -0.7620   16.9340 C.2   212  VAL212      0.2287
    199  O        -52.3670   -1.6770   16.6590 O.2   212  VAL212     -0.2864
    200  CB       -50.9540    0.6410   16.7290 C.3   212  VAL212      0.0276
    201  CG1      -50.4250    1.7840   15.8830 C.3   212  VAL212      0.0022
    202  CG2      -50.4250    0.6970   18.1700 C.3   212  VAL212      0.0022
    203  N        -56.6330   -3.1380   13.9210 N.3   215  LEU215     -0.1245
    204  CA       -56.4480   -2.7680   12.5300 C.3   215  LEU215      0.1561
    205  C        -56.8320   -3.8120   11.5010 C.2   215  LEU215      0.2260
    206  O        -56.5330   -3.6220   10.3910 O.2   215  LEU215     -0.2867
    207  CB       -54.9760   -2.3810   12.3250 C.3   215  LEU215      0.0270
    208  CG       -54.3380   -1.3870   13.3160 C.3   215  LEU215      0.0019
    209  CD1      -52.9700   -0.9080   12.8220 C.3   215  LEU215      0.0001
    210  CD2      -55.2670   -0.2120   13.5840 C.3   215  LEU215      0.0001
@<TRIPOS>BOND
     1   106   104   ar
     2   106   105   ar
     3   104   102   ar
     4   110   109    2
     5    43    44   ar
     6    43    41   ar
     7   109   108    1
     8   105   103   ar
     9    44    42   ar
    10   102   101   ar
    11   116   114   ar
    12   116   117   ar
    13    41    40   ar
    14   114   112   ar
    15   103   101   ar
    16   101   100    1
    17    42    40   ar
    18   108   107    1
    19   108   111    1
    20   117   115   ar
    21     4     3    2
    22   107    98   am
    23   112   111    1
    24   112   113   ar
    25    40    39    1
    26   115   113   ar
    27    98    97    1
    28    98    99    2
    29   100    97    1
    30    97    96    1
    31     3     2    1
    32    35    36    1
    33     9     7   am
    34    39    36    1
    35    24    25    1
    36    92    91    2
    37     6     7    1
    38     6     5    1
    39    36    37    1
    40     2     5    1
    41     2     1    1
    42    96    91   am
    43     7     8    2
    44    10    11    1
    45    91    90    1
    46    12    13    2
    47    12    11    1
    48    29    28    1
    49    25    26    1
    50    25    28    1
    51   118   119    1
    52   126   128   ar
    53   126   124   ar
    54    37    38    2
    55    37    45   am
    56    32    33    2
    57    32    31    1
    58    11    14    1
    59   128   127   ar
    60   119   120    1
    61   119   122    1
    62    26    30   am
    63    26    27    2
    64    30    31    1
    65   124   123   ar
    66    89    90    1
    67   127   125   ar
    68    90    93    1
    69   120   121    2
    70    34    31    1
    71    45    46    1
    72   123   125   ar
    73   123   122    1
    74    53    54    1
    75    14    15    1
    76   129   130    1
    77    94    93    1
    78   136   134    1
    79    93    95    1
    80   134   135    1
    81   134   133    1
    82    54    57    1
    83    54    55    1
    84   130   133    1
    85   130   131    1
    86    15    16   ar
    87    15    17   ar
    88    46    47    1
    89    46    49    1
    90    16    18   ar
    91    47    48    2
    92   206   205    2
    93    55    56    2
    94    49    50    1
    95   171   170   ar
    96   171   169   ar
    97   131   132    2
    98    17    20   ar
    99    17    19   ar
   100    18    19   ar
   101   170   168   ar
   102   205   204    1
   103    20    22   ar
   104   169   167   ar
   105    19    21   ar
   106    50    51    1
   107    50    52    1
   108   207   204    1
   109   207   208    1
   110    84    83    2
   111   204   203    1
   112   168   166   ar
   113    86    87    1
   114    86    85    1
   115   209   208    1
   116    22    23   ar
   117   151   149    1
   118   152   150    1
   119    21    23   ar
   120   150   149    1
   121    82    83    1
   122    82    85    1
   123    82    81    1
   124   167   166   ar
   125    88    87    1
   126   208   210    1
   127    71    70    1
   128   166   165    1
   129   149   146    1
   130    72    70    1
   131    70    67    1
   132    69    68    2
   133   146   147    1
   134   146   145    1
   135   165   162    1
   136   159   157    1
   137    67    68    1
   138    67    66    1
   139   160   158    1
   140    68    73   am
   141   148   147    2
   142   201   200    1
   143   162   161    1
   144   162   163    1
   145   145   139   am
   146   157   158    1
   147   157   154    1
   148   189   188    2
   149   161   155   am
   150    73    74    1
   151   199   198    2
   152   197   200    1
   153   197   198    1
   154   197   196    1
   155    65    64    1
   156   200   202    1
   157   144   142    1
   158   155   156    2
   159   155   154    1
   160    76    75    2
   161   164   163    2
   162    64    63    1
   163    74    75    1
   164    74    77    1
   165   188   196   am
   166   188   187    1
   167   139   140    2
   168   139   138    1
   169   154   153    1
   170    63    62    1
   171   142   141    1
   172   142   143    1
   173    79    78    1
   174   192   194   ar
   175   192   191   ar
   176   141   138    1
   177    59    58    1
   178    59    62    1
   179    59    60    1
   180   190   187    1
   181   190   191    1
   182    61    60    2
   183   194   195   ar
   184   187   186    1
   185   191   193   ar
   186   138   137    1
   187    77    78    1
   188    78    80    1
   189   195   193   ar
   190   185   184    1
   191   175   174    2
   192   181   184    1
   193   181   182    1
   194   181   180    1
   195   174   180   am
   196   174   173    1
   197   179   177    1
   198   178   177    1
   199   182   183    2
   200   176   177    1
   201   176   173    1
   202   173   172    1
