@<TRIPOS>MOLECULE
tmp/5etjE00.pdb
 154 145 0 0 0
SMALL
GASTEIGER

@<TRIPOS>ATOM
      1  N        -44.8490  -35.8720   35.0770 N.3    35  SER35      -0.1217
      2  CA       -43.6800  -35.6510   35.9540 C.3    35  SER35       0.1889
      3  C        -44.0640  -34.8540   37.1750 C.2    35  SER35       0.2288
      4  O        -44.6340  -33.7800   37.0490 O.2    35  SER35      -0.2866
      5  CB       -42.5300  -34.9170   35.2360 C.3    35  SER35       0.2089
      6  OG       -41.8340  -35.7640   34.3420 O.3    35  SER35      -0.2183
      7  N        -37.6360  -42.7660   34.8390 N.3    63  VAL63      -0.1245
      8  CA       -37.4140  -41.3470   35.0720 C.3    63  VAL63       0.1561
      9  C        -37.7690  -41.0180   36.5300 C.2    63  VAL63       0.2260
     10  O        -38.7840  -41.4940   37.0280 O.2    63  VAL63      -0.2867
     11  CB       -38.2740  -40.5070   34.0840 C.3    63  VAL63       0.0252
     12  CG1      -38.1290  -38.9990   34.3210 C.3    63  VAL63       0.0019
     13  CG2      -37.9190  -40.8440   32.6400 C.3    63  VAL63       0.0019
     14  N        -41.5080  -42.5880   28.0250 N.3    88  HIS88      -0.1241
     15  CA       -41.1470  -41.5250   27.1070 C.3    88  HIS88       0.1621
     16  C        -40.2620  -42.0700   26.0220 C.2    88  HIS88       0.2264
     17  O        -39.4750  -42.9990   26.2490 O.2    88  HIS88      -0.2867
     18  CB       -40.3790  -40.4330   27.7990 C.3    88  HIS88       0.0745
     19  CG       -41.0230  -39.9240   29.0410 C.ar   88  HIS88       0.0817
     20  ND1      -40.8840  -40.5570   30.2550 N.ar   88  HIS88      -0.2268
     21  CD2      -41.7660  -38.8190   29.2700 C.ar   88  HIS88       0.1154
     22  CE1      -41.5230  -39.8620   31.1810 C.ar   88  HIS88       0.1986
     23  NE2      -42.0730  -38.8080   30.6060 N.ar   88  HIS88      -0.2212
     24  N        -37.6550  -40.6100   24.7250 N.3    90  TYR90      -0.1241
     25  CA       -36.2450  -40.3710   25.0520 C.3    90  TYR90       0.1605
     26  C        -35.5930  -41.4310   25.9250 C.2    90  TYR90       0.2264
     27  O        -34.3750  -41.4270   26.0420 O.2    90  TYR90      -0.2867
     28  CB       -36.0420  -39.0060   25.7030 C.3    90  TYR90       0.0534
     29  CG       -36.7650  -38.7820   27.0180 C.ar   90  TYR90      -0.0201
     30  CD1      -36.3810  -39.4470   28.1860 C.ar   90  TYR90      -0.0009
     31  CD2      -37.8290  -37.8740   27.0980 C.ar   90  TYR90      -0.0009
     32  CE1      -37.0330  -39.2230   29.3890 C.ar   90  TYR90       0.0417
     33  CE2      -38.4900  -37.6520   28.2840 C.ar   90  TYR90       0.0417
     34  CZ       -38.0960  -38.3230   29.4300 C.ar   90  TYR90       0.1957
     35  OH       -38.7610  -38.0940   30.6020 O.3    90  TYR90      -0.2866
     36  N        -49.5150  -33.7270   32.0820 N.3   117  ASN117     -0.1225
     37  CA       -48.0800  -33.6260   32.0260 C.3   117  ASN117      0.1785
     38  C        -47.5870  -32.3520   32.6790 C.2   117  ASN117      0.2597
     39  O        -48.3650  -31.4730   33.0090 O.2   117  ASN117     -0.2718
     40  CB       -47.6040  -33.7110   30.5780 C.3   117  ASN117      0.1169
     41  CG       -48.1530  -32.5980   29.7070 C.2   117  ASN117      0.2627
     42  OD1      -48.0110  -31.4070   30.0350 O.2   117  ASN117     -0.2716
     43  ND2      -48.7460  -32.9660   28.5630 N.am  117  ASN117     -0.0877
     44  N        -46.2740  -32.3020   32.8710 N.am  118  ALA118     -0.1966
     45  CA       -45.5590  -31.0870   33.1390 C.3   118  ALA118      0.1728
     46  C        -45.1680  -30.5110   31.7830 C.2   118  ALA118      0.2616
     47  O        -44.9830  -31.2560   30.8310 O.2   118  ALA118     -0.2715
     48  CB       -44.3220  -31.3910   33.9630 C.3   118  ALA118      0.0334
     49  N        -45.0630  -29.1870   31.6850 N.am  119  ALA119     -0.1963
     50  CA       -44.6600  -28.5570   30.4390 C.3   119  ALA119      0.1728
     51  C        -43.9240  -27.2590   30.6800 C.2   119  ALA119      0.2616
     52  O        -44.1720  -26.5770   31.6730 O.2   119  ALA119     -0.2715
     53  CB       -45.8780  -28.3230   29.5310 C.3   119  ALA119      0.0334
     54  N        -43.0230  -26.9110   29.7630 N.am  120  GLY120     -0.1955
     55  CA       -42.3560  -25.6100   29.7940 C.3   120  GLY120      0.1869
     56  C        -43.2530  -24.5910   29.1370 C.2   120  GLY120      0.2309
     57  O        -43.8520  -24.8800   28.0960 O.2   120  GLY120     -0.2863
     58  N        -41.7230  -32.2740   21.6430 N.3   197  VAL197     -0.1245
     59  CA       -40.3720  -32.4550   21.1000 C.3   197  VAL197      0.1561
     60  C        -39.8450  -33.6840   21.7990 C.2   197  VAL197      0.2260
     61  O        -40.3120  -34.0260   22.8850 O.2   197  VAL197     -0.2867
     62  CB       -39.4710  -31.2350   21.3560 C.3   197  VAL197      0.0252
     63  CG1      -40.0640  -30.0060   20.7120 C.3   197  VAL197      0.0019
     64  CG2      -39.2730  -30.9720   22.8310 C.3   197  VAL197      0.0019
     65  N        -34.0500  -35.9180   25.0950 N.3   200  PRO200     -0.2116
     66  CA       -34.2440  -35.4700   26.4780 C.3   200  PRO200      0.1372
     67  C        -33.6120  -34.1310   26.8860 C.2   200  PRO200      0.2244
     68  O        -33.8560  -33.6710   28.0130 O.2   200  PRO200     -0.2868
     69  CB       -33.5390  -36.5740   27.2660 C.3   200  PRO200      0.0268
     70  CG       -32.3730  -36.9220   26.3880 C.3   200  PRO200      0.0207
     71  CD       -32.9450  -36.8970   24.9930 C.3   200  PRO200      0.0892
     72  N        -33.0990  -30.1070   27.0520 N.3   202  PHE202     -0.1227
     73  CA       -34.0450  -28.9780   27.0180 C.3   202  PHE202      0.1736
     74  C        -33.7020  -28.0270   25.8680 C.2   202  PHE202      0.2595
     75  O        -32.6230  -28.0820   25.3010 O.2   202  PHE202     -0.2718
     76  CB       -33.9970  -28.2000   28.3310 C.3   202  PHE202      0.0547
     77  CG       -34.5690  -28.9320   29.5330 C.ar  202  PHE202     -0.0202
     78  CD1      -35.9530  -29.1530   29.6540 C.ar  202  PHE202     -0.0042
     79  CD2      -33.7510  -29.3030   30.5910 C.ar  202  PHE202     -0.0042
     80  CE1      -36.4870  -29.7780   30.7680 C.ar  202  PHE202     -0.0003
     81  CE2      -34.2850  -29.9300   31.7240 C.ar  202  PHE202     -0.0003
     82  CZ       -35.6610  -30.1660   31.8120 C.ar  202  PHE202     -0.0000
     83  N        -34.6020  -27.1100   25.5590 N.am  203  GLU203     -0.1979
     84  CA       -34.4940  -26.2630   24.3500 C.3   203  GLU203      0.1602
     85  C        -33.4070  -25.1810   24.4270 C.2   203  GLU203      0.2287
     86  O        -33.1050  -24.6720   25.5020 O.2   203  GLU203     -0.2864
     87  CB       -35.8170  -25.5210   24.1010 C.3   203  GLU203      0.0415
     88  CG       -37.0060  -26.3960   23.7400 C.3   203  GLU203      0.1163
     89  CD       -37.4210  -27.3380   24.8590 C.2   203  GLU203      0.3649
     90  OE1      -37.4840  -26.9210   26.0490 O.co2 203  GLU203     -0.2457
     91  OE2      -37.6670  -28.5170   24.5450 O.co2 203  GLU203     -0.2457
     92  N        -44.4860  -26.6470   25.8780 N.3   219  VAL219     -0.1231
     93  CA       -43.6570  -27.6780   25.2630 C.3   219  VAL219      0.1692
     94  C        -43.4030  -28.7680   26.2620 C.2   219  VAL219      0.2593
     95  O        -43.1350  -28.4830   27.4270 O.2   219  VAL219     -0.2718
     96  CB       -42.3090  -27.1110   24.7500 C.3   219  VAL219      0.0266
     97  CG1      -41.4850  -26.4570   25.8450 C.3   219  VAL219      0.0020
     98  CG2      -41.4860  -28.1980   24.0590 C.3   219  VAL219      0.0020
     99  N        -43.4840  -30.0120   25.8080 N.am  220  GLY220     -0.1942
    100  CA       -43.0090  -31.1610   26.5870 C.3   220  GLY220      0.2014
    101  C        -42.5000  -32.3160   25.7340 C.2   220  GLY220      0.2638
    102  O        -42.2660  -32.1450   24.5290 O.2   220  GLY220     -0.2714
    103  N        -42.3580  -33.4900   26.3560 N.am  221  MET221     -0.1976
    104  CA       -41.7360  -34.6670   25.7080 C.3   221  MET221      0.1605
    105  C        -42.5820  -35.9430   25.6940 C.2   221  MET221      0.2287
    106  O        -42.0490  -37.0370   25.5640 O.2   221  MET221     -0.2864
    107  CB       -40.3670  -34.9740   26.3590 C.3   221  MET221      0.0413
    108  CG       -39.4380  -33.7880   26.4420 C.3   221  MET221      0.0598
    109  SD       -37.8950  -34.1930   27.2810 S.3   221  MET221     -0.1393
    110  CE       -37.1980  -32.5420   27.4780 C.3   221  MET221      0.0692
    111  N        -44.5110  -25.8320   34.6930 N.3   244  THR244     -0.1203
    112  CA       -43.5380  -25.9690   35.7530 C.3   244  THR244      0.1994
    113  C        -42.3940  -24.9770   35.6600 C.2   244  THR244      0.2617
    114  O        -41.6740  -24.7860   36.6260 O.2   244  THR244     -0.2717
    115  CB       -42.9530  -27.3780   35.7220 C.3   244  THR244      0.1784
    116  OG1      -42.3600  -27.6220   34.4420 O.3   244  THR244     -0.2211
    117  CG2      -44.0430  -28.3800   35.9550 C.3   244  THR244      0.0376
    118  N        -42.2190  -24.3410   34.5120 N.am  245  ASN245     -0.1974
    119  CA       -41.0800  -23.4290   34.2820 C.3   245  ASN245      0.1688
    120  C        -41.3150  -22.6680   33.0250 C.2   245  ASN245      0.2292
    121  O        -42.0300  -23.1590   32.1470 O.2   245  ASN245     -0.2864
    122  CB       -39.7490  -24.1870   34.1380 C.3   245  ASN245      0.1181
    123  CG       -39.7760  -25.2080   33.0140 C.2   245  ASN245      0.2629
    124  OD1      -40.5120  -26.2060   33.0880 O.2   245  ASN245     -0.2716
    125  ND2      -38.9540  -24.9910   31.9790 N.am  245  ASN245     -0.0877
    126  N        -39.6850  -21.2820   29.6800 N.3   247  VAL247     -0.1245
    127  CA       -38.6010  -21.6270   28.8060 C.3   247  VAL247      0.1561
    128  C        -37.7690  -20.3590   28.6010 C.2   247  VAL247      0.2260
    129  O        -38.3120  -19.2830   28.3790 O.2   247  VAL247     -0.2867
    130  CB       -39.1240  -22.1900   27.4480 C.3   247  VAL247      0.0252
    131  CG1      -37.9720  -22.5400   26.5150 C.3   247  VAL247      0.0019
    132  CG2      -39.9750  -23.4320   27.6540 C.3   247  VAL247      0.0019
    133  N        -33.3900  -24.4440   32.5460 N.3   257  ALA257     -0.1245
    134  CA       -34.3390  -25.5300   32.7960 C.3   257  ALA257      0.1562
    135  C        -33.6280  -26.6740   33.5030 C.2   257  ALA257      0.2260
    136  O        -32.4920  -27.0310   33.1510 O.2   257  ALA257     -0.2867
    137  CB       -34.9830  -26.0260   31.5090 C.3   257  ALA257      0.0290
    138  N        -34.5960  -30.5230   36.0240 N.3   259  HIS259     -0.1241
    139  CA       -35.5960  -31.4680   36.4770 C.3   259  HIS259      0.1621
    140  C        -36.0470  -31.2750   37.9270 C.2   259  HIS259      0.2264
    141  O        -37.1950  -31.5920   38.2550 O.2   259  HIS259     -0.2867
    142  CB       -35.0980  -32.8960   36.2890 C.3   259  HIS259      0.0745
    143  CG       -36.1720  -33.9210   36.4460 C.ar  259  HIS259      0.0817
    144  ND1      -37.3520  -33.8690   35.7340 N.ar  259  HIS259     -0.2268
    145  CD2      -36.2570  -35.0110   37.2430 C.ar  259  HIS259      0.1154
    146  CE1      -38.1170  -34.8920   36.0770 C.ar  259  HIS259      0.1986
    147  NE2      -37.4740  -35.6010   36.9880 N.ar  259  HIS259     -0.2212
    148  N        -38.8580  -28.9640   38.0860 N.3   262  VAL262     -0.1245
    149  CA       -40.0660  -29.6140   37.5670 C.3   262  VAL262      0.1561
    150  C        -40.7550  -30.4950   38.6030 C.2   262  VAL262      0.2260
    151  O        -41.9800  -30.5200   38.6630 O.2   262  VAL262     -0.2867
    152  CB       -39.7860  -30.4250   36.2710 C.3   262  VAL262      0.0252
    153  CG1      -41.0050  -31.2380   35.8530 C.3   262  VAL262      0.0019
    154  CG2      -39.3740  -29.4940   35.1350 C.3   262  VAL262      0.0019
@<TRIPOS>BOND
     1    63    62    1
     2    59    62    1
     3    59    58    1
     4    59    60    1
     5    62    64    1
     6    60    61    2
     7    88    87    1
     8    88    89    1
     9    98    96    1
    10    87    84    1
    11    84    85    1
    12    84    83    1
    13    85    86    2
    14   102   101    2
    15    91    89   ar
    16    24    25    1
    17    96    93    1
    18    96    97    1
    19    89    90   ar
    20    71    65    1
    21    71    70    1
    22    25    28    1
    23    25    26    1
    24    65    66    1
    25    93    92    1
    26    93    94    1
    27    75    74    2
    28    83    74   am
    29   106   105    2
    30   105   104    1
    31    28    29    1
    32   104   103    1
    33   104   107    1
    34   101   103   am
    35   101   100    1
    36    99    94   am
    37    99   100    1
    38    74    73    1
    39    26    27    2
    40    16    17    2
    41    16    15    1
    42    94    95    2
    43   107   108    1
    44    70    69    1
    45   108   109    1
    46    66    67    1
    47    66    69    1
    48   131   130    1
    49    67    68    2
    50    73    72    1
    51    73    76    1
    52    29    31   ar
    53    29    30   ar
    54    31    33   ar
    55    15    18    1
    56    15    14    1
    57   109   110    1
    58   130   132    1
    59   130   127    1
    60    18    19    1
    61    57    56    2
    62    30    32   ar
    63    33    34   ar
    64    76    77    1
    65   129   128    2
    66    43    41   am
    67   128   127    1
    68   127   126    1
    69    19    21   ar
    70    19    20   ar
    71    56    55    1
    72    21    23   ar
    73    32    34   ar
    74    34    35    1
    75    53    50    1
    76    77    78   ar
    77    77    79   ar
    78    78    80   ar
    79    41    42    2
    80    41    40    1
    81    54    55    1
    82    54    51   am
    83    20    22   ar
    84    50    51    1
    85    50    49    1
    86    40    37    1
    87    79    81   ar
    88    23    22   ar
    89    51    52    2
    90    80    82   ar
    91    47    46    2
    92   137   134    1
    93    49    46   am
    94    81    82   ar
    95    46    45    1
    96   125   123   am
    97    37    36    1
    98    37    38    1
    99   121   120    2
   100   133   134    1
   101    13    11    1
   102    38    44   am
   103    38    39    2
   104   134   135    1
   105    44    45    1
   106   123   124    2
   107   123   122    1
   108   120   119    1
   109    45    48    1
   110   136   135    2
   111    11    12    1
   112    11     8    1
   113   122   119    1
   114   119   118    1
   115     6     5    1
   116   116   115    1
   117   118   113   am
   118   111   112    1
   119     7     8    1
   120     8     9    1
   121     1     2    1
   122   154   152    1
   123     5     2    1
   124   113   112    1
   125   113   114    2
   126   115   112    1
   127   115   117    1
   128   144   146   ar
   129   144   143   ar
   130   153   152    1
   131     2     3    1
   132   138   139    1
   133   146   147   ar
   134   152   149    1
   135   142   143    1
   136   142   139    1
   137   143   145   ar
   138   139   140    1
   139     9    10    2
   140   147   145   ar
   141     4     3    2
   142   149   148    1
   143   149   150    1
   144   140   141    2
   145   150   151    2
