@<TRIPOS>MOLECULE
tmp/5etlD01.pdb
 133 127 0 0 0
SMALL
GASTEIGER

@<TRIPOS>ATOM
      1  N        -36.7790   26.6940  -36.4900 N.3    10  GLY10      -0.1225
      2  CA       -35.5350   26.6470  -35.7900 C.3    10  GLY10       0.1811
      3  C        -35.3110   27.8990  -34.9550 C.2    10  GLY10       0.2280
      4  O        -35.7140   28.9850  -35.3330 O.2    10  GLY10      -0.2866
      5  N        -30.8590   20.1900  -31.2100 N.3    44  THR44      -0.1204
      6  CA       -29.9120   19.7110  -32.1960 C.3    44  THR44       0.1979
      7  C        -28.5880   20.5060  -32.0710 C.2    44  THR44       0.2459
      8  O        -28.6070   21.7100  -31.9390 O.2    44  THR44      -0.2732
      9  CB       -30.5280   19.7560  -33.6280 C.3    44  THR44       0.1783
     10  OG1      -30.8980   21.0920  -33.9470 O.3    44  THR44      -0.2211
     11  CG2      -31.8000   18.9410  -33.6730 C.3    44  THR44       0.0376
     12  N        -27.4360   19.8180  -32.1360 N.am   45  PRO45      -0.2728
     13  CA       -26.2100   20.5730  -32.1680 C.3    45  PRO45       0.1401
     14  C        -26.1460   21.4740  -33.4110 C.2    45  PRO45       0.2269
     15  O        -26.6030   21.0720  -34.4830 O.2    45  PRO45      -0.2865
     16  CB       -25.1250   19.5080  -32.2270 C.3    45  PRO45       0.0296
     17  CG       -25.7920   18.2430  -31.8320 C.3    45  PRO45       0.0237
     18  CD       -27.2080   18.3610  -32.2290 C.3    45  PRO45       0.0939
     19  N        -25.1670   23.3350  -36.6580 N.3    47  LEU47      -0.1231
     20  CA       -24.3610   23.1100  -37.8320 C.3    47  LEU47       0.1693
     21  C        -23.9950   24.5030  -38.4030 C.2    47  LEU47       0.2593
     22  O        -24.8680   25.3360  -38.6440 O.2    47  LEU47      -0.2718
     23  CB       -25.1500   22.2590  -38.8220 C.3    47  LEU47       0.0284
     24  CG       -25.5660   20.8830  -38.2330 C.3    47  LEU47       0.0019
     25  CD1      -26.4610   20.1160  -39.1870 C.3    47  LEU47       0.0001
     26  CD2      -24.3610   20.0090  -37.8630 C.3    47  LEU47       0.0001
     27  N        -22.7370   24.7080  -38.6730 N.am   48  GLY48      -0.1943
     28  CA       -22.2380   25.9770  -39.1360 C.3    48  GLY48       0.1998
     29  C        -20.9140   26.2980  -38.5120 C.2    48  GLY48       0.2480
     30  O        -20.5100   25.6600  -37.5440 O.2    48  GLY48      -0.2729
     31  N        -20.2400   27.2820  -39.0190 N.am   49  PRO49      -0.2726
     32  CA       -18.9160   27.5960  -38.5080 C.3    49  PRO49       0.1402
     33  C        -18.8530   28.2910  -37.1600 C.2    49  PRO49       0.2269
     34  O        -17.8500   28.2500  -36.4800 O.2    49  PRO49      -0.2865
     35  CB       -18.3500   28.4750  -39.5750 C.3    49  PRO49       0.0296
     36  CG       -19.5050   29.1260  -40.1770 C.3    49  PRO49       0.0237
     37  CD       -20.6560   28.1990  -40.0730 C.3    49  PRO49       0.0939
     38  N        -21.8700   28.4860  -31.6970 N.3    52  GLN52      -0.1245
     39  CA       -23.1640   29.0490  -31.3320 C.3    52  GLN52       0.1566
     40  C        -23.9890   28.1030  -30.4710 C.2    52  GLN52       0.2260
     41  O        -23.5710   27.0070  -30.3190 O.2    52  GLN52      -0.2867
     42  CB       -23.8810   29.4340  -32.6310 C.3    52  GLN52       0.0367
     43  CG       -24.1340   28.2560  -33.5270 C.3    52  GLN52       0.0905
     44  CD       -24.8340   28.5830  -34.8480 C.2    52  GLN52       0.2608
     45  OE1      -25.5580   29.5290  -34.9700 O.2    52  GLN52      -0.2717
     46  NE2      -24.5890   27.7440  -35.8520 N.am   52  GLN52      -0.0878
     47  N        -29.6670   24.4090  -31.4030 N.3    55  TYR55      -0.1241
     48  CA       -30.9830   24.7250  -31.9500 C.3    55  TYR55       0.1605
     49  C        -32.0820   23.9720  -31.2630 C.2    55  TYR55       0.2264
     50  O        -31.9190   22.8060  -30.9110 O.2    55  TYR55      -0.2867
     51  CB       -31.0610   24.3760  -33.4510 C.3    55  TYR55       0.0534
     52  CG       -30.5040   25.5080  -34.2690 C.ar   55  TYR55      -0.0201
     53  CD1      -29.1360   25.6280  -34.4450 C.ar   55  TYR55      -0.0009
     54  CD2      -31.3340   26.4480  -34.8480 C.ar   55  TYR55      -0.0009
     55  CE1      -28.6250   26.6570  -35.1760 C.ar   55  TYR55       0.0417
     56  CE2      -30.8190   27.4990  -35.5830 C.ar   55  TYR55       0.0417
     57  CZ       -29.4740   27.5740  -35.7640 C.ar   55  TYR55       0.1957
     58  OH       -28.9900   28.6280  -36.4540 O.3    55  TYR55      -0.2866
     59  N        -35.1960   22.5720  -32.9060 N.3    57  ASN57      -0.1240
     60  CA       -35.8570   22.3260  -34.2020 C.3    57  ASN57       0.1653
     61  C        -37.2070   21.6210  -34.0630 C.2    57  ASN57       0.2266
     62  O        -37.4010   20.7630  -33.2030 O.2    57  ASN57      -0.2867
     63  CB       -34.9470   21.5150  -35.1400 C.3    57  ASN57       0.1155
     64  CG       -33.8410   22.3420  -35.7530 C.2    57  ASN57       0.2627
     65  OD1      -32.6640   22.0340  -35.6060 O.2    57  ASN57      -0.2716
     66  ND2      -34.2230   23.3730  -36.5130 N.am   57  ASN57      -0.0877
     67  N        -24.9680   33.4820  -42.3160 N.3    91  TRP91      -0.1227
     68  CA       -25.2970   32.2150  -41.6880 C.3    91  TRP91       0.1737
     69  C        -24.6840   32.4220  -40.3140 C.2    91  TRP91       0.2596
     70  O        -23.5810   32.9400  -40.1890 O.2    91  TRP91      -0.2718
     71  CB       -24.6290   31.0190  -42.4090 C.3    91  TRP91       0.0564
     72  CG       -25.5250   30.0830  -43.2810 C.ar   91  TRP91       0.0003
     73  CD1      -26.8680   29.9250  -43.1990 C.ar   91  TRP91       0.0946
     74  CD2      -25.0890   29.1850  -44.3310 C.ar   91  TRP91       0.0152
     75  NE1      -27.3010   29.0180  -44.1350 N.ar   91  TRP91      -0.2442
     76  CE2      -26.2290   28.5500  -44.8410 C.ar   91  TRP91       0.0810
     77  CE3      -23.8490   28.8790  -44.8980 C.ar   91  TRP91       0.0012
     78  CZ2      -26.1660   27.6130  -45.8830 C.ar   91  TRP91       0.0191
     79  CZ3      -23.7980   27.9410  -45.9350 C.ar   91  TRP91       0.0001
     80  CH2      -24.9420   27.3300  -46.4050 C.ar   91  TRP91       0.0015
     81  N        -25.4260   32.0660  -39.2870 N.am   92  GLY92      -0.1957
     82  CA       -25.1540   32.4990  -37.8970 C.3    92  GLY92       0.1869
     83  C        -26.3980   32.2820  -37.0310 C.2    92  GLY92       0.2309
     84  O        -27.4230   31.8240  -37.5470 O.2    92  GLY92      -0.2863
     85  N        -29.8110   32.7030  -34.6930 N.3    94  ARG94      -0.1245
     86  CA       -30.9860   33.5050  -34.7930 C.3    94  ARG94       0.1563
     87  C        -32.1070   33.1900  -33.8880 C.2    94  ARG94       0.2260
     88  O        -32.2520   32.1060  -33.4220 O.2    94  ARG94      -0.2867
     89  CB       -31.4790   33.6290  -36.1850 C.3    94  ARG94       0.0307
     90  CG       -32.0670   32.4030  -36.7860 C.3    94  ARG94       0.0489
     91  CD       -32.1690   32.6250  -38.2830 C.3    94  ARG94       0.2205
     92  NE       -31.0930   33.4390  -38.8460 N.pl3  94  ARG94      -0.0865
     93  CZ       -30.4490   33.1690  -39.9640 C.cat  94  ARG94       0.5346
     94  NH1      -30.8000   32.0990  -40.6830 N.pl3  94  ARG94       0.1354
     95  NH2      -29.4680   33.9700  -40.3650 N.pl3  94  ARG94       0.1354
     96  N        -36.2420   31.0020  -37.1760 N.3    97  ASP97      -0.1239
     97  CA       -36.1220   30.6980  -38.5820 C.3    97  ASP97       0.1674
     98  C        -37.2990   29.8130  -39.0050 C.2    97  ASP97       0.2266
     99  O        -37.5250   28.7760  -38.3900 O.2    97  ASP97      -0.2867
    100  CB       -34.7510   30.0200  -38.8510 C.3    97  ASP97       0.1410
    101  CG       -34.5280   29.7200  -40.3070 C.2    97  ASP97       0.3668
    102  OD1      -34.7170   30.6380  -41.1610 O.co2  97  ASP97      -0.2456
    103  OD2      -34.2110   28.5560  -40.6170 O.co2  97  ASP97      -0.2456
    104  N        -32.4670   21.8460  -49.5960 N.3   119  ASP119     -0.1239
    105  CA       -31.6010   20.9240  -48.8470 C.3   119  ASP119      0.1674
    106  C        -32.2940   20.0280  -47.8640 C.2   119  ASP119      0.2266
    107  O        -31.6260   19.2650  -47.1390 O.2   119  ASP119     -0.2867
    108  CB       -30.5110   21.7560  -48.1070 C.3   119  ASP119      0.1410
    109  CG       -29.2590   20.9460  -47.7640 C.2   119  ASP119      0.3668
    110  OD1      -28.7770   20.2040  -48.6360 O.co2 119  ASP119     -0.2456
    111  OD2      -28.8310   21.0190  -46.5710 O.co2 119  ASP119     -0.2456
    112  N        -31.2190   16.8690  -44.4170 N.3   123  ARG123     -0.1245
    113  CA       -31.2560   17.3690  -43.0440 C.3   123  ARG123      0.1563
    114  C        -32.1400   16.5590  -42.0970 C.2   123  ARG123      0.2260
    115  O        -33.3740   16.6570  -42.1490 O.2   123  ARG123     -0.2867
    116  CB       -31.7460   18.8170  -43.0700 C.3   123  ARG123      0.0307
    117  CG       -30.7890   19.7570  -43.7580 C.3   123  ARG123      0.0489
    118  CD       -31.3650   21.1580  -43.8000 C.3   123  ARG123      0.2205
    119  NE       -30.4640   22.0500  -44.5390 N.pl3 123  ARG123     -0.0865
    120  CZ       -30.5900   23.3800  -44.5970 C.cat 123  ARG123      0.5346
    121  NH1      -31.5470   24.0050  -43.9510 N.pl3 123  ARG123      0.1354
    122  NH2      -29.7600   24.0800  -45.3600 N.pl3 123  ARG123      0.1354
    123  N        -32.6520   17.1120  -39.0110 N.3   125  PHE125     -0.1241
    124  CA       -33.4330   18.0430  -38.1810 C.3   125  PHE125      0.1605
    125  C        -34.6760   18.5750  -38.8440 C.2   125  PHE125      0.2264
    126  O        -35.5200   19.1640  -38.1650 O.2   125  PHE125     -0.2867
    127  CB       -32.5140   19.1390  -37.5590 C.3   125  PHE125      0.0534
    128  CG       -31.9520   20.0950  -38.5560 C.ar  125  PHE125     -0.0203
    129  CD1      -32.7120   21.1250  -39.0240 C.ar  125  PHE125     -0.0042
    130  CD2      -30.6250   19.9830  -38.9950 C.ar  125  PHE125     -0.0042
    131  CE1      -32.1900   22.0360  -39.9360 C.ar  125  PHE125     -0.0003
    132  CE2      -30.1040   20.8700  -39.9220 C.ar  125  PHE125     -0.0003
    133  CZ       -30.8730   21.9510  -40.3370 C.ar  125  PHE125     -0.0000
@<TRIPOS>BOND
     1   104   105    1
     2   105   108    1
     3   105   106    1
     4   110   109   ar
     5   108   109    1
     6   106   107    2
     7   109   111   ar
     8    80    79   ar
     9    80    78   ar
    10    79    77   ar
    11    78    76   ar
    12   122   120    1
    13    77    74   ar
    14    76    74   ar
    15    76    75   ar
    16   120   119    2
    17   120   121    1
    18   119   118    1
    19   112   113    1
    20    74    72   ar
    21    75    73   ar
    22   118   117    1
    23   117   116    1
    24    72    73   ar
    25    72    71    1
    26   116   113    1
    27   113   114    1
    28    71    68    1
    29    67    68    1
    30   115   114    2
    31    68    69    1
    32   102   101   ar
    33    94    93    1
    34   103   101   ar
    35    95    93    1
    36   133   131   ar
    37   133   132   ar
    38    69    70    2
    39    69    81   am
    40   101   100    1
    41    36    37    1
    42    36    35    1
    43    37    31    1
    44    93    92    2
    45   131   129   ar
    46   132   130   ar
    47    35    32    1
    48    81    82    1
    49    25    24    1
    50    28    27    1
    51    28    29    1
    52   129   128   ar
    53    31    29   am
    54    31    32    1
    55   123   124    1
    56    98    97    1
    57    98    99    2
    58   130   128   ar
    59   100    97    1
    60    92    91    1
    61   125   124    1
    62   125   126    2
    63    23    24    1
    64    23    20    1
    65    27    21   am
    66    22    21    2
    67    97    96    1
    68   128   127    1
    69    29    30    2
    70    32    33    1
    71    21    20    1
    72    91    90    1
    73    24    26    1
    74   124   127    1
    75    82    83    1
    76    20    19    1
    77    84    83    2
    78    33    34    2
    79    90    89    1
    80    66    64   am
    81     1     2    1
    82    58    57    1
    83    89    86    1
    84    46    44   am
    85     2     3    1
    86    57    56   ar
    87    57    55   ar
    88    64    65    2
    89    64    63    1
    90    56    54   ar
    91     4     3    2
    92    55    53   ar
    93    63    60    1
    94    45    44    2
    95    54    52   ar
    96    44    43    1
    97    86    85    1
    98    86    87    1
    99    15    14    2
   100    53    52   ar
   101    52    51    1
   102    60    61    1
   103    60    59    1
   104    61    62    2
   105    10     9    1
   106    87    88    2
   107    11     9    1
   108     9     6    1
   109    43    42    1
   110    51    48    1
   111    14    13    1
   112    42    39    1
   113    18    12    1
   114    18    17    1
   115    16    13    1
   116    16    17    1
   117     6     7    1
   118     6     5    1
   119    13    12    1
   120    12     7   am
   121     7     8    2
   122    48    47    1
   123    48    49    1
   124    38    39    1
   125    39    40    1
   126    49    50    2
   127    40    41    2
