@<TRIPOS>MOLECULE
tmp/5etlD00.pdb
 191 184 0 0 0
SMALL
GASTEIGER

@<TRIPOS>ATOM
      1  N        -45.1980   33.0420  -47.3680 N.3    72  LEU72      -0.1245
      2  CA       -43.8440   33.5060  -47.1090 C.3    72  LEU72       0.1561
      3  C        -43.8800   34.9080  -46.5010 C.2    72  LEU72       0.2260
      4  O        -43.0690   35.2080  -45.5970 O.2    72  LEU72      -0.2867
      5  CB       -42.9910   33.4740  -48.3930 C.3    72  LEU72       0.0270
      6  CG       -41.5450   33.9650  -48.2170 C.3    72  LEU72       0.0019
      7  CD1      -40.7060   33.0260  -47.3390 C.3    72  LEU72       0.0001
      8  CD2      -40.8870   34.1560  -49.5580 C.3    72  LEU72       0.0001
      9  N        -42.0050   35.5320  -42.9340 N.3    76  GLN76      -0.1245
     10  CA       -41.0090   36.6220  -42.8060 C.3    76  GLN76       0.1566
     11  C        -41.3940   37.6640  -41.7800 C.2    76  GLN76       0.2260
     12  O        -40.5660   38.0920  -40.9810 O.2    76  GLN76      -0.2867
     13  CB       -40.7130   37.2610  -44.1460 C.3    76  GLN76       0.0367
     14  CG       -39.9100   36.2950  -45.0190 C.3    76  GLN76       0.0905
     15  CD       -39.5990   36.8680  -46.3750 C.2    76  GLN76       0.2608
     16  OE1      -40.1540   37.9020  -46.7740 O.2    76  GLN76      -0.2717
     17  NE2      -38.6160   36.2780  -47.0480 N.am   76  GLN76      -0.0878
     18  N        -40.8770   36.1970  -38.2150 N.3    79  GLU79      -0.1245
     19  CA       -39.4510   36.2290  -37.8900 C.3    79  GLU79       0.1567
     20  C        -38.9680   37.6340  -37.4630 C.2    79  GLU79       0.2260
     21  O        -38.3590   37.8040  -36.4010 O.2    79  GLU79      -0.2867
     22  CB       -38.6190   35.7290  -39.0710 C.3    79  GLU79       0.0388
     23  CG       -38.7150   34.2500  -39.3550 C.3    79  GLU79       0.1160
     24  CD       -38.1640   33.8750  -40.7360 C.2    79  GLU79       0.3649
     25  OE1      -38.3410   34.6400  -41.7160 O.co2  79  GLU79      -0.2457
     26  OE2      -37.5620   32.7950  -40.9030 O.co2  79  GLU79      -0.2457
     27  N        -35.7840   38.8500  -35.1930 N.3    84  ARG84      -0.1245
     28  CA       -34.7480   38.3900  -36.1050 C.3    84  ARG84       0.1563
     29  C        -34.0150   39.5470  -36.7800 C.2    84  ARG84       0.2260
     30  O        -34.6330   40.4360  -37.3930 O.2    84  ARG84      -0.2867
     31  CB       -35.3230   37.5180  -37.1740 C.3    84  ARG84       0.0307
     32  CG       -34.2520   37.0590  -38.1170 C.3    84  ARG84       0.0489
     33  CD       -34.7240   35.9060  -38.9300 C.3    84  ARG84       0.2205
     34  NE       -33.8350   35.6480  -40.0480 N.pl3  84  ARG84      -0.0865
     35  CZ       -33.7760   34.4930  -40.7020 C.cat  84  ARG84       0.5346
     36  NH1      -34.5370   33.4700  -40.3410 N.pl3  84  ARG84       0.1354
     37  NH2      -32.9460   34.3800  -41.7180 N.pl3  84  ARG84       0.1354
     38  N        -30.6500   40.5850  -39.2480 N.3    86  ARG86      -0.1245
     39  CA       -29.7010   40.0930  -40.2040 C.3    86  ARG86       0.1563
     40  C        -28.3290   40.6510  -39.8280 C.2    86  ARG86       0.2260
     41  O        -28.1860   41.8490  -39.6260 O.2    86  ARG86      -0.2867
     42  CB       -30.0900   40.5250  -41.6240 C.3    86  ARG86       0.0307
     43  CG       -29.0680   40.1960  -42.7030 C.3    86  ARG86       0.0489
     44  CD       -28.9010   38.7230  -42.9520 C.3    86  ARG86       0.2205
     45  NE       -30.1850   38.1450  -43.3930 N.pl3  86  ARG86      -0.0865
     46  CZ       -30.4140   36.8540  -43.6120 C.cat  86  ARG86       0.5346
     47  NH1      -29.4670   35.9290  -43.3710 N.pl3  86  ARG86       0.1354
     48  NH2      -31.6290   36.4770  -44.0220 N.pl3  86  ARG86       0.1354
     49  N        -24.3700   36.2240  -42.0910 N.3    90  ARG90      -0.1231
     50  CA       -25.5550   35.7920  -42.8580 C.3    90  ARG90       0.1694
     51  C        -25.8800   34.2940  -42.8250 C.2    90  ARG90       0.2592
     52  O        -26.9600   33.8870  -43.2460 O.2    90  ARG90      -0.2718
     53  CB       -25.4570   36.2450  -44.3050 C.3    90  ARG90       0.0321
     54  CG       -26.5810   35.8340  -45.2080 C.3    90  ARG90       0.0489
     55  CD       -26.3030   36.3730  -46.6650 C.3    90  ARG90       0.2205
     56  NE       -25.6600   37.7460  -46.5480 N.pl3  90  ARG90      -0.0865
     57  CZ       -26.3180   38.8320  -46.8670 C.cat  90  ARG90       0.5346
     58  NH1      -27.5820   38.6940  -47.3480 N.pl3  90  ARG90       0.1354
     59  NH2      -25.7950   40.0800  -46.7970 N.pl3  90  ARG90       0.1354
     60  N        -24.9680   33.4820  -42.3160 N.am   91  TRP91      -0.1976
     61  CA       -25.2970   32.2150  -41.6880 C.3    91  TRP91       0.1640
     62  C        -24.6840   32.4220  -40.3140 C.2    91  TRP91       0.2290
     63  O        -23.5810   32.9400  -40.1890 O.2    91  TRP91      -0.2864
     64  CB       -24.6290   31.0190  -42.4090 C.3    91  TRP91       0.0576
     65  CG       -25.5250   30.0830  -43.2810 C.ar   91  TRP91       0.0006
     66  CD1      -26.8680   29.9250  -43.1990 C.ar   91  TRP91       0.0946
     67  CD2      -25.0890   29.1850  -44.3310 C.ar   91  TRP91       0.0152
     68  NE1      -27.3010   29.0180  -44.1350 N.ar   91  TRP91      -0.2442
     69  CE2      -26.2290   28.5500  -44.8410 C.ar   91  TRP91       0.0810
     70  CE3      -23.8490   28.8790  -44.8980 C.ar   91  TRP91       0.0012
     71  CZ2      -26.1660   27.6130  -45.8830 C.ar   91  TRP91       0.0191
     72  CZ3      -23.7980   27.9410  -45.9350 C.ar   91  TRP91       0.0001
     73  CH2      -24.9420   27.3300  -46.4050 C.ar   91  TRP91       0.0015
     74  N        -29.8110   32.7030  -34.6930 N.3    94  ARG94      -0.1245
     75  CA       -30.9860   33.5050  -34.7930 C.3    94  ARG94       0.1563
     76  C        -32.1070   33.1900  -33.8880 C.2    94  ARG94       0.2260
     77  O        -32.2520   32.1060  -33.4220 O.2    94  ARG94      -0.2867
     78  CB       -31.4790   33.6290  -36.1850 C.3    94  ARG94       0.0307
     79  CG       -32.0670   32.4030  -36.7860 C.3    94  ARG94       0.0489
     80  CD       -32.1690   32.6250  -38.2830 C.3    94  ARG94       0.2205
     81  NE       -31.0930   33.4390  -38.8460 N.pl3  94  ARG94      -0.0865
     82  CZ       -30.4490   33.1690  -39.9640 C.cat  94  ARG94       0.5346
     83  NH1      -30.8000   32.0990  -40.6830 N.pl3  94  ARG94       0.1354
     84  NH2      -29.4680   33.9700  -40.3650 N.pl3  94  ARG94       0.1354
     85  N        -36.2420   31.0020  -37.1760 N.3    97  ASP97      -0.1225
     86  CA       -36.1220   30.6980  -38.5820 C.3    97  ASP97       0.1805
     87  C        -37.2990   29.8130  -39.0050 C.2    97  ASP97       0.2598
     88  O        -37.5250   28.7760  -38.3900 O.2    97  ASP97      -0.2718
     89  CB       -34.7510   30.0200  -38.8510 C.3    97  ASP97       0.1424
     90  CG       -34.5280   29.7200  -40.3070 C.2    97  ASP97       0.3668
     91  OD1      -34.7170   30.6380  -41.1610 O.co2  97  ASP97      -0.2456
     92  OD2      -34.2110   28.5560  -40.6170 O.co2  97  ASP97      -0.2456
     93  N        -38.0760   30.2760  -40.0010 N.am   98  LEU98      -0.1966
     94  CA       -39.2430   29.5670  -40.4790 C.3    98  LEU98       0.1728
     95  C        -39.0010   29.2720  -41.9640 C.2    98  LEU98       0.2616
     96  O        -39.0240   30.1870  -42.8000 O.2    98  LEU98      -0.2715
     97  CB       -40.5360   30.4040  -40.3180 C.3    98  LEU98       0.0311
     98  CG       -40.9190   30.7890  -38.8910 C.3    98  LEU98       0.0022
     99  CD1      -42.1090   31.7540  -38.8930 C.3    98  LEU98       0.0001
    100  CD2      -41.1870   29.5310  -38.1040 C.3    98  LEU98       0.0001
    101  N        -38.7680   28.0070  -42.2960 N.am   99  ASP99      -0.1957
    102  CA       -38.4590   27.6090  -43.6660 C.3    99  ASP99       0.1840
    103  C        -39.6820   26.8890  -44.1750 C.2    99  ASP99       0.2621
    104  O        -40.1970   26.0000  -43.5190 O.2    99  ASP99      -0.2715
    105  CB       -37.2720   26.6590  -43.7080 C.3    99  ASP99       0.1450
    106  CG       -35.9310   27.3170  -43.4160 C.2    99  ASP99       0.3671
    107  OD1      -35.7800   28.5370  -43.5510 O.co2  99  ASP99      -0.2456
    108  OD2      -34.9860   26.5770  -43.0080 O.co2  99  ASP99      -0.2456
    109  N        -40.1450   27.2590  -45.3600 N.am  100  ILE100     -0.1977
    110  CA       -41.2140   26.5160  -45.9800 C.3   100  ILE100      0.1596
    111  C        -40.5670   25.2970  -46.6330 C.2   100  ILE100      0.2287
    112  O        -39.8390   25.4030  -47.6220 O.2   100  ILE100     -0.2864
    113  CB       -42.0010   27.3690  -46.9840 C.3   100  ILE100      0.0276
    114  CG1      -42.6230   28.5830  -46.2570 C.3   100  ILE100      0.0022
    115  CG2      -43.1110   26.5410  -47.6100 C.3   100  ILE100      0.0022
    116  CD1      -43.1920   29.6510  -47.1800 C.3   100  ILE100      0.0001
    117  N        -37.5180   34.0460  -57.4020 N.3   111  GLU111     -0.1231
    118  CA       -36.4830   34.7720  -56.7110 C.3   111  GLU111      0.1699
    119  C        -36.5980   34.6850  -55.2020 C.2   111  GLU111      0.2592
    120  O        -35.6010   34.5180  -54.5470 O.2   111  GLU111     -0.2718
    121  CB       -36.4270   36.1820  -57.2090 C.3   111  GLU111      0.0402
    122  CG       -35.2120   36.9700  -56.7620 C.3   111  GLU111      0.1161
    123  CD       -33.8780   36.5340  -57.3950 C.2   111  GLU111      0.3649
    124  OE1      -33.8400   35.6360  -58.2670 O.co2 111  GLU111     -0.2457
    125  OE2      -32.8340   37.1070  -57.0180 O.co2 111  GLU111     -0.2457
    126  N        -37.8070   34.7570  -54.6710 N.am  112  ARG112     -0.1966
    127  CA       -37.9880   34.7530  -53.2200 C.3   112  ARG112      0.1729
    128  C        -38.2100   33.3780  -52.6470 C.2   112  ARG112      0.2616
    129  O        -38.0570   33.2170  -51.4440 O.2   112  ARG112     -0.2715
    130  CB       -39.1680   35.6130  -52.8360 C.3   112  ARG112      0.0348
    131  CG       -38.9500   37.0830  -53.0640 C.3   112  ARG112      0.0492
    132  CD       -40.1920   37.8340  -52.6540 C.3   112  ARG112      0.2205
    133  NE       -40.3910   37.8030  -51.1940 N.pl3 112  ARG112     -0.0865
    134  CZ       -41.5560   37.7720  -50.5660 C.cat 112  ARG112      0.5346
    135  NH1      -42.7020   37.6920  -51.2530 N.pl3 112  ARG112      0.1354
    136  NH2      -41.5880   37.7880  -49.2350 N.pl3 112  ARG112      0.1354
    137  N        -38.5720   32.4010  -53.4770 N.am  113  LEU113     -0.1963
    138  CA       -39.0930   31.1420  -52.9420 C.3   113  LEU113      0.1728
    139  C        -38.7130   29.9280  -53.7660 C.2   113  LEU113      0.2617
    140  O        -38.9470   29.8780  -54.9570 O.2   113  LEU113     -0.2715
    141  CB       -40.6080   31.2880  -52.7790 C.3   113  LEU113      0.0311
    142  CG       -41.3400   30.2330  -52.0340 C.3   113  LEU113      0.0022
    143  CD1      -40.8140   30.0270  -50.6050 C.3   113  LEU113      0.0001
    144  CD2      -42.8370   30.5510  -51.9940 C.3   113  LEU113      0.0001
    145  N        -38.0700   28.9720  -53.1040 N.am  114  THR114     -0.1937
    146  CA       -37.6960   27.6960  -53.6650 C.3   114  THR114      0.2028
    147  C        -38.3070   26.6170  -52.7790 C.2   114  THR114      0.2642
    148  O        -38.0040   26.5340  -51.5780 O.2   114  THR114     -0.2714
    149  CB       -36.1700   27.5470  -53.7810 C.3   114  THR114      0.1808
    150  OG1      -35.6610   28.5470  -54.6720 O.3   114  THR114     -0.2208
    151  CG2      -35.7970   26.1650  -54.2810 C.3   114  THR114      0.0379
    152  N        -39.2450   25.8660  -53.3620 N.am  115  VAL115     -0.1977
    153  CA       -39.9660   24.7790  -52.7050 C.3   115  VAL115      0.1596
    154  C        -40.0100   23.5960  -53.6810 C.2   115  VAL115      0.2287
    155  O        -40.2710   23.8010  -54.8660 O.2   115  VAL115     -0.2864
    156  CB       -41.4030   25.2120  -52.3400 C.3   115  VAL115      0.0276
    157  CG1      -42.2260   24.0660  -51.7700 C.3   115  VAL115      0.0022
    158  CG2      -41.3930   26.3770  -51.3400 C.3   115  VAL115      0.0022
    159  N        -37.8940   22.8450  -50.1280 N.3   117  HIS117     -0.1226
    160  CA       -36.6940   23.4120  -49.6100 C.3   117  HIS117      0.1752
    161  C        -35.4770   22.6940  -50.2200 C.2   117  HIS117      0.2596
    162  O        -35.4240   21.4640  -50.2380 O.2   117  HIS117     -0.2718
    163  CB       -36.6820   23.3880  -48.0890 C.3   117  HIS117      0.0759
    164  CG       -35.4890   24.0450  -47.5000 C.ar  117  HIS117      0.0818
    165  ND1      -34.2650   23.4220  -47.4300 N.ar  117  HIS117     -0.2268
    166  CD2      -35.3210   25.2760  -46.9590 C.ar  117  HIS117      0.1154
    167  CE1      -33.3820   24.2610  -46.9150 C.ar  117  HIS117      0.1986
    168  NE2      -34.0120   25.3780  -46.5850 N.ar  117  HIS117     -0.2212
    169  N        -34.5300   23.4680  -50.7280 N.am  118  TYR118     -0.1976
    170  CA       -33.4160   22.9190  -51.5600 C.3   118  TYR118      0.1639
    171  C        -32.5640   21.8420  -50.9210 C.2   118  TYR118      0.2290
    172  O        -31.9660   21.0320  -51.6200 O.2   118  TYR118     -0.2864
    173  CB       -32.4960   24.0220  -52.0770 C.3   118  TYR118      0.0560
    174  CG       -31.5360   24.5380  -51.0420 C.ar  118  TYR118     -0.0198
    175  CD1      -31.9920   25.3490  -50.0060 C.ar  118  TYR118     -0.0009
    176  CD2      -30.1730   24.1810  -51.0660 C.ar  118  TYR118     -0.0009
    177  CE1      -31.1200   25.8400  -49.0450 C.ar  118  TYR118      0.0417
    178  CE2      -29.2890   24.6730  -50.0930 C.ar  118  TYR118      0.0417
    179  CZ       -29.7680   25.4850  -49.0910 C.ar  118  TYR118      0.1957
    180  OH       -28.9510   25.9680  -48.1090 O.3   118  TYR118     -0.2866
    181  N        -31.2190   16.8690  -44.4170 N.3   123  ARG123     -0.1245
    182  CA       -31.2560   17.3690  -43.0440 C.3   123  ARG123      0.1563
    183  C        -32.1400   16.5590  -42.0970 C.2   123  ARG123      0.2260
    184  O        -33.3740   16.6570  -42.1490 O.2   123  ARG123     -0.2867
    185  CB       -31.7460   18.8170  -43.0700 C.3   123  ARG123      0.0307
    186  CG       -30.7890   19.7570  -43.7580 C.3   123  ARG123      0.0489
    187  CD       -31.3650   21.1580  -43.8000 C.3   123  ARG123      0.2205
    188  NE       -30.4640   22.0500  -44.5390 N.pl3 123  ARG123     -0.0865
    189  CZ       -30.5900   23.3800  -44.5970 C.cat 123  ARG123      0.5346
    190  NH1      -31.5470   24.0050  -43.9510 N.pl3 123  ARG123      0.1354
    191  NH2      -29.7600   24.0800  -45.3600 N.pl3 123  ARG123      0.1354
@<TRIPOS>BOND
     1   124   123   ar
     2   117   118    1
     3   123   125   ar
     4   123   122    1
     5   121   122    1
     6   121   118    1
     7   118   119    1
     8   119   126   am
     9   119   120    2
    10   140   139    2
    11   155   154    2
    12   150   149    1
    13   126   127    1
    14   151   149    1
    15   149   146    1
    16   139   145   am
    17   139   138    1
    18   154   153    1
    19   146   145    1
    20   146   147    1
    21   137   138    1
    22   137   128   am
    23   152   147   am
    24   152   153    1
    25   127   130    1
    26   127   128    1
    27   131   130    1
    28   131   132    1
    29   138   141    1
    30   141   142    1
    31   147   148    2
    32   153   156    1
    33   132   133    1
    34   128   129    2
    35   156   157    1
    36   156   158    1
    37   173   170    1
    38   173   174    1
    39   142   144    1
    40   142   143    1
    41   172   171    2
    42   170   171    1
    43   170   169    1
    44   135   134    1
    45   133   134    2
    46   176   174   ar
    47   176   178   ar
    48   174   175   ar
    49   169   161   am
    50   134   136    1
    51   162   161    2
    52   161   160    1
    53   159   160    1
    54   178   179   ar
    55   175   177   ar
    56   160   163    1
    57     8     6    1
    58   179   177   ar
    59   179   180    1
    60     5     6    1
    61     5     2    1
    62     6     7    1
    63   163   164    1
    64   112   111    2
    65   115   113    1
    66   164   165   ar
    67   164   166   ar
    68   165   167   ar
    69     1     2    1
    70    58    57    1
    71   116   114    1
    72     2     3    1
    73    17    15   am
    74   113   114    1
    75   113   110    1
    76   166   168   ar
    77   167   168   ar
    78    57    59    1
    79    57    56    2
    80    16    15    2
    81    55    56    1
    82    55    54    1
    83   111   110    1
    84     3     4    2
    85    73    72   ar
    86    73    71   ar
    87    15    14    1
    88   110   109    1
    89    72    70   ar
    90    71    69   ar
    91   191   189    1
    92   109   103   am
    93    54    53    1
    94    14    13    1
    95    70    67   ar
    96    69    67   ar
    97    69    68   ar
    98   189   188    2
    99   189   190    1
   100   188   187    1
   101   181   182    1
   102    67    65   ar
   103    53    50    1
   104   103   102    1
   105   103   104    2
   106    13    10    1
   107    68    66   ar
   108    48    46    1
   109   187   186    1
   110   186   185    1
   111   105   102    1
   112   105   106    1
   113   102   101    1
   114    46    45    2
   115    46    47    1
   116   107   106   ar
   117   106   108   ar
   118    45    44    1
   119    65    66   ar
   120    65    64    1
   121    52    51    2
   122   185   182    1
   123   182   183    1
   124    44    43    1
   125     9    10    1
   126    50    51    1
   127    50    49    1
   128    51    60   am
   129    10    11    1
   130    96    95    2
   131    43    42    1
   132    64    61    1
   133    60    61    1
   134   101    95   am
   135   184   183    2
   136    95    94    1
   137    11    12    2
   138    37    35    1
   139    25    24   ar
   140    61    62    1
   141    42    39    1
   142    91    90   ar
   143    26    24   ar
   144    24    23    1
   145    35    36    1
   146    35    34    2
   147    83    82    1
   148    92    90   ar
   149    94    97    1
   150    94    93    1
   151    84    82    1
   152    97    98    1
   153    62    63    2
   154    90    89    1
   155    39    40    1
   156    39    38    1
   157    34    33    1
   158    93    87   am
   159    82    81    2
   160    40    41    2
   161    23    22    1
   162    22    19    1
   163    87    86    1
   164    87    88    2
   165    33    32    1
   166    99    98    1
   167    98   100    1
   168    89    86    1
   169    81    80    1
   170    86    85    1
   171    80    79    1
   172    18    19    1
   173    32    31    1
   174    19    20    1
   175    20    21    2
   176    30    29    2
   177    31    28    1
   178    79    78    1
   179    29    28    1
   180    78    75    1
   181    28    27    1
   182    75    74    1
   183    75    76    1
   184    76    77    2
