@<TRIPOS>MOLECULE
tmp/5etnA01.pdb
 129 124 0 0 0
SMALL
GASTEIGER

@<TRIPOS>ATOM
      1  N         -1.9100   -8.9510   -0.3420 N.3     9  GLY9       -0.1225
      2  CA        -1.8090   -8.3990    1.0030 C.3     9  GLY9        0.1811
      3  C         -3.1300   -8.7300    1.7800 C.2     9  GLY9        0.2280
      4  O         -4.2570   -8.8020    1.2080 O.2     9  GLY9       -0.2866
      5  N          4.7170   -7.2970    7.3670 N.3    43  THR43      -0.1204
      6  CA         5.1470   -5.9900    7.0710 C.3    43  THR43       0.1979
      7  C          4.3860   -4.8910    7.7690 C.2    43  THR43       0.2460
      8  O          3.1570   -4.9400    7.8760 O.2    43  THR43      -0.2732
      9  CB         5.1450   -5.7160    5.5180 C.3    43  THR43       0.1783
     10  OG1        3.7810   -5.8160    5.0730 O.3    43  THR43      -0.2211
     11  CG2        6.0190   -6.7170    4.7730 C.3    43  THR43       0.0376
     12  N          5.0870   -3.8980    8.2560 N.am   44  PRO44      -0.2718
     13  CA         4.3930   -2.7930    8.9440 C.3    44  PRO44       0.1520
     14  C          3.6250   -1.8860    7.9780 C.2    44  PRO44       0.2440
     15  O          4.0420   -1.7810    6.8490 O.2    44  PRO44      -0.2731
     16  CB         5.5330   -1.9680    9.5720 C.3    44  PRO44       0.0310
     17  CG         6.7330   -2.2010    8.7070 C.3    44  PRO44       0.0237
     18  CD         6.5710   -3.6680    8.2850 C.3    44  PRO44       0.0939
     19  N          2.4280   -1.4260    8.3560 N.am   45  PRO45      -0.2716
     20  CA         1.5780   -0.7960    7.3780 C.3    45  PRO45       0.1536
     21  C          2.1660    0.5190    6.8650 C.2    45  PRO45       0.2598
     22  O          2.6880    1.2550    7.6590 O.2    45  PRO45      -0.2715
     23  CB         0.2590   -0.5700    8.1290 C.3    45  PRO45       0.0310
     24  CG         0.7030   -0.4630    9.5680 C.3    45  PRO45       0.0237
     25  CD         1.7920   -1.4560    9.6840 C.3    45  PRO45       0.0939
     26  N          2.1250    0.7810    5.5430 N.am   46  LEU46      -0.1964
     27  CA         2.5110    2.0210    5.0050 C.3    46  LEU46       0.1728
     28  C          1.2680    2.7610    4.6800 C.2    46  LEU46       0.2616
     29  O          0.1610    2.1500    4.3490 O.2    46  LEU46      -0.2715
     30  CB         3.3430    1.8070    3.7820 C.3    46  LEU46       0.0311
     31  CG         4.6680    1.0550    4.0840 C.3    46  LEU46       0.0022
     32  CD1        5.6060    1.2120    2.9110 C.3    46  LEU46       0.0001
     33  CD2        5.4380    1.4010    5.3590 C.3    46  LEU46       0.0001
     34  N          1.3570    4.0880    4.7640 N.am   47  GLY47      -0.1955
     35  CA         0.1510    4.9140    4.6300 C.3    47  GLY47       0.1869
     36  C         -0.4190    5.1300    6.0230 C.2    47  GLY47       0.2309
     37  O          0.3750    5.4340    6.9500 O.2    47  GLY47      -0.2863
     38  N         -3.3530    0.3410   11.9980 N.3    51  GLN51      -0.1301
     39  CA        -3.9750   -0.8960   11.4860 C.3    51  GLN51       0.1252
     40  C         -2.9550   -2.0040   11.7340 C.3    51  GLN51       0.2009
     41  O         -1.7160   -1.7440   11.9920 O.3    51  GLN51      -0.2188
     42  CB        -4.2640   -0.7830    9.9760 C.3    51  GLN51       0.0314
     43  CG        -3.1190   -0.3800    9.0280 C.3    51  GLN51       0.0901
     44  CD        -3.6610   -0.2600    7.6040 C.2    51  GLN51       0.2608
     45  OE1       -4.4910   -1.0070    7.1800 O.2    51  GLN51      -0.2717
     46  NE2       -3.2150    0.7700    6.8840 N.am   51  GLN51      -0.0878
     47  N          0.5480   -6.2860    7.8460 N.3    54  TYR54      -0.1241
     48  CA         0.1730   -7.0120    6.6560 C.3    54  TYR54       0.1605
     49  C          0.9330   -8.3230    6.5650 C.2    54  TYR54       0.2264
     50  O          2.1120   -8.3880    6.8520 O.2    54  TYR54      -0.2867
     51  CB         0.4080   -6.1330    5.3860 C.3    54  TYR54       0.0534
     52  CG        -0.6660   -5.1700    5.1040 C.ar   54  TYR54      -0.0201
     53  CD1       -0.7600   -3.9970    5.7330 C.ar   54  TYR54      -0.0009
     54  CD2       -1.7480   -5.5440    4.2780 C.ar   54  TYR54      -0.0009
     55  CE1       -1.7850   -3.0600    5.4610 C.ar   54  TYR54       0.0417
     56  CE2       -2.8500   -4.6970    4.0600 C.ar   54  TYR54       0.0417
     57  CZ        -2.8630   -3.4350    4.6490 C.ar   54  TYR54       0.1957
     58  OH        -3.9200   -2.6290    4.4210 O.3    54  TYR54      -0.2866
     59  N          2.2420   -9.9490    3.2970 N.3    56  ASN56      -0.1240
     60  CA         2.4270   -9.6270    1.8950 C.3    56  ASN56       0.1653
     61  C          3.1210  -10.8230    1.1720 C.2    56  ASN56       0.2266
     62  O          4.0290  -11.4970    1.7480 O.2    56  ASN56      -0.2867
     63  CB         3.2650   -8.3400    1.6730 C.3    56  ASN56       0.1155
     64  CG         2.4690   -7.0630    1.8940 C.2    56  ASN56       0.2627
     65  OD1        2.7830   -6.2670    2.7030 O.2    56  ASN56      -0.2716
     66  ND2        1.4130   -6.8860    1.0760 N.am   56  ASN56      -0.0877
     67  N         -7.0150    3.7090    1.8290 N.3    90  TRP90      -0.1241
     68  CA        -5.9230    2.7880    2.2910 C.3    90  TRP90       0.1605
     69  C         -6.0990    2.1480    3.7000 C.2    90  TRP90       0.2264
     70  O         -5.1530    1.9000    4.4310 O.2    90  TRP90      -0.2867
     71  CB        -4.5700    3.5270    2.2080 C.3    90  TRP90       0.0550
     72  CG        -4.0720    3.8590    0.8540 C.ar   90  TRP90       0.0003
     73  CD1       -4.0990    3.0830   -0.1980 C.ar   90  TRP90       0.0946
     74  CD2       -3.3560    5.0160    0.4710 C.ar   90  TRP90       0.0152
     75  NE1       -3.4780    3.6480   -1.2540 N.ar   90  TRP90      -0.2442
     76  CE2       -3.0140    4.8640   -0.8660 C.ar   90  TRP90       0.0810
     77  CE3       -2.9340    6.1400    1.1440 C.ar   90  TRP90       0.0012
     78  CZ2       -2.3550    5.8240   -1.5860 C.ar   90  TRP90       0.0191
     79  CZ3       -2.3230    7.1350    0.4060 C.ar   90  TRP90       0.0001
     80  CH2       -1.9740    6.9170   -0.9290 C.ar   90  TRP90       0.0015
     81  N         -7.8110   -4.4180    5.1030 N.3    93  ARG93      -0.1245
     82  CA        -8.6050   -5.3050    4.3170 C.3    93  ARG93       0.1563
     83  C         -8.2440   -6.7470    4.5180 C.2    93  ARG93       0.2260
     84  O         -7.1700   -7.1320    4.8130 O.2    93  ARG93      -0.2867
     85  CB        -8.5770   -4.9220    2.8350 C.3    93  ARG93       0.0307
     86  CG        -7.3170   -5.2740    2.0880 C.3    93  ARG93       0.0489
     87  CD        -6.0720   -4.4360    2.3920 C.3    93  ARG93       0.2205
     88  NE        -6.3420   -2.9970    2.2360 N.pl3  93  ARG93      -0.0865
     89  CZ        -6.0670   -2.1910    1.2100 C.cat  93  ARG93       0.5346
     90  NH1       -6.5020   -0.9300    1.2210 N.pl3  93  ARG93       0.1354
     91  NH2       -5.3850   -2.5900    0.1530 N.pl3  93  ARG93       0.1354
     92  N         -6.2110   -8.1060   -0.6040 N.3    96  ASP96      -0.1239
     93  CA        -5.9110   -7.2330   -1.6960 C.3    96  ASP96       0.1674
     94  C         -5.0500   -7.9490   -2.7040 C.2    96  ASP96       0.2266
     95  O         -3.9760   -8.4940   -2.3300 O.2    96  ASP96      -0.2867
     96  CB        -5.2160   -6.0210   -1.1270 C.3    96  ASP96       0.1410
     97  CG        -4.9870   -4.8520   -2.1070 C.2    96  ASP96       0.3668
     98  OD1       -5.9910   -4.5460   -2.7760 O.co2  96  ASP96      -0.2456
     99  OD2       -3.7620   -4.3610   -2.1750 O.co2  96  ASP96      -0.2456
    100  N          2.7750    2.3420   -8.3820 N.3   118  ASP118     -0.1239
    101  CA         3.7490    2.6470   -7.3550 C.3   118  ASP118      0.1674
    102  C          4.5650    1.4360   -6.9440 C.2   118  ASP118      0.2266
    103  O          5.2700    1.4960   -5.9390 O.2   118  ASP118     -0.2867
    104  CB         3.0060    3.2040   -6.1310 C.3   118  ASP118      0.1410
    105  CG         3.9230    3.8970   -5.1360 C.2   118  ASP118      0.3668
    106  OD1        4.7370    4.7420   -5.5500 O.co2 118  ASP118     -0.2456
    107  OD2        3.8110    3.6070   -3.9290 O.co2 118  ASP118     -0.2456
    108  N          7.8270    0.3400   -3.4950 N.3   122  ARG122     -0.1245
    109  CA         7.3340   -0.4540   -2.3770 C.3   122  ARG122      0.1563
    110  C          8.1060   -1.7360   -2.1090 C.2   122  ARG122      0.2260
    111  O          8.0000   -2.6720   -2.8830 O.2   122  ARG122     -0.2867
    112  CB         5.8450   -0.7990   -2.6040 C.3   122  ARG122      0.0307
    113  CG         4.9490    0.4280   -2.8240 C.3   122  ARG122      0.0489
    114  CD         3.5400    0.0120   -3.1440 C.3   122  ARG122      0.2205
    115  NE         2.6160    1.1610   -3.2340 N.pl3 122  ARG122     -0.0865
    116  CZ         1.3110    1.0710   -3.2510 C.cat 122  ARG122      0.5346
    117  NH1        0.7150   -0.0940   -3.2320 N.pl3 122  ARG122      0.1354
    118  NH2        0.6190    2.1860   -3.3330 N.pl3 122  ARG122      0.1354
    119  N          7.4900   -4.0600   -0.0080 N.3   124  PHE124     -0.1241
    120  CA         6.6530   -5.1580    0.2400 C.3   124  PHE124      0.1605
    121  C          6.1130   -5.7220   -0.9850 C.2   124  PHE124      0.2264
    122  O          5.5520   -6.8360   -0.9460 O.2   124  PHE124     -0.2867
    123  CB         5.5320   -4.8420    1.2680 C.3   124  PHE124      0.0534
    124  CG         4.5180   -3.7990    0.7950 C.ar  124  PHE124     -0.0203
    125  CD1        3.5780   -4.1300   -0.0970 C.ar  124  PHE124     -0.0042
    126  CD2        4.6200   -2.4360    1.1480 C.ar  124  PHE124     -0.0042
    127  CE1        2.6720   -3.1660   -0.5800 C.ar  124  PHE124     -0.0003
    128  CE2        3.6940   -1.5560    0.7370 C.ar  124  PHE124     -0.0003
    129  CZ         2.7610   -1.8810   -0.1800 C.ar  124  PHE124     -0.0000
@<TRIPOS>BOND
     1   100   101    1
     2   101   102    1
     3   101   104    1
     4   102   103    2
     5   104   105    1
     6   106   105   ar
     7   105   107   ar
     8   108   109    1
     9   118   116    1
    10   116   115    2
    11   116   117    1
    12   115   114    1
    13   114   113    1
    14   111   110    2
    15   113   112    1
    16    98    97   ar
    17    94    95    2
    18    94    93    1
    19   112   109    1
    20   109   110    1
    21    99    97   ar
    22    97    96    1
    23    93    96    1
    24    93    92    1
    25    78    80   ar
    26    78    76   ar
    27    75    76   ar
    28    75    73   ar
    29   121   122    2
    30   121   120    1
    31    80    79   ar
    32    76    74   ar
    33   127   129   ar
    34   127   125   ar
    35     1     2    1
    36    73    72   ar
    37   129   128   ar
    38   125   124   ar
    39   119   120    1
    40    91    89    1
    41   120   123    1
    42    79    77   ar
    43    74    72   ar
    44    74    77   ar
    45   128   126   ar
    46   124   126   ar
    47   124   123    1
    48    72    71    1
    49     2     3    1
    50    66    64   am
    51    61    62    2
    52    61    60    1
    53     4     3    2
    54    89    90    1
    55    89    88    2
    56    63    64    1
    57    63    60    1
    58    67    68    1
    59    64    65    2
    60    60    59    1
    61    86    87    1
    62    86    85    1
    63    71    68    1
    64    88    87    1
    65    68    69    1
    66    85    82    1
    67    32    31    1
    68    69    70    2
    69    30    31    1
    70    30    27    1
    71    56    54   ar
    72    56    57   ar
    73    31    33    1
    74    54    52   ar
    75    82    83    1
    76    82    81    1
    77    29    28    2
    78    58    57    1
    79    83    84    2
    80    35    34    1
    81    35    36    1
    82    57    55   ar
    83    28    34   am
    84    28    27    1
    85    11     9    1
    86    27    26    1
    87    10     9    1
    88    52    51    1
    89    52    53   ar
    90    51    48    1
    91    55    53   ar
    92     9     6    1
    93    26    21   am
    94    36    37    2
    95    49    48    1
    96    49    50    2
    97    48    47    1
    98    15    14    2
    99    21    20    1
   100    21    22    2
   101    46    44   am
   102     6     5    1
   103     6     7    1
   104    45    44    2
   105    20    23    1
   106    20    19    1
   107    44    43    1
   108     7     8    2
   109     7    12   am
   110    14    19   am
   111    14    13    1
   112    23    24    1
   113    12    18    1
   114    12    13    1
   115    18    17    1
   116    19    25    1
   117    17    16    1
   118    13    16    1
   119    43    42    1
   120    24    25    1
   121    42    39    1
   122    39    40    1
   123    39    38    1
   124    40    41    1
