@<TRIPOS>MOLECULE
tmp/5etrB01.pdb
 148 145 0 0 0
SMALL
GASTEIGER

@<TRIPOS>ATOM
      1  N         28.8220   -4.3390    2.9530 N.3     9  GLY9       -0.1225
      2  CA        27.5470   -3.7040    3.0910 C.3     9  GLY9        0.1811
      3  C         26.6910   -4.3750    4.1320 C.2     9  GLY9        0.2280
      4  O         26.7880   -5.5730    4.3390 O.2     9  GLY9       -0.2866
      5  N         22.3960   -3.8000    5.6550 N.3    11  ASN11      -0.1240
      6  CA        21.2050   -2.9750    5.7510 C.3    11  ASN11       0.1653
      7  C         20.1330   -3.5650    6.6630 C.2    11  ASN11       0.2266
      8  O         18.9560   -3.2130    6.5350 O.2    11  ASN11      -0.2867
      9  CB        20.6290   -2.5670    4.3910 C.3    11  ASN11       0.1155
     10  CG        19.9750   -3.6940    3.6200 C.2    11  ASN11       0.2627
     11  OD1       20.3540   -4.8560    3.7320 O.2    11  ASN11      -0.2716
     12  ND2       19.0690   -3.3050    2.7220 N.am   11  ASN11      -0.0877
     13  N         24.0320    4.7530    2.4430 N.3    43  THR43      -0.1203
     14  CA        23.7980    4.7590    1.0270 C.3    43  THR43       0.1994
     15  C         22.3940    4.2600    0.7170 C.2    43  THR43       0.2618
     16  O         21.8810    3.3160    1.3210 O.2    43  THR43      -0.2717
     17  CB        24.8850    3.9510    0.2730 C.3    43  THR43       0.1784
     18  OG1       24.6840    2.5590    0.5440 O.3    43  THR43      -0.2211
     19  CG2       26.2490    4.3690    0.6470 C.3    43  THR43       0.0376
     20  N         21.7520    4.9080   -0.2600 N.am   44  ALA44      -0.1966
     21  CA        20.4360    4.4550   -0.7030 C.3    44  ALA44       0.1713
     22  C         20.6090    3.1700   -1.5200 C.2    44  ALA44       0.2458
     23  O         21.5230    3.0610   -2.3230 O.2    44  ALA44      -0.2730
     24  CB        19.7710    5.4850   -1.5790 C.3    44  ALA44       0.0333
     25  N         19.7000    2.2260   -1.3500 N.am   45  PRO45      -0.2716
     26  CA        19.7690    0.9860   -2.1400 C.3    45  PRO45       0.1536
     27  C         19.6310    1.2770   -3.6260 C.2    45  PRO45       0.2598
     28  O         18.8050    2.1230   -4.0320 O.2    45  PRO45      -0.2715
     29  CB        18.5680    0.1860   -1.6690 C.3    45  PRO45       0.0310
     30  CG        18.3360    0.7060   -0.2830 C.3    45  PRO45       0.0237
     31  CD        18.6260    2.1580   -0.3290 C.3    45  PRO45       0.0939
     32  N         20.4100    0.5670   -4.4320 N.am   46  VAL46      -0.1964
     33  CA        20.2730    0.6610   -5.8650 C.3    46  VAL46       0.1727
     34  C         19.9520   -0.7120   -6.4040 C.2    46  VAL46       0.2617
     35  O         20.3320   -1.7660   -5.8710 O.2    46  VAL46      -0.2715
     36  CB        21.5170    1.2510   -6.5510 C.3    46  VAL46       0.0290
     37  CG1       21.7510    2.6790   -6.0960 C.3    46  VAL46       0.0023
     38  CG2       22.7590    0.4270   -6.3510 C.3    46  VAL46       0.0023
     39  N         19.2980   -0.7090   -7.5690 N.am   47  GLY47      -0.1940
     40  CA        19.0750   -1.9050   -8.3600 C.3    47  GLY47       0.2014
     41  C         17.8870   -2.7820   -7.9830 C.2    47  GLY47       0.2638
     42  O         17.7480   -3.8840   -8.5020 O.2    47  GLY47      -0.2714
     43  N         17.0250   -2.3170   -7.0940 N.am   48  TYR48      -0.1973
     44  CA        15.9630   -3.1840   -6.6000 C.3    48  TYR48       0.1639
     45  C         14.7290   -2.3610   -6.1910 C.2    48  TYR48       0.2290
     46  O         14.4660   -1.3020   -6.7830 O.2    48  TYR48      -0.2864
     47  CB        16.5180   -4.0790   -5.5100 C.3    48  TYR48       0.0560
     48  CG        15.7390   -5.3150   -5.1590 C.ar   48  TYR48      -0.0198
     49  CD1       15.1940   -6.1710   -6.1450 C.ar   48  TYR48      -0.0009
     50  CD2       15.5150   -5.6420   -3.8420 C.ar   48  TYR48      -0.0009
     51  CE1       14.5000   -7.2910   -5.8070 C.ar   48  TYR48       0.0417
     52  CE2       14.8210   -6.7610   -3.4830 C.ar   48  TYR48       0.0417
     53  CZ        14.3250   -7.6010   -4.4640 C.ar   48  TYR48       0.1957
     54  OH        13.6840   -8.7320   -4.1560 O.3    48  TYR48      -0.2866
     55  N         14.1400   -0.4290   -0.1010 N.3    51  GLN51      -0.1245
     56  CA        14.7240   -1.2880    0.9360 C.3    51  GLN51       0.1566
     57  C         15.3350   -0.3660    1.9850 C.2    51  GLN51       0.2260
     58  O         15.5880    0.7920    1.7040 O.2    51  GLN51      -0.2867
     59  CB        15.7870   -2.2110    0.3610 C.3    51  GLN51       0.0367
     60  CG        15.2520   -3.2510   -0.5850 C.3    51  GLN51       0.0905
     61  CD        14.4120   -4.3200    0.0830 C.2    51  GLN51       0.2608
     62  OE1       14.4920   -4.5200    1.2690 O.2    51  GLN51      -0.2717
     63  NE2       13.5350   -4.9570   -0.6770 N.am   51  GLN51      -0.0878
     64  N         21.6120    1.1950    3.4100 N.3    54  PHE54      -0.1241
     65  CA        22.8520    0.4720    3.7030 C.3    54  PHE54       0.1605
     66  C         23.8360    1.3580    4.4450 C.2    54  PHE54       0.2264
     67  O         23.8210    2.5350    4.3300 O.2    54  PHE54      -0.2867
     68  CB        23.5560    0.0690    2.4030 C.3    54  PHE54       0.0534
     69  CG        22.9380   -1.1090    1.6920 C.ar   54  PHE54      -0.0203
     70  CD1       21.9230   -0.9160    0.7690 C.ar   54  PHE54      -0.0042
     71  CD2       23.4030   -2.3750    1.9080 C.ar   54  PHE54      -0.0042
     72  CE1       21.3810   -1.9970    0.0830 C.ar   54  PHE54      -0.0003
     73  CE2       22.8460   -3.4500    1.2510 C.ar   54  PHE54      -0.0003
     74  CZ        21.8320   -3.2550    0.3470 C.ar   54  PHE54      -0.0000
     75  N         27.8500    1.1500    3.8860 N.3    56  ASN56      -0.1240
     76  CA        28.8520    0.5540    3.0180 C.3    56  ASN56       0.1653
     77  C         30.2370    1.1040    3.3380 C.2    56  ASN56       0.2266
     78  O         30.3960    2.2790    3.7030 O.2    56  ASN56      -0.2867
     79  CB        28.5380    0.8740    1.5290 C.3    56  ASN56       0.1155
     80  CG        27.4430    0.0120    0.9010 C.2    56  ASN56       0.2627
     81  OD1       26.3890    0.5030    0.5190 O.2    56  ASN56      -0.2716
     82  ND2       27.7050   -1.2520    0.7510 N.am   56  ASN56      -0.0877
     83  N         15.6100  -11.4670   -3.3480 N.3    89  TRP89      -0.1227
     84  CA        16.5940  -10.6730   -2.6460 C.3    89  TRP89       0.1737
     85  C         15.9070   -9.8300   -1.5960 C.2    89  TRP89       0.2596
     86  O         14.7440   -9.4040   -1.6960 O.2    89  TRP89      -0.2718
     87  CB        17.2860   -9.7040   -3.5920 C.3    89  TRP89       0.0564
     88  CG        17.8770  -10.2950   -4.7890 C.ar   89  TRP89       0.0003
     89  CD1       18.3500  -11.5590   -4.9680 C.ar   89  TRP89       0.0946
     90  CD2       18.1380   -9.5960   -6.0150 C.ar   89  TRP89       0.0152
     91  NE1       18.8710  -11.6990   -6.2190 N.ar   89  TRP89      -0.2442
     92  CE2       18.7760  -10.4980   -6.8790 C.ar   89  TRP89       0.0810
     93  CE3       17.9460   -8.2740   -6.4350 C.ar   89  TRP89       0.0012
     94  CZ2       19.1340  -10.1260   -8.1930 C.ar   89  TRP89       0.0191
     95  CZ3       18.3040   -7.9030   -7.7040 C.ar   89  TRP89       0.0001
     96  CH2       18.9240   -8.8210   -8.5480 C.ar   89  TRP89       0.0015
     97  N         16.6680   -9.5230   -0.5650 N.am   90  GLY90      -0.1943
     98  CA        16.1970   -8.6720    0.5000 C.3    90  GLY90       0.1998
     99  C         17.3300   -8.1480    1.3510 C.2    90  GLY90       0.2481
    100  O         18.5160   -8.2770    1.0060 O.2    90  GLY90      -0.2729
    101  N         16.9910   -7.5590    2.4750 N.am   91  PRO91      -0.2715
    102  CA        18.0360   -6.9870    3.3560 C.3    91  PRO91       0.1536
    103  C         18.9920   -8.0720    3.8390 C.2    91  PRO91       0.2598
    104  O         18.6320   -9.2210    3.9850 O.2    91  PRO91      -0.2715
    105  CB        17.2070   -6.4050    4.5380 C.3    91  PRO91       0.0310
    106  CG        15.8620   -6.0800    3.9360 C.3    91  PRO91       0.0237
    107  CD        15.6400   -7.2370    2.9670 C.3    91  PRO91       0.0939
    108  N         20.2300   -7.6560    4.0770 N.am   92  ARG92      -0.1978
    109  CA        21.2550   -8.5620    4.5340 C.3    92  ARG92       0.1597
    110  C         22.0840   -7.9750    5.6660 C.2    92  ARG92       0.2287
    111  O         22.4360   -6.7870    5.6580 O.2    92  ARG92      -0.2864
    112  CB        22.1130   -9.0410    3.4090 C.3    92  ARG92       0.0334
    113  CG        22.9880   -8.0470    2.7250 C.3    92  ARG92       0.0492
    114  CD        22.3120   -7.0350    1.8160 C.3    92  ARG92       0.2205
    115  NE        21.4420   -7.7340    0.8400 N.pl3  92  ARG92      -0.0865
    116  CZ        21.8720   -8.2290   -0.3260 C.cat  92  ARG92       0.5346
    117  NH1       23.0450   -7.8730   -0.8250 N.pl3  92  ARG92       0.1354
    118  NH2       21.0820   -9.0440   -1.0280 N.pl3  92  ARG92       0.1354
    119  N         27.2030   -8.2350    3.4510 N.3    95  ASP95      -0.1239
    120  CA        27.6510   -8.6200    2.1060 C.3    95  ASP95       0.1674
    121  C         29.1110   -8.2810    1.9980 C.2    95  ASP95       0.2266
    122  O         29.4990   -7.1500    2.2880 O.2    95  ASP95      -0.2867
    123  CB        26.8160   -7.8200    1.0640 C.3    95  ASP95       0.1410
    124  CG        27.1210   -8.1430   -0.3950 C.2    95  ASP95       0.3668
    125  OD1       27.2830   -9.3590   -0.6550 O.co2  95  ASP95      -0.2456
    126  OD2       27.1750   -7.1810   -1.1990 O.co2  95  ASP95      -0.2456
    127  N         28.9180    2.1570   -9.4090 N.3   121  ARG121     -0.1245
    128  CA        28.3200    2.2110   -8.0600 C.3   121  ARG121      0.1563
    129  C         29.0230    3.2020   -7.1710 C.2   121  ARG121      0.2260
    130  O         30.1620    2.9550   -6.7590 O.2   121  ARG121     -0.2867
    131  CB        28.3930    0.8220   -7.4020 C.3   121  ARG121      0.0307
    132  CG        27.3390   -0.1240   -7.9780 C.3   121  ARG121      0.0489
    133  CD        27.5320   -1.5350   -7.5490 C.3   121  ARG121      0.2205
    134  NE        26.3020   -2.3070   -7.7040 N.pl3 121  ARG121     -0.0865
    135  CZ        26.1220   -3.5200   -7.2080 C.cat 121  ARG121      0.5346
    136  NH1       27.1200   -4.1530   -6.5940 N.pl3 121  ARG121      0.1354
    137  NH2       24.9360   -4.0830   -7.2770 N.pl3 121  ARG121      0.1354
    138  N         28.3100    3.7370   -4.1170 N.3   123  PHE123     -0.1241
    139  CA        28.4860    3.1570   -2.7960 C.3   123  PHE123      0.1605
    140  C         29.7520    2.3160   -2.7140 C.2   123  PHE123      0.2264
    141  O         30.1900    2.0000   -1.6060 O.2   123  PHE123     -0.2867
    142  CB        27.2500    2.3470   -2.3530 C.3   123  PHE123      0.0534
    143  CG        27.0690    0.9940   -3.0200 C.ar  123  PHE123     -0.0203
    144  CD1       27.7760   -0.0960   -2.6000 C.ar  123  PHE123     -0.0042
    145  CD2       26.1020    0.8150   -4.0180 C.ar  123  PHE123     -0.0042
    146  CE1       27.5850   -1.3390   -3.1330 C.ar  123  PHE123     -0.0003
    147  CE2       25.9130   -0.4150   -4.5900 C.ar  123  PHE123     -0.0003
    148  CZ        26.6510   -1.4920   -4.1530 C.ar  123  PHE123     -0.0000
@<TRIPOS>BOND
     1   127   128    1
     2    96    94   ar
     3    96    95   ar
     4    42    41    2
     5    40    41    1
     6    40    39    1
     7    94    92   ar
     8   128   131    1
     9   128   129    1
    10    41    43   am
    11   132   133    1
    12   132   131    1
    13   134   133    1
    14   134   135    2
    15    95    93   ar
    16    39    34   am
    17   137   135    1
    18   135   136    1
    19   129   130    2
    20    43    44    1
    21    92    91   ar
    22    92    90   ar
    23    46    45    2
    24    44    45    1
    25    44    47    1
    26    36    38    1
    27    36    37    1
    28    36    33    1
    29    93    90   ar
    30    34    35    2
    31    34    33    1
    32    91    89   ar
    33    49    51   ar
    34    49    48   ar
    35    90    88   ar
    36    33    32    1
    37    51    53   ar
    38    47    48    1
    39    48    50   ar
    40    89    88   ar
    41    88    87    1
    42   147   148   ar
    43   147   145   ar
    44    53    54    1
    45    53    52   ar
    46    32    27   am
    47   148   146   ar
    48   138   139    1
    49    28    27    2
    50   145   143   ar
    51    50    52   ar
    52    27    26    1
    53    87    84    1
    54    83    84    1
    55   146   144   ar
    56   143   144   ar
    57   143   142    1
    58   139   140    1
    59   139   142    1
    60   140   141    2
    61    84    85    1
    62    23    22    2
    63    26    29    1
    64    26    25    1
    65    86    85    2
    66    29    30    1
    67    85    97   am
    68    24    21    1
    69    22    25   am
    70    22    21    1
    71    25    31    1
    72   126   124   ar
    73   118   116    1
    74   117   116    1
    75    21    20    1
    76    63    61   am
    77   125   124   ar
    78    60    61    1
    79    60    59    1
    80    97    98    1
    81   124   123    1
    82    31    30    1
    83   116   115    2
    84    20    15   am
    85    55    56    1
    86    72    74   ar
    87    72    70   ar
    88    61    62    2
    89    17    18    1
    90    17    19    1
    91    17    14    1
    92    74    73   ar
    93    59    56    1
    94    98    99    1
    95    81    80    2
    96    15    14    1
    97    15    16    2
    98    82    80   am
    99    70    69   ar
   100   115   114    1
   101    80    79    1
   102    56    57    1
   103   100    99    2
   104    14    13    1
   105   123   120    1
   106    73    71   ar
   107    99   101   am
   108    79    76    1
   109    69    71   ar
   110    69    68    1
   111    58    57    2
   112   114   113    1
   113   121   120    1
   114   121   122    2
   115   120   119    1
   116    68    65    1
   117   101   107    1
   118   101   102    1
   119    12    10   am
   120   113   112    1
   121     1     2    1
   122   107   106    1
   123    76    77    1
   124    76    75    1
   125     2     3    1
   126    77    78    2
   127   102   103    1
   128   102   105    1
   129   112   109    1
   130    64    65    1
   131    10    11    2
   132    10     9    1
   133    65    66    1
   134   103   104    2
   135   103   108   am
   136   106   105    1
   137   108   109    1
   138     3     4    2
   139    67    66    2
   140     9     6    1
   141   109   110    1
   142     5     6    1
   143   111   110    2
   144     6     7    1
   145     8     7    2
