@<TRIPOS>MOLECULE
tmp/5ettA00.pdb
 176 169 0 0 0
SMALL
GASTEIGER

@<TRIPOS>ATOM
      1  N         24.1250  -12.1710  -30.0180 N.3    71  LEU71      -0.1245
      2  CA        25.3280  -11.4020  -29.7370 C.3    71  LEU71       0.1561
      3  C         26.1890  -11.2660  -30.9940 C.2    71  LEU71       0.2260
      4  O         26.6360  -10.1350  -31.3380 O.2    71  LEU71      -0.2867
      5  CB        26.1230  -12.0370  -28.6240 C.3    71  LEU71       0.0270
      6  CG        27.4030  -11.2630  -28.3260 C.3    71  LEU71       0.0019
      7  CD1       27.1590   -9.9180  -27.7420 C.3    71  LEU71       0.0001
      8  CD2       28.2270  -12.1600  -27.3680 C.3    71  LEU71       0.0001
      9  N         27.3330   -7.6080  -32.6120 N.3    75  LEU75      -0.1245
     10  CA        28.7330   -7.1980  -32.8170 C.3    75  LEU75       0.1561
     11  C         29.0350   -7.0220  -34.3040 C.2    75  LEU75       0.2260
     12  O         29.7510   -6.0870  -34.6860 O.2    75  LEU75      -0.2867
     13  CB        29.6600   -8.2540  -32.1860 C.3    75  LEU75       0.0270
     14  CG        29.5030   -8.4580  -30.6970 C.3    75  LEU75       0.0019
     15  CD1       30.4890   -9.5320  -30.1890 C.3    75  LEU75       0.0001
     16  CD2       29.5420   -7.1780  -29.8620 C.3    75  LEU75       0.0001
     17  N         27.9730   -3.4880  -35.2170 N.3    78  GLU78      -0.1245
     18  CA        28.9790   -2.5430  -34.8540 C.3    78  GLU78       0.1567
     19  C         30.1440   -2.4660  -35.9010 C.2    78  GLU78       0.2260
     20  O         30.6330   -1.3520  -36.2000 O.2    78  GLU78      -0.2867
     21  CB        29.5780   -2.8810  -33.4840 C.3    78  GLU78       0.0388
     22  CG        28.5960   -2.7040  -32.3400 C.3    78  GLU78       0.1160
     23  CD        29.1770   -3.1970  -31.0380 C.2    78  GLU78       0.3649
     24  OE1       30.2410   -3.8780  -31.0350 O.co2  78  GLU78      -0.2457
     25  OE2       28.5160   -2.9310  -29.9770 O.co2  78  GLU78      -0.2457
     26  N         32.9970    0.6380  -35.9060 N.3    83  ARG83      -0.1245
     27  CA        33.4390    0.9350  -34.5270 C.3    83  ARG83       0.1563
     28  C         34.9280    0.6260  -34.3350 C.2    83  ARG83       0.2260
     29  O         35.3990   -0.4570  -34.7250 O.2    83  ARG83      -0.2867
     30  CB        32.6430    0.1370  -33.6060 C.3    83  ARG83       0.0307
     31  CG        33.1740    0.4370  -32.1650 C.3    83  ARG83       0.0489
     32  CD        32.1940    0.0700  -31.1880 C.3    83  ARG83       0.2205
     33  NE        32.7080    0.0190  -29.8420 N.pl3  83  ARG83      -0.0865
     34  CZ        31.9450   -0.4620  -28.8540 C.cat  83  ARG83       0.5346
     35  NH1       30.6830   -0.7780  -29.0720 N.pl3  83  ARG83       0.1354
     36  NH2       32.4420   -0.5850  -27.6500 N.pl3  83  ARG83       0.1354
     37  N         38.2320   -0.0190  -31.8580 N.3    85  ARG85      -0.1245
     38  CA        38.5250   -0.6160  -30.5600 C.3    85  ARG85       0.1563
     39  C         40.0020   -0.4020  -30.2570 C.2    85  ARG85       0.2260
     40  O         40.8180   -1.1750  -30.6690 O.2    85  ARG85      -0.2867
     41  CB        38.1900   -2.1010  -30.5880 C.3    85  ARG85       0.0307
     42  CG        37.0790   -2.4720  -31.5600 C.3    85  ARG85       0.0489
     43  CD        36.3270   -3.7080  -31.1260 C.3    85  ARG85       0.2205
     44  NE        36.1440   -3.6650  -29.6890 N.pl3  85  ARG85      -0.0865
     45  CZ        34.9830   -3.4410  -29.0880 C.cat  85  ARG85       0.5346
     46  NH1       34.9600   -3.4280  -27.7780 N.pl3  85  ARG85       0.1354
     47  NH2       33.8550   -3.3260  -29.7940 N.pl3  85  ARG85       0.1354
     48  N         32.4410    6.0590  -29.6750 N.3    92  ARG92      -0.1245
     49  CA        32.1320    4.9220  -30.5360 C.3    92  ARG92       0.1563
     50  C         30.9990    5.2820  -31.4740 C.2    92  ARG92       0.2260
     51  O         29.9810    5.9280  -31.0960 O.2    92  ARG92      -0.2867
     52  CB        31.8340    3.6540  -29.7330 C.3    92  ARG92       0.0307
     53  CG        30.6230    3.7020  -28.7930 C.3    92  ARG92       0.0489
     54  CD        30.9480    4.3440  -27.4330 C.3    92  ARG92       0.2205
     55  NE        32.0930    3.7960  -26.7960 N.pl3  92  ARG92      -0.0865
     56  CZ        32.0770    2.7120  -26.0460 C.cat  92  ARG92       0.5346
     57  NH1       30.9240    2.1040  -25.7630 N.pl3  92  ARG92       0.1354
     58  NH2       33.2230    2.2150  -25.6400 N.pl3  92  ARG92       0.1354
     59  N         27.3070    1.2130  -30.3680 N.3    95  ASP95      -0.1225
     60  CA        27.3330    0.1550  -29.3570 C.3    95  ASP95       0.1805
     61  C         25.9650   -0.4980  -29.3480 C.2    95  ASP95       0.2598
     62  O         24.9340    0.1970  -29.2600 O.2    95  ASP95      -0.2718
     63  CB        27.6270    0.7930  -28.0020 C.3    95  ASP95       0.1424
     64  CG        27.7660   -0.2300  -26.8690 C.2    95  ASP95       0.3668
     65  OD1       28.4140   -1.2710  -27.1080 O.co2  95  ASP95      -0.2456
     66  OD2       27.2430    0.0780  -25.7150 O.co2  95  ASP95      -0.2456
     67  N         25.9490   -1.8420  -29.4690 N.am   96  VAL96      -0.1966
     68  CA        24.7230   -2.6300  -29.4450 C.3    96  VAL96       0.1727
     69  C         24.8650   -3.6210  -28.2940 C.2    96  VAL96       0.2616
     70  O         25.6650   -4.5700  -28.3690 O.2    96  VAL96      -0.2715
     71  CB        24.4520   -3.4000  -30.7810 C.3    96  VAL96       0.0290
     72  CG1       23.0650   -4.0560  -30.6970 C.3    96  VAL96       0.0023
     73  CG2       24.4600   -2.4860  -31.9900 C.3    96  VAL96       0.0023
     74  N         24.0390   -3.3970  -27.2570 N.am   97  ASP97      -0.1957
     75  CA        24.1390   -4.2200  -26.0670 C.3    97  ASP97       0.1840
     76  C         22.8550   -5.0000  -25.8740 C.2    97  ASP97       0.2621
     77  O         21.7900   -4.4860  -26.0950 O.2    97  ASP97      -0.2715
     78  CB        24.3200   -3.3210  -24.8800 C.3    97  ASP97       0.1450
     79  CG        25.7190   -2.6620  -24.8010 C.2    97  ASP97       0.3671
     80  OD1       26.6000   -3.1070  -25.5510 O.co2  97  ASP97      -0.2456
     81  OD2       25.8410   -1.7690  -23.9300 O.co2  97  ASP97      -0.2456
     82  N         22.9750   -6.2750  -25.5160 N.am   98  ILE98      -0.1977
     83  CA        21.8000   -7.0640  -25.2010 C.3    98  ILE98       0.1596
     84  C         21.4030   -6.7820  -23.7690 C.2    98  ILE98       0.2287
     85  O         22.1540   -7.0470  -22.8630 O.2    98  ILE98      -0.2864
     86  CB        22.0380   -8.5940  -25.3830 C.3    98  ILE98       0.0276
     87  CG1       22.4610   -8.9170  -26.8520 C.3    98  ILE98       0.0022
     88  CG2       20.7610   -9.3300  -24.9940 C.3    98  ILE98       0.0022
     89  CD1       22.9850  -10.2860  -27.0230 C.3    98  ILE98       0.0001
     90  N         31.5520  -16.0410  -19.9390 N.3   109  PRO109     -0.2102
     91  CA        32.6160  -15.1050  -20.1150 C.3   109  PRO109      0.1504
     92  C         32.3680  -14.0180  -21.1340 C.2   109  PRO109      0.2579
     93  O         32.6710  -12.8700  -20.8340 O.2   109  PRO109     -0.2718
     94  CB        33.8140  -15.9610  -20.4810 C.3   109  PRO109      0.0282
     95  CG        33.5280  -17.2130  -19.7690 C.3   109  PRO109      0.0208
     96  CD        32.0740  -17.4450  -19.9670 C.3   109  PRO109      0.0893
     97  N         31.8020  -14.3440  -22.2620 N.am  110  LYS110     -0.1920
     98  CA        31.5650  -13.3830  -23.3030 C.3   110  LYS110      0.1944
     99  C         30.1830  -12.7170  -23.2490 C.2   110  LYS110      0.2659
    100  O         29.9000  -11.9140  -24.1290 O.2   110  LYS110     -0.2711
    101  CB        31.8780  -13.9820  -24.6610 C.2   110  LYS110     -0.0002
    102  CG        30.8470  -14.9180  -25.3190 C.2   110  LYS110     -0.0270
    103  CD        31.3590  -15.8510  -26.4740 C.3   110  LYS110      0.0462
    104  CE        31.7030  -15.0520  -27.7170 C.3   110  LYS110      0.1140
    105  NZ        32.2090  -15.8960  -28.8450 N.3   110  LYS110     -0.1310
    106  N         29.3020  -13.0890  -22.3330 N.am  111  LEU111     -0.1961
    107  CA        27.9180  -12.6470  -22.3860 C.3   111  LEU111      0.1728
    108  C         27.2860  -12.6740  -21.0250 C.2   111  LEU111      0.2617
    109  O         27.1190  -13.7750  -20.4620 O.2   111  LEU111     -0.2715
    110  CB        27.1140  -13.4810  -23.3740 C.3   111  LEU111      0.0311
    111  CG        25.6540  -13.1070  -23.5860 C.3   111  LEU111      0.0022
    112  CD1       25.4930  -11.6820  -24.0680 C.3   111  LEU111      0.0001
    113  CD2       24.9350  -14.0790  -24.4860 C.3   111  LEU111      0.0001
    114  N         26.7670  -11.5320  -20.5660 N.am  112  SER112     -0.1936
    115  CA        25.9940  -11.4560  -19.3370 C.3   112  SER112      0.2055
    116  C         24.6600  -10.8140  -19.6220 C.2   112  SER112      0.2642
    117  O         24.6650   -9.6680  -20.1200 O.2   112  SER112     -0.2714
    118  CB        26.6930  -10.6360  -18.2860 C.3   112  SER112      0.2130
    119  OG        27.9850  -11.1350  -18.0570 O.3   112  SER112     -0.2179
    120  N         23.5360  -11.4890  -19.3840 N.am  113  VAL113     -0.1977
    121  CA        22.2000  -11.0310  -19.6390 C.3   113  VAL113      0.1596
    122  C         21.3230  -11.4090  -18.4780 C.2   113  VAL113      0.2287
    123  O         21.4130  -12.6070  -18.0600 O.2   113  VAL113     -0.2864
    124  CB        21.6170  -11.6310  -20.9550 C.3   113  VAL113      0.0276
    125  CG1       20.1720  -11.1910  -21.1140 C.3   113  VAL113      0.0022
    126  CG2       22.5160  -11.2790  -22.1740 C.3   113  VAL113      0.0022
    127  N         21.8760   -7.3420  -18.9190 N.3   115  HIS115     -0.1227
    128  CA        23.1190   -6.5570  -18.8960 C.3   115  HIS115      0.1737
    129  C         23.4610   -6.1870  -17.4690 C.2   115  HIS115      0.2438
    130  O         22.6010   -5.7020  -16.7420 O.2   115  HIS115     -0.2733
    131  CB        22.9770   -5.3730  -19.8200 C.3   115  HIS115      0.0758
    132  CG        24.2800   -4.6600  -20.0190 C.ar  115  HIS115      0.0818
    133  ND1       24.8690   -3.9400  -19.0150 N.ar  115  HIS115     -0.2268
    134  CD2       25.1690   -4.6440  -21.0450 C.ar  115  HIS115      0.1154
    135  CE1       26.0490   -3.4660  -19.4220 C.ar  115  HIS115      0.1986
    136  NE2       26.2540   -3.9170  -20.6620 N.ar  115  HIS115     -0.2212
    137  N         24.7390   -6.3770  -17.0450 N.am  116  PRO116     -0.2718
    138  CA        25.0580   -6.2820  -15.6230 C.3   116  PRO116      0.1535
    139  C         24.9230   -4.9320  -15.0760 C.2   116  PRO116      0.2598
    140  O         24.9190   -4.7290  -13.8600 O.2   116  PRO116     -0.2715
    141  CB        26.5220   -6.6720  -15.5370 C.3   116  PRO116      0.0310
    142  CG        27.0190   -6.9290  -16.8800 C.3   116  PRO116      0.0237
    143  CD        25.8390   -6.9620  -17.8160 C.3   116  PRO116      0.0939
    144  N         24.8950   -3.8970  -15.9170 N.am  117  ARG117     -0.1978
    145  CA        24.7970   -2.5140  -15.4510 C.3   117  ARG117      0.1597
    146  C         23.4730   -1.8220  -15.7280 C.2   117  ARG117      0.2287
    147  O         23.3150   -0.6500  -15.3340 O.2   117  ARG117     -0.2864
    148  CB        25.9650   -1.6850  -16.0420 C.3   117  ARG117      0.0334
    149  CG        27.3010   -2.0640  -15.3980 C.3   117  ARG117      0.0492
    150  CD        28.5450   -1.5410  -16.1190 C.3   117  ARG117      0.2205
    151  NE        28.8610   -2.2860  -17.3290 N.pl3 117  ARG117     -0.0865
    152  CZ        29.4140   -3.4910  -17.3460 C.cat 117  ARG117      0.5346
    153  NH1       29.7400   -4.1290  -16.2100 N.pl3 117  ARG117      0.1354
    154  NH2       29.6560   -4.1450  -18.4770 N.pl3 117  ARG117      0.1354
    155  N         21.3280    2.4500  -14.8100 N.3   121  ARG121     -0.1245
    156  CA        21.6480    3.3420  -15.9310 C.3   121  ARG121      0.1563
    157  C         20.3830    4.0280  -16.4690 C.2   121  ARG121      0.2260
    158  O         19.6000    3.4080  -17.0700 O.2   121  ARG121     -0.2867
    159  CB        22.2620    2.5470  -17.0730 C.3   121  ARG121      0.0307
    160  CG        23.7410    2.3380  -16.8990 C.3   121  ARG121      0.0489
    161  CD        24.3300    1.3270  -17.8730 C.3   121  ARG121      0.2205
    162  NE        25.7840    1.3790  -17.8270 N.pl3 121  ARG121     -0.0865
    163  CZ        26.5600    0.8090  -18.7240 C.cat 121  ARG121      0.5346
    164  NH1       26.0410    0.0780  -19.7090 N.pl3 121  ARG121      0.1354
    165  NH2       27.8610    0.9520  -18.5940 N.pl3 121  ARG121      0.1354
    166  N         20.2760    6.0390  -18.9360 N.3   123  PHE123     -0.1241
    167  CA        20.3070    6.0610  -20.4100 C.3   123  PHE123      0.1605
    168  C         19.7820    4.7500  -21.0020 C.2   123  PHE123      0.2264
    169  O         19.4690    4.7060  -22.2180 O.2   123  PHE123     -0.2867
    170  CB        21.6930    6.3590  -20.9650 C.3   123  PHE123      0.0534
    171  CG        22.7040    5.2510  -20.8540 C.ar  123  PHE123     -0.0203
    172  CD1       22.7250    4.2660  -21.7830 C.ar  123  PHE123     -0.0042
    173  CD2       23.6550    5.2310  -19.8360 C.ar  123  PHE123     -0.0042
    174  CE1       23.7400    3.2820  -21.7490 C.ar  123  PHE123     -0.0003
    175  CE2       24.6380    4.2530  -19.7690 C.ar  123  PHE123     -0.0003
    176  CZ        24.6690    3.2690  -20.7090 C.ar  123  PHE123     -0.0000
@<TRIPOS>BOND
     1    20    19    2
     2    26    27    1
     3    19    18    1
     4    17    18    1
     5    18    21    1
     6    29    28    2
     7    12    11    2
     8    27    28    1
     9    27    30    1
    10    11    10    1
    11    30    31    1
    12    21    22    1
    13    10     9    1
    14    10    13    1
    15    22    23    1
    16    13    14    1
    17    31    32    1
    18    73    71    1
    19    37    38    1
    20    42    43    1
    21    42    41    1
    22    50    51    2
    23    50    49    1
    24     4     3    2
    25    32    33    1
    26    43    44    1
    27    23    24   ar
    28    23    25   ar
    29     3     2    1
    30    71    72    1
    31    71    68    1
    32    14    15    1
    33    14    16    1
    34    40    39    2
    35    41    38    1
    36    38    39    1
    37    49    52    1
    38    49    48    1
    39    59    60    1
    40     1     2    1
    41    33    34    2
    42    47    45    1
    43     2     5    1
    44    52    53    1
    45    44    45    2
    46    67    68    1
    47    67    61   am
    48    68    69    1
    49    60    61    1
    50    60    63    1
    51    61    62    2
    52    45    46    1
    53    35    34    1
    54    34    36    1
    55   105   104    1
    56    53    54    1
    57     5     6    1
    58    70    69    2
    59     6     7    1
    60     6     8    1
    61    69    74   am
    62    63    64    1
    63   104   103    1
    64    54    55    1
    65    74    75    1
    66    65    64   ar
    67    89    87    1
    68    64    66   ar
    69    87    86    1
    70    55    56    2
    71   103   102    1
    72    77    76    2
    73    75    76    1
    74    75    78    1
    75    56    57    1
    76    56    58    1
    77    76    82   am
    78    80    79   ar
    79    82    83    1
    80    86    83    1
    81    86    88    1
    82   102   101    2
    83    83    84    1
    84    78    79    1
    85    79    81   ar
    86   101    98    1
    87   113   111    1
    88   100    99    2
    89   112   111    1
    90    84    85    2
    91   111   110    1
    92   110   107    1
    93    98    99    1
    94    98    97    1
    95    99   106   am
    96   107   106    1
    97   107   108    1
    98    97    92   am
    99   169   168    2
   100   126   124    1
   101   172   174   ar
   102   172   171   ar
   103   174   176   ar
   104    92    93    2
   105    92    91    1
   106   125   124    1
   107   134   136   ar
   108   134   132   ar
   109   108   114   am
   110   108   109    2
   111   168   167    1
   112   170   171    1
   113   170   167    1
   114   124   121    1
   115   171   173   ar
   116   176   175   ar
   117   136   135   ar
   118   114   115    1
   119    94    91    1
   120    94    95    1
   121   167   166    1
   122   117   116    2
   123    91    90    1
   124   132   131    1
   125   132   133   ar
   126    96    90    1
   127    96    95    1
   128   173   175   ar
   129   131   128    1
   130   164   163    1
   131   121   120    1
   132   121   122    1
   133   116   120   am
   134   116   115    1
   135   135   133   ar
   136   115   118    1
   137   127   128    1
   138   128   129    1
   139   163   165    1
   140   163   162    2
   141   122   123    2
   142   154   152    1
   143   118   119    1
   144   161   162    1
   145   161   160    1
   146   143   137    1
   147   143   142    1
   148   129   137   am
   149   129   130    2
   150   152   151    2
   151   152   153    1
   152   151   150    1
   153   159   160    1
   154   159   156    1
   155   158   157    2
   156   137   138    1
   157   142   141    1
   158   157   156    1
   159   150   149    1
   160   148   145    1
   161   148   149    1
   162   156   155    1
   163   144   145    1
   164   144   139   am
   165   146   145    1
   166   146   147    2
   167   138   141    1
   168   138   139    1
   169   139   140    2
