@<TRIPOS>MOLECULE
tmp/5ettA01.pdb
 156 152 0 0 0
SMALL
GASTEIGER

@<TRIPOS>ATOM
      1  N         23.7390    2.8130  -28.6270 N.3     9  GLY9       -0.1225
      2  CA        24.3390    4.1120  -28.3510 C.3     9  GLY9        0.1811
      3  C         25.3220    4.5520  -29.4500 C.2     9  GLY9        0.2280
      4  O         25.9140    3.7210  -30.1340 O.2     9  GLY9       -0.2866
      5  N         28.1920    8.0870  -29.9850 N.3    11  ASN11      -0.1240
      6  CA        28.6800    9.4290  -29.5150 C.3    11  ASN11       0.1653
      7  C         29.7680    9.9810  -30.3590 C.2    11  ASN11       0.2266
      8  O         30.5870   10.7860  -29.9080 O.2    11  ASN11      -0.2867
      9  CB        28.9890    9.4410  -28.0180 C.3    11  ASN11       0.1155
     10  CG        30.2530    8.8030  -27.6510 C.2    11  ASN11       0.2627
     11  OD1       30.6980    7.8610  -28.3010 O.2    11  ASN11      -0.2716
     12  ND2       30.9240    9.3320  -26.6300 N.am   11  ASN11      -0.0877
     13  N         22.2260   11.8950  -23.9260 N.3    43  THR43      -0.1203
     14  CA        22.5610   11.5090  -22.5910 C.3    43  THR43       0.1994
     15  C         23.9940   11.8380  -22.2860 C.2    43  THR43       0.2618
     16  O         24.9330   11.7610  -23.1350 O.2    43  THR43      -0.2717
     17  CB        22.2670    9.9580  -22.3750 C.3    43  THR43       0.1784
     18  OG1       23.2170    9.1880  -23.1450 O.3    43  THR43      -0.2211
     19  CG2       20.8340    9.5650  -22.7530 C.3    43  THR43       0.0376
     20  N         24.2460   12.2000  -21.0410 N.am   44  ALA44      -0.1966
     21  CA        25.5770   12.4410  -20.5910 C.3    44  ALA44       0.1713
     22  C         26.3320   11.1430  -20.3520 C.2    44  ALA44       0.2458
     23  O         25.7730   10.2130  -19.7430 O.2    44  ALA44      -0.2730
     24  CB        25.5650   13.2530  -19.2770 C.3    44  ALA44       0.0333
     25  N         27.5820   11.0720  -20.7750 N.am   45  PRO45      -0.2716
     26  CA        28.3590    9.8370  -20.5490 C.3    45  PRO45       0.1536
     27  C         28.4530    9.5030  -19.0670 C.2    45  PRO45       0.2598
     28  O         28.7030   10.4270  -18.2540 O.2    45  PRO45      -0.2715
     29  CB        29.7110   10.1520  -21.0970 C.3    45  PRO45       0.0310
     30  CG        29.5150   11.2060  -22.0400 C.3    45  PRO45       0.0237
     31  CD        28.3620   12.0410  -21.5450 C.3    45  PRO45       0.0939
     32  N         28.3340    8.2250  -18.7380 N.am   46  VAL46      -0.1964
     33  CA        28.5940    7.7300  -17.4180 C.3    46  VAL46       0.1727
     34  C         29.7120    6.6820  -17.4380 C.2    46  VAL46       0.2617
     35  O         29.9710    5.9910  -18.4460 O.2    46  VAL46      -0.2715
     36  CB        27.3410    7.1580  -16.7440 C.3    46  VAL46       0.0290
     37  CG1       26.2520    8.1930  -16.6480 C.3    46  VAL46       0.0023
     38  CG2       26.7950    6.0210  -17.4880 C.3    46  VAL46       0.0023
     39  N         30.4040    6.5870  -16.2880 N.am   47  GLY47      -0.1940
     40  CA        31.4100    5.5860  -16.0690 C.3    47  GLY47       0.2014
     41  C         32.8190    5.8530  -16.5640 C.2    47  GLY47       0.2638
     42  O         33.6150    4.9640  -16.6490 O.2    47  GLY47      -0.2714
     43  N         33.0860    7.0930  -16.9280 N.am   48  TYR48      -0.1973
     44  CA        34.3690    7.3640  -17.5960 C.3    48  TYR48       0.1639
     45  C         34.7370    8.8600  -17.3410 C.2    48  TYR48       0.2290
     46  O         34.2360    9.5040  -16.4550 O.2    48  TYR48      -0.2864
     47  CB        34.3340    6.9590  -19.0710 C.3    48  TYR48       0.0560
     48  CG        35.6490    6.6070  -19.7240 C.ar   48  TYR48      -0.0198
     49  CD1       36.5200    5.6990  -19.1880 C.ar   48  TYR48      -0.0009
     50  CD2       35.9900    7.1650  -20.9520 C.ar   48  TYR48      -0.0009
     51  CE1       37.7390    5.4110  -19.8270 C.ar   48  TYR48       0.0417
     52  CE2       37.1390    6.8340  -21.6050 C.ar   48  TYR48       0.0417
     53  CZ        38.0330    5.9600  -21.0500 C.ar   48  TYR48       0.1957
     54  OH        39.2310    5.6840  -21.7150 O.3    48  TYR48      -0.2866
     55  N         33.3790   13.1190  -21.9730 N.3    51  GLN51      -0.1245
     56  CA        33.3440   12.5790  -23.3280 C.3    51  GLN51       0.1566
     57  C         32.1550   13.2050  -24.0580 C.2    51  GLN51       0.2260
     58  O         31.2950   13.7690  -23.4230 O.2    51  GLN51      -0.2867
     59  CB        33.1650   11.0330  -23.3210 C.3    51  GLN51       0.0367
     60  CG        34.3710   10.2710  -22.7490 C.3    51  GLN51       0.0905
     61  CD        35.6560   10.4820  -23.5380 C.2    51  GLN51       0.2608
     62  OE1       35.6460   10.7530  -24.7320 O.2    51  GLN51      -0.2717
     63  NE2       36.7510   10.2240  -22.8900 N.am   51  GLN51      -0.0878
     64  N         26.0890   11.1640  -25.8110 N.3    54  PHE54      -0.1241
     65  CA        25.5490   10.0510  -26.5470 C.3    54  PHE54       0.1605
     66  C         24.1500   10.3800  -27.0640 C.2    54  PHE54       0.2264
     67  O         23.4200   11.0630  -26.4630 O.2    54  PHE54      -0.2867
     68  CB        25.4160    8.8610  -25.6180 C.3    54  PHE54       0.0534
     69  CG        26.6720    8.1250  -25.3900 C.ar   54  PHE54      -0.0203
     70  CD1       27.5190    8.4780  -24.3820 C.ar   54  PHE54      -0.0042
     71  CD2       26.9790    7.0430  -26.1420 C.ar   54  PHE54      -0.0042
     72  CE1       28.6710    7.7490  -24.1530 C.ar   54  PHE54      -0.0003
     73  CE2       28.1310    6.3290  -25.9340 C.ar   54  PHE54      -0.0003
     74  CZ        28.9680    6.6750  -24.9510 C.ar   54  PHE54      -0.0000
     75  N         21.1440    7.6940  -27.3150 N.3    56  ASN56      -0.1240
     76  CA        20.8220    6.3270  -26.8810 C.3    56  ASN56       0.1653
     77  C         19.3850    6.0290  -27.1500 C.2    56  ASN56       0.2266
     78  O         18.5060    6.9440  -27.1010 O.2    56  ASN56      -0.2867
     79  CB        20.9880    6.1430  -25.3430 C.3    56  ASN56       0.1155
     80  CG        22.4370    5.9780  -24.9020 C.2    56  ASN56       0.2627
     81  OD1       23.0070    6.8070  -24.1790 O.2    56  ASN56      -0.2716
     82  ND2       23.0580    4.8520  -25.3210 N.am   56  ASN56      -0.0877
     83  N         39.2850    2.9410  -23.8340 N.3    89  TRP89      -0.1227
     84  CA        37.8980    3.2480  -24.2500 C.3    89  TRP89       0.1737
     85  C         37.8460    4.6820  -24.7840 C.2    89  TRP89       0.2596
     86  O         38.5340    5.5980  -24.3230 O.2    89  TRP89      -0.2718
     87  CB        36.8840    3.0840  -23.1090 C.3    89  TRP89       0.0564
     88  CG        36.8820    1.7350  -22.4710 C.ar   89  TRP89       0.0003
     89  CD1       37.3310    0.5340  -22.9560 C.ar   89  TRP89       0.0946
     90  CD2       36.3470    1.4660  -21.1690 C.ar   89  TRP89       0.0152
     91  NE1       37.0990   -0.4750  -22.0140 N.ar   89  TRP89      -0.2442
     92  CE2       36.5070    0.0820  -20.9170 C.ar   89  TRP89       0.0810
     93  CE3       35.7580    2.2770  -20.1890 C.ar   89  TRP89       0.0012
     94  CZ2       36.0920   -0.5020  -19.6990 C.ar   89  TRP89       0.0191
     95  CZ3       35.3420    1.7100  -18.9990 C.ar   89  TRP89       0.0001
     96  CH2       35.5210    0.3420  -18.7690 C.ar   89  TRP89       0.0015
     97  N         36.9720    4.8670  -25.7580 N.am   90  GLY90      -0.1943
     98  CA        36.7110    6.2140  -26.2280 C.3    90  GLY90       0.1998
     99  C         35.4010    6.2430  -26.9540 C.2    90  GLY90       0.2481
    100  O         34.6010    5.2830  -26.9020 O.2    90  GLY90      -0.2729
    101  N         35.2030    7.3100  -27.7110 N.am   91  PRO91      -0.2715
    102  CA        33.9350    7.5030  -28.3830 C.3    91  PRO91       0.1536
    103  C         33.7030    6.3480  -29.3870 C.2    91  PRO91       0.2598
    104  O         34.6460    5.7340  -29.9160 O.2    91  PRO91      -0.2715
    105  CB        34.1370    8.8210  -29.0950 C.3    91  PRO91       0.0310
    106  CG        35.1130    9.5450  -28.1740 C.3    91  PRO91       0.0237
    107  CD        36.0530    8.5490  -27.7040 C.3    91  PRO91       0.0939
    108  N         32.4410    6.0590  -29.6750 N.am   92  ARG92      -0.1978
    109  CA        32.1320    4.9220  -30.5360 C.3    92  ARG92       0.1597
    110  C         30.9990    5.2820  -31.4740 C.2    92  ARG92       0.2287
    111  O         29.9810    5.9280  -31.0960 O.2    92  ARG92      -0.2864
    112  CB        31.8340    3.6540  -29.7330 C.3    92  ARG92       0.0334
    113  CG        30.6230    3.7020  -28.7930 C.3    92  ARG92       0.0492
    114  CD        30.9480    4.3440  -27.4330 C.3    92  ARG92       0.2205
    115  NE        32.0930    3.7960  -26.7960 N.pl3  92  ARG92      -0.0865
    116  CZ        32.0770    2.7120  -26.0460 C.cat  92  ARG92       0.5346
    117  NH1       30.9240    2.1040  -25.7630 N.pl3  92  ARG92       0.1354
    118  NH2       33.2230    2.2150  -25.6400 N.pl3  92  ARG92       0.1354
    119  N         27.3070    1.2130  -30.3680 N.3    95  ASP95      -0.1239
    120  CA        27.3330    0.1550  -29.3570 C.3    95  ASP95       0.1674
    121  C         25.9650   -0.4980  -29.3480 C.2    95  ASP95       0.2266
    122  O         24.9340    0.1970  -29.2600 O.2    95  ASP95      -0.2867
    123  CB        27.6270    0.7930  -28.0020 C.3    95  ASP95       0.1410
    124  CG        27.7660   -0.2300  -26.8690 C.2    95  ASP95       0.3668
    125  OD1       28.4140   -1.2710  -27.1080 O.co2  95  ASP95      -0.2456
    126  OD2       27.2430    0.0780  -25.7150 O.co2  95  ASP95      -0.2456
    127  N         24.0390   -3.3970  -27.2570 N.3    97  ASP97      -0.1239
    128  CA        24.1390   -4.2200  -26.0670 C.3    97  ASP97       0.1674
    129  C         22.8550   -5.0000  -25.8740 C.2    97  ASP97       0.2266
    130  O         21.7900   -4.4860  -26.0950 O.2    97  ASP97      -0.2867
    131  CB        24.3200   -3.3210  -24.8800 C.3    97  ASP97       0.1410
    132  CG        25.7190   -2.6620  -24.8010 C.2    97  ASP97       0.3668
    133  OD1       26.6000   -3.1070  -25.5510 O.co2  97  ASP97      -0.2456
    134  OD2       25.8410   -1.7690  -23.9300 O.co2  97  ASP97      -0.2456
    135  N         21.3280    2.4500  -14.8100 N.3   121  ARG121     -0.1245
    136  CA        21.6480    3.3420  -15.9310 C.3   121  ARG121      0.1563
    137  C         20.3830    4.0280  -16.4690 C.2   121  ARG121      0.2260
    138  O         19.6000    3.4080  -17.0700 O.2   121  ARG121     -0.2867
    139  CB        22.2620    2.5470  -17.0730 C.3   121  ARG121      0.0307
    140  CG        23.7410    2.3380  -16.8990 C.3   121  ARG121      0.0489
    141  CD        24.3300    1.3270  -17.8730 C.3   121  ARG121      0.2205
    142  NE        25.7840    1.3790  -17.8270 N.pl3 121  ARG121     -0.0865
    143  CZ        26.5600    0.8090  -18.7240 C.cat 121  ARG121      0.5346
    144  NH1       26.0410    0.0780  -19.7090 N.pl3 121  ARG121      0.1354
    145  NH2       27.8610    0.9520  -18.5940 N.pl3 121  ARG121      0.1354
    146  N         20.2760    6.0390  -18.9360 N.3   123  PHE123     -0.1241
    147  CA        20.3070    6.0610  -20.4100 C.3   123  PHE123      0.1605
    148  C         19.7820    4.7500  -21.0020 C.2   123  PHE123      0.2264
    149  O         19.4690    4.7060  -22.2180 O.2   123  PHE123     -0.2867
    150  CB        21.6930    6.3590  -20.9650 C.3   123  PHE123      0.0534
    151  CG        22.7040    5.2510  -20.8540 C.ar  123  PHE123     -0.0203
    152  CD1       22.7250    4.2660  -21.7830 C.ar  123  PHE123     -0.0042
    153  CD2       23.6550    5.2310  -19.8360 C.ar  123  PHE123     -0.0042
    154  CE1       23.7400    3.2820  -21.7490 C.ar  123  PHE123     -0.0003
    155  CE2       24.6380    4.2530  -19.7690 C.ar  123  PHE123     -0.0003
    156  CZ        24.6690    3.2690  -20.7090 C.ar  123  PHE123     -0.0000
@<TRIPOS>BOND
     1   110   111    2
     2   110   109    1
     3   109   112    1
     4   109   108    1
     5   119   120    1
     6     7     8    2
     7     7     6    1
     8     4     3    2
     9     5     6    1
    10   104   103    2
    11   112   113    1
    12   108   103   am
    13     6     9    1
    14     3     2    1
    15   103   102    1
    16   120   121    1
    17   120   123    1
    18   121   122    2
    19   105   102    1
    20   105   106    1
    21   113   114    1
    22     1     2    1
    23   102   101    1
    24    11    10    2
    25   106   107    1
    26     9    10    1
    27   123   124    1
    28   101   107    1
    29   101    99   am
    30    10    12   am
    31   114   115    1
    32    75    76    1
    33   127   128    1
    34    77    78    2
    35    77    76    1
    36   125   124   ar
    37    66    65    1
    38    66    67    2
    39    99   100    2
    40    99    98    1
    41    76    79    1
    42   124   126   ar
    43   115   116    2
    44    65    64    1
    45    65    68    1
    46    98    97    1
    47    71    73   ar
    48    71    69   ar
    49   130   129    2
    50   128   129    1
    51   128   131    1
    52   116   117    1
    53   116   118    1
    54    73    74   ar
    55    97    85   am
    56    68    69    1
    57   133   132   ar
    58    69    70   ar
    59    79    80    1
    60    82    80   am
    61    74    72   ar
    62    80    81    2
    63   131   132    1
    64   132   134   ar
    65    85    86    2
    66    85    84    1
    67    62    61    2
    68    70    72   ar
    69    84    83    1
    70    84    87    1
    71    57    58    2
    72    57    56    1
    73    13    14    1
    74    61    63   am
    75    61    60    1
    76    56    59    1
    77    56    55    1
    78    59    60    1
    79    18    17    1
    80    16    15    2
    81    87    88    1
    82    89    88   ar
    83    89    91   ar
    84    19    17    1
    85    14    17    1
    86    14    15    1
    87    88    90   ar
    88    15    20   am
    89   149   148    2
    90    30    31    1
    91    30    29    1
    92    91    92   ar
    93   152   154   ar
    94   152   151   ar
    95   154   156   ar
    96    54    53    1
    97    52    53   ar
    98    52    50   ar
    99    31    25    1
   100    90    92   ar
   101    90    93   ar
   102    29    26    1
   103    53    51   ar
   104    20    21    1
   105   148   147    1
   106   150   151    1
   107   150   147    1
   108    50    48   ar
   109    92    94   ar
   110   151   153   ar
   111    25    26    1
   112    25    22   am
   113   156   155   ar
   114    21    22    1
   115    21    24    1
   116    26    27    1
   117   147   146    1
   118    22    23    2
   119    93    95   ar
   120   153   155   ar
   121    51    49   ar
   122    48    49   ar
   123    48    47    1
   124   144   143    1
   125    94    96   ar
   126    47    44    1
   127    27    32   am
   128    27    28    2
   129    95    96   ar
   130    32    33    1
   131   143   145    1
   132   143   142    2
   133    35    34    2
   134   141   142    1
   135   141   140    1
   136    44    45    1
   137    44    43    1
   138    38    36    1
   139    34    33    1
   140    34    39   am
   141    33    36    1
   142    45    46    2
   143   139   140    1
   144   139   136    1
   145   138   137    2
   146    43    41   am
   147    36    37    1
   148    42    41    2
   149    41    40    1
   150   137   136    1
   151    39    40    1
   152   136   135    1
