@<TRIPOS>MOLECULE
tmp/5etvA01.pdb
 148 141 0 0 0
SMALL
GASTEIGER

@<TRIPOS>ATOM
      1  N        -18.8810   42.6280   16.3850 N.3    10  GLY10      -0.1225
      2  CA       -18.9030   41.5640   17.3740 C.3    10  GLY10       0.1811
      3  C        -19.9270   41.8110   18.4460 C.2    10  GLY10       0.2280
      4  O        -20.2380   42.9600   18.7470 O.2    10  GLY10      -0.2866
      5  N        -17.8340   32.3430   17.5480 N.3    44  THR44      -0.1203
      6  CA       -16.3800   32.3070   17.7630 C.3    44  THR44       0.1994
      7  C        -16.1010   32.2410   19.2640 C.2    44  THR44       0.2617
      8  O        -16.7370   32.9320   20.0910 O.2    44  THR44      -0.2717
      9  CB       -15.7170   33.5120   17.0880 C.3    44  THR44       0.1784
     10  OG1      -16.2120   34.7030   17.6810 O.3    44  THR44      -0.2211
     11  CG2      -16.1380   33.5650   15.5900 C.3    44  THR44       0.0376
     12  N        -15.1600   31.3720   19.6190 N.am   45  ALA45      -0.1979
     13  CA       -14.7180   31.2630   21.0000 C.3    45  ALA45       0.1597
     14  C        -14.0390   32.6050   21.3730 C.2    45  ALA45       0.2287
     15  O        -13.3570   33.1810   20.5500 O.2    45  ALA45      -0.2864
     16  CB       -13.7500   30.1160   21.1760 C.3    45  ALA45       0.0319
     17  N        -11.4120   35.2500   22.3950 N.3    47  VAL47      -0.1231
     18  CA        -9.9430   35.3370   22.2450 C.3    47  VAL47       0.1692
     19  C         -9.4590   36.3630   23.2700 C.2    47  VAL47       0.2593
     20  O        -10.0820   37.4130   23.4290 O.2    47  VAL47      -0.2718
     21  CB        -9.5350   35.7220   20.8190 C.3    47  VAL47       0.0266
     22  CG1       -8.0350   35.5980   20.6510 C.3    47  VAL47       0.0020
     23  CG2      -10.1990   34.7920   19.7960 C.3    47  VAL47       0.0020
     24  N         -8.3790   36.0250   23.9680 N.am   48  GLY48      -0.1942
     25  CA        -7.7800   36.9250   24.9480 C.3    48  GLY48       0.2014
     26  C         -8.2800   36.4840   26.2740 C.2    48  GLY48       0.2638
     27  O         -7.7900   35.4890   26.8270 O.2    48  GLY48      -0.2714
     28  N         -9.2720   37.1970   26.8330 N.am   49  TYR49      -0.1973
     29  CA        -9.9080   36.7640   28.0570 C.3    49  TYR49       0.1639
     30  C        -10.9030   35.6840   27.6710 C.2    49  TYR49       0.2290
     31  O        -11.9210   35.9730   27.0720 O.2    49  TYR49      -0.2864
     32  CB       -10.6430   37.9140   28.7360 C.3    49  TYR49       0.0560
     33  CG       -11.2240   37.5360   30.0690 C.ar   49  TYR49      -0.0198
     34  CD1      -10.4420   36.9060   31.0300 C.ar   49  TYR49      -0.0009
     35  CD2      -12.5880   37.7480   30.3490 C.ar   49  TYR49      -0.0009
     36  CE1      -10.9660   36.5340   32.2420 C.ar   49  TYR49       0.0417
     37  CE2      -13.1170   37.3760   31.5710 C.ar   49  TYR49       0.0417
     38  CZ       -12.2880   36.7750   32.5130 C.ar   49  TYR49       0.1957
     39  OH       -12.7510   36.3830   33.7380 O.3    49  TYR49      -0.2866
     40  N        -15.5380   34.2970   29.2180 N.3    52  GLN52      -0.1245
     41  CA       -16.6500   35.2010   28.9770 C.3    52  GLN52       0.1566
     42  C        -17.4620   34.5580   27.8450 C.2    52  GLN52       0.2260
     43  O        -17.0190   33.5730   27.2880 O.2    52  GLN52      -0.2867
     44  CB       -16.1450   36.5770   28.5380 C.3    52  GLN52       0.0367
     45  CG       -15.3710   36.6080   27.2340 C.3    52  GLN52       0.0905
     46  CD       -15.0110   38.0140   26.7840 C.2    52  GLN52       0.2608
     47  OE1      -15.8600   38.9040   26.7100 O.2    52  GLN52      -0.2717
     48  NE2      -13.7620   38.2050   26.4290 N.am   52  GLN52      -0.0878
     49  N        -18.7580   34.7400   21.1650 N.3    55  PHE55      -0.1241
     50  CA       -19.1330   35.8470   20.3260 C.3    55  PHE55       0.1605
     51  C        -19.8830   35.3880   19.0660 C.2    55  PHE55       0.2264
     52  O        -19.6870   34.2810   18.5980 O.2    55  PHE55      -0.2867
     53  CB       -17.8760   36.5710   19.8270 C.3    55  PHE55       0.0534
     54  CG       -17.1950   37.4300   20.8820 C.ar   55  PHE55      -0.0203
     55  CD1      -16.4040   36.8450   21.8900 C.ar   55  PHE55      -0.0042
     56  CD2      -17.3350   38.8220   20.8790 C.ar   55  PHE55      -0.0042
     57  CE1      -15.7580   37.6640   22.8580 C.ar   55  PHE55      -0.0003
     58  CE2      -16.6930   39.6180   21.8160 C.ar   55  PHE55      -0.0003
     59  CZ       -15.9200   39.0360   22.8270 C.ar   55  PHE55      -0.0000
     60  N        -19.5590   37.0900   15.3290 N.3    57  ASN57      -0.1240
     61  CA       -18.7440   38.0410   14.5810 C.3    57  ASN57       0.1653
     62  C        -19.1200   37.9970   13.1110 C.2    57  ASN57       0.2266
     63  O        -19.4600   36.9360   12.5730 O.2    57  ASN57      -0.2867
     64  CB       -17.2220   37.7040   14.6740 C.3    57  ASN57       0.1155
     65  CG       -16.5890   38.0900   16.0070 C.2    57  ASN57       0.2627
     66  OD1      -16.2120   37.2220   16.7990 O.2    57  ASN57      -0.2716
     67  ND2      -16.4530   39.3700   16.2610 N.am   57  ASN57      -0.0877
     68  N        -11.6980   46.7330   27.6580 N.3    88  ARG88      -0.1231
     69  CA       -11.3940   46.2380   26.3280 C.3    88  ARG88       0.1694
     70  C        -11.3150   44.7150   26.3080 C.2    88  ARG88       0.2592
     71  O        -11.6180   44.0940   25.3070 O.2    88  ARG88      -0.2718
     72  CB       -10.0620   46.8470   25.8170 C.3    88  ARG88       0.0321
     73  CG       -10.1420   48.3730   25.7300 C.3    88  ARG88       0.0489
     74  CD        -8.7940   49.0120   25.4790 C.3    88  ARG88       0.2205
     75  NE        -8.1670   48.2800   24.4090 N.pl3  88  ARG88      -0.0865
     76  CZ        -7.7710   48.7980   23.2450 C.cat  88  ARG88       0.5346
     77  NH1       -7.8360   50.1330   23.0220 N.pl3  88  ARG88       0.1354
     78  NH2       -7.2390   47.9700   22.3350 N.pl3  88  ARG88       0.1354
     79  N        -10.9310   44.1280   27.4290 N.am   89  TRP89      -0.1962
     80  CA       -10.7900   42.6680   27.5050 C.3    89  TRP89       0.1771
     81  C        -12.1170   41.9290   27.7350 C.2    89  TRP89       0.2620
     82  O        -12.1560   40.7070   27.5860 O.2    89  TRP89      -0.2715
     83  CB        -9.7950   42.2920   28.6340 C.3    89  TRP89       0.0590
     84  CG       -10.0910   42.9000   29.9750 C.ar   89  TRP89       0.0006
     85  CD1       -9.5230   44.0260   30.4870 C.ar   89  TRP89       0.0946
     86  CD2      -10.9960   42.4230   30.9770 C.ar   89  TRP89       0.0152
     87  NE1      -10.0020   44.2860   31.7170 N.ar   89  TRP89      -0.2442
     88  CE2      -10.9210   43.3270   32.0550 C.ar   89  TRP89       0.0810
     89  CE3      -11.8790   41.3290   31.0640 C.ar   89  TRP89       0.0012
     90  CZ2      -11.6630   43.1630   33.2370 C.ar   89  TRP89       0.0191
     91  CZ3      -12.6220   41.1740   32.2560 C.ar   89  TRP89       0.0001
     92  CH2      -12.5240   42.0860   33.2850 C.ar   89  TRP89       0.0015
     93  N        -13.1700   42.6670   28.1250 N.am   90  GLY90      -0.1954
     94  CA       -14.3980   42.1140   28.6480 C.3    90  GLY90       0.1869
     95  C        -15.5380   42.0710   27.6210 C.2    90  GLY90       0.2309
     96  O        -15.4260   42.4960   26.4670 O.2    90  GLY90      -0.2863
     97  N        -19.2590   42.5970   25.6710 N.3    92  ARG92      -0.1245
     98  CA       -19.9290   43.7910   25.1420 C.3    92  ARG92       0.1563
     99  C        -21.1360   43.3880   24.3010 C.2    92  ARG92       0.2260
    100  O        -21.1130   42.3650   23.6200 O.2    92  ARG92      -0.2867
    101  CB       -18.9720   44.6750   24.3190 C.3    92  ARG92       0.0307
    102  CG       -18.4840   44.1360   22.9760 C.3    92  ARG92       0.0489
    103  CD       -17.5310   42.9350   23.0130 C.3    92  ARG92       0.2205
    104  NE       -16.3810   43.2440   23.8670 N.pl3  92  ARG92      -0.0865
    105  CZ       -15.2620   43.8640   23.4860 C.cat  92  ARG92       0.5346
    106  NH1      -15.1310   44.2720   22.2510 N.pl3  92  ARG92       0.1354
    107  NH2      -14.3190   44.1690   24.3620 N.pl3  92  ARG92       0.1354
    108  N        -19.5120   45.5840   19.4460 N.3    95  ASP95      -0.1239
    109  CA       -18.1940   46.1710   19.1280 C.3    95  ASP95       0.1674
    110  C        -18.1920   46.4350   17.6210 C.2    95  ASP95       0.2266
    111  O        -18.4900   45.5290   16.8320 O.2    95  ASP95      -0.2867
    112  CB       -17.1450   45.1220   19.4650 C.3    95  ASP95       0.1410
    113  CG       -15.7160   45.6080   19.2720 C.2    95  ASP95       0.3668
    114  OD1      -15.4680   46.7970   19.4930 O.co2  95  ASP95      -0.2456
    115  OD2      -14.8540   44.7570   18.9010 O.co2  95  ASP95      -0.2456
    116  N         -4.4960   44.3880   14.7770 N.3   117  ARG117     -0.1245
    117  CA        -4.5910   43.0140   15.2680 C.3   117  ARG117      0.1563
    118  C         -5.3270   42.0580   14.3440 C.2   117  ARG117      0.2260
    119  O         -5.3640   40.8560   14.6360 O.2   117  ARG117     -0.2867
    120  CB        -5.1970   43.0240   16.6930 C.3   117  ARG117      0.0307
    121  CG        -4.1300   43.6620   17.6420 C.3   117  ARG117      0.0489
    122  CD        -4.7160   44.0080   18.9650 C.3   117  ARG117      0.2205
    123  NE        -5.4680   45.2490   18.9220 N.pl3 117  ARG117     -0.0865
    124  CZ        -4.9070   46.4570   18.8940 C.cat 117  ARG117      0.5346
    125  NH1       -3.5600   46.6010   18.8820 N.pl3 117  ARG117      0.1354
    126  NH2       -5.7080   47.5350   18.8810 N.pl3 117  ARG117      0.1354
    127  N         -6.3170   37.2330   13.7690 N.3   121  ARG121     -0.1245
    128  CA        -7.6370   36.9310   14.3180 C.3   121  ARG121      0.1563
    129  C         -8.5140   36.2170   13.2790 C.2   121  ARG121      0.2260
    130  O         -9.0220   36.8540   12.3700 O.2   121  ARG121     -0.2867
    131  CB        -8.3270   38.2180   14.7500 C.3   121  ARG121      0.0307
    132  CG        -7.6870   38.8320   15.9770 C.3   121  ARG121      0.0489
    133  CD        -8.3220   40.2030   16.1840 C.3   121  ARG121      0.2205
    134  NE        -7.8560   40.7800   17.4490 N.pl3 121  ARG121     -0.0865
    135  CZ        -8.3700   41.8640   18.0040 C.cat 121  ARG121      0.5346
    136  NH1       -9.3320   42.5560   17.4080 N.pl3 121  ARG121      0.1354
    137  NH2       -7.8880   42.3070   19.1450 N.pl3 121  ARG121      0.1354
    138  N        -11.5040   35.2340   13.7760 N.3   123  PHE123     -0.1241
    139  CA       -12.8390   35.8050   13.8550 C.3   123  PHE123      0.1605
    140  C        -13.0450   37.0610   13.0400 C.2   123  PHE123      0.2264
    141  O        -14.1780   37.4580   12.8190 O.2   123  PHE123     -0.2867
    142  CB       -13.2930   36.0100   15.3170 C.3   123  PHE123      0.0534
    143  CG       -12.5790   37.1280   16.0610 C.ar  123  PHE123     -0.0203
    144  CD1      -12.9490   38.4510   15.8670 C.ar  123  PHE123     -0.0042
    145  CD2      -11.6150   36.8330   16.9920 C.ar  123  PHE123     -0.0042
    146  CE1      -12.3210   39.4640   16.5560 C.ar  123  PHE123     -0.0003
    147  CE2      -11.0030   37.8590   17.7310 C.ar  123  PHE123     -0.0003
    148  CZ       -11.3560   39.1600   17.4840 C.ar  123  PHE123     -0.0000
@<TRIPOS>BOND
     1   130   129    2
     2    63    62    2
     3   141   140    2
     4   140   139    1
     5    62    61    1
     6   129   128    1
     7   127   128    1
     8   138   139    1
     9   139   142    1
    10   128   131    1
    11   118   119    2
    12   118   117    1
    13    61    64    1
    14    61    60    1
    15    64    65    1
    16   131   132    1
    17   116   117    1
    18   117   120    1
    19   142   143    1
    20    11     9    1
    21   144   143   ar
    22   144   146   ar
    23   132   133    1
    24    65    67   am
    25    65    66    2
    26   143   145   ar
    27   133   134    1
    28     1     2    1
    29   146   148   ar
    30   120   121    1
    31   111   110    2
    32   145   147   ar
    33     9    10    1
    34     9     6    1
    35     2     3    1
    36   136   135    1
    37   134   135    2
    38   148   147   ar
    39     5     6    1
    40   110   109    1
    41   121   122    1
    42     6     7    1
    43   135   137    1
    44     3     4    2
    45    52    51    2
    46   126   124    1
    47   125   124    1
    48   124   123    2
    49   115   113   ar
    50   123   122    1
    51    51    50    1
    52   109   108    1
    53   109   112    1
    54     7    12   am
    55     7     8    2
    56   113   112    1
    57   113   114   ar
    58    12    13    1
    59    23    21    1
    60    53    50    1
    61    53    54    1
    62    50    49    1
    63    15    14    2
    64    22    21    1
    65    21    18    1
    66    56    54   ar
    67    56    58   ar
    68    54    55   ar
    69    13    16    1
    70    13    14    1
    71    58    59   ar
    72    55    57   ar
    73    18    17    1
    74    18    19    1
    75   106   105    1
    76    78    76    1
    77    59    57   ar
    78   102   103    1
    79   102   101    1
    80   103   104    1
    81    77    76    1
    82    76    75    2
    83    19    20    2
    84    19    24   am
    85   105   104    2
    86   105   107    1
    87   100    99    2
    88    24    25    1
    89    99    98    1
    90   101    98    1
    91    75    74    1
    92    25    26    1
    93    98    97    1
    94    71    70    2
    95    74    73    1
    96    73    72    1
    97    72    69    1
    98    26    27    2
    99    26    28   am
   100    70    69    1
   101    70    79   am
   102    69    68    1
   103    48    46   am
   104    96    95    2
   105    47    46    2
   106    46    45    1
   107    28    29    1
   108    31    30    2
   109    45    44    1
   110    43    42    2
   111    79    80    1
   112    80    81    1
   113    80    83    1
   114    82    81    2
   115    95    94    1
   116    30    29    1
   117    81    93   am
   118    42    41    1
   119    29    32    1
   120    93    94    1
   121    44    41    1
   122    83    84    1
   123    32    33    1
   124    41    40    1
   125    84    85   ar
   126    84    86   ar
   127    33    35   ar
   128    33    34   ar
   129    35    37   ar
   130    85    87   ar
   131    86    89   ar
   132    86    88   ar
   133    34    36   ar
   134    89    91   ar
   135    37    38   ar
   136    87    88   ar
   137    88    90   ar
   138    36    38   ar
   139    91    92   ar
   140    38    39    1
   141    90    92   ar
