@<TRIPOS>MOLECULE
tmp/5etwA01.pdb
 123 115 0 0 0
SMALL
GASTEIGER

@<TRIPOS>ATOM
      1  N         31.2590   -1.8970  -17.1630 N.3   116  TYR116     -0.1241
      2  CA        30.8660   -0.9940  -16.0860 C.3   116  TYR116      0.1605
      3  C         31.5670   -1.3450  -14.7810 C.2   116  TYR116      0.2264
      4  O         32.0330   -0.4560  -14.0600 O.2   116  TYR116     -0.2867
      5  CB        29.3510   -1.0510  -15.9210 C.3   116  TYR116      0.0534
      6  CG        28.7530   -0.1280  -14.8860 C.ar  116  TYR116     -0.0201
      7  CD1       28.4150    1.1840  -15.2030 C.ar  116  TYR116     -0.0009
      8  CD2       28.4860   -0.5790  -13.6030 C.ar  116  TYR116     -0.0009
      9  CE1       27.8510    2.0200  -14.2650 C.ar  116  TYR116      0.0417
     10  CE2       27.9230    0.2520  -12.6570 C.ar  116  TYR116      0.0417
     11  CZ        27.6070    1.5470  -12.9920 C.ar  116  TYR116      0.1957
     12  OH        27.0450    2.3660  -12.0420 O.3   116  TYR116     -0.2866
     13  N         35.4250    0.2500  -15.1190 N.3   119  CYS119     -0.1221
     14  CA        35.6720    1.6860  -15.1710 C.3   119  CYS119      0.1808
     15  C         34.7970    2.4890  -14.2150 C.2   119  CYS119      0.2601
     16  O         35.0080    3.7000  -14.0870 O.2   119  CYS119     -0.2717
     17  CB        35.4890    2.2010  -16.6040 C.3   119  CYS119      0.0970
     18  SG        33.8580    1.9150  -17.3320 S.3   119  CYS119     -0.0800
     19  N         33.8370    1.8590  -13.5400 N.am  120  VAL120     -0.1979
     20  CA        33.0330    2.5570  -12.5450 C.3   120  VAL120      0.1595
     21  C         33.2280    1.9130  -11.1770 C.2   120  VAL120      0.2287
     22  O         33.7020    2.5600  -10.2380 O.2   120  VAL120     -0.2864
     23  CB        31.5470    2.5810  -12.9490 C.3   120  VAL120      0.0276
     24  CG1       30.6820    3.0980  -11.8040 C.3   120  VAL120      0.0022
     25  CG2       31.3570    3.4400  -14.1900 C.3   120  VAL120      0.0022
     26  N         32.0150   11.5850  -14.8840 N.3   153  PHE153     -0.1241
     27  CA        31.0590   10.5990  -15.3710 C.3   153  PHE153      0.1605
     28  C         31.1370    9.2970  -14.5820 C.2   153  PHE153      0.2264
     29  O         30.1030    8.6920  -14.2820 O.2   153  PHE153     -0.2867
     30  CB        31.2820   10.3370  -16.8590 C.3   153  PHE153      0.0534
     31  CG        30.3300    9.3400  -17.4370 C.ar  153  PHE153     -0.0203
     32  CD1       29.0060    9.6790  -17.6530 C.ar  153  PHE153     -0.0042
     33  CD2       30.7520    8.0590  -17.7530 C.ar  153  PHE153     -0.0042
     34  CE1       28.1200    8.7610  -18.1780 C.ar  153  PHE153     -0.0003
     35  CE2       29.8720    7.1390  -18.2810 C.ar  153  PHE153     -0.0003
     36  CZ        28.5530    7.4940  -18.4950 C.ar  153  PHE153     -0.0000
     37  N         28.0580    8.2260  -11.5030 N.3   157  SER157     -0.1217
     38  CA        27.4860    6.8820  -11.5340 C.3   157  SER157      0.1889
     39  C         27.8280    6.1190  -10.2640 C.2   157  SER157      0.2288
     40  O         26.9770    5.4280   -9.6910 O.2   157  SER157     -0.2866
     41  CB        27.9920    6.1150  -12.7580 C.3   157  SER157      0.2089
     42  OG        27.4620    6.6400  -13.9600 O.3   157  SER157     -0.2183
     43  N         31.3690   14.4530  -23.3720 N.3   216  PHE216     -0.1241
     44  CA        30.9130   13.0700  -23.2540 C.3   216  PHE216      0.1605
     45  C         30.5810   12.4730  -24.6170 C.2   216  PHE216      0.2264
     46  O         30.9380   11.3240  -24.9010 O.2   216  PHE216     -0.2867
     47  CB        29.6950   12.9690  -22.3330 C.3   216  PHE216      0.0534
     48  CG        29.1560   11.5690  -22.2190 C.ar  216  PHE216     -0.0203
     49  CD1       29.7440   10.6580  -21.3550 C.ar  216  PHE216     -0.0042
     50  CD2       28.0850   11.1500  -22.9970 C.ar  216  PHE216     -0.0042
     51  CE1       29.2670    9.3600  -21.2590 C.ar  216  PHE216     -0.0003
     52  CE2       27.6060    9.8500  -22.9040 C.ar  216  PHE216     -0.0003
     53  CZ        28.1960    8.9570  -22.0300 C.ar  216  PHE216     -0.0000
     54  N         32.6340    8.8590  -25.1120 N.3   221  ARG221     -0.1245
     55  CA        31.7660    7.8670  -25.7350 C.3   221  ARG221      0.1563
     56  C         32.5420    6.9710  -26.6920 C.2   221  ARG221      0.2260
     57  O         32.2700    5.7690  -26.7860 O.2   221  ARG221     -0.2867
     58  CB        30.6260    8.5810  -26.4600 C.3   221  ARG221      0.0307
     59  CG        29.5360    7.6780  -26.9860 C.3   221  ARG221      0.0489
     60  CD        28.3960    8.4980  -27.5690 C.3   221  ARG221      0.2205
     61  NE        28.8510    9.3050  -28.6940 N.pl3 221  ARG221     -0.0865
     62  CZ        28.9270    8.8620  -29.9440 C.cat 221  ARG221      0.5346
     63  NH1       28.5730    7.6150  -30.2280 N.pl3 221  ARG221      0.1354
     64  NH2       29.3580    9.6620  -30.9090 N.pl3 221  ARG221      0.1354
     65  N         34.4730    4.1350  -24.9030 N.3   224  LEU224     -0.1231
     66  CA        33.6750    3.1420  -24.2000 C.3   224  LEU224      0.1693
     67  C         32.8900    2.2300  -25.1320 C.2   224  LEU224      0.2592
     68  O         32.3750    1.2010  -24.6760 O.2   224  LEU224     -0.2718
     69  CB        32.7090    3.8330  -23.2290 C.3   224  LEU224      0.0284
     70  CG        33.3810    4.6270  -22.1070 C.3   224  LEU224      0.0019
     71  CD1       32.3460    5.3280  -21.2370 C.3   224  LEU224      0.0001
     72  CD2       34.2830    3.7290  -21.2660 C.3   224  LEU224      0.0001
     73  N         32.7910    2.5710  -26.4130 N.am  225  SER225     -0.1952
     74  CA        32.0580    1.7250  -27.3390 C.3   225  SER225      0.1924
     75  C         32.8730    0.4830  -27.6800 C.2   225  SER225      0.2314
     76  O         34.1030    0.4830  -27.6180 O.2   225  SER225     -0.2863
     77  CB        31.7060    2.4950  -28.6080 C.3   225  SER225      0.2116
     78  OG        32.8690    2.9820  -29.2340 O.3   225  SER225     -0.2180
     79  N         30.9630   -0.8440  -23.1210 N.3   252  GLY252     -0.1210
     80  CA        30.4820   -0.5830  -21.7750 C.3   252  GLY252      0.1956
     81  C         29.1540    0.1460  -21.7890 C.2   252  GLY252      0.2613
     82  O         28.8490    0.9180  -22.7010 O.2   252  GLY252     -0.2717
     83  N         28.3430   -0.1350  -20.7780 N.am  253  SER253     -0.1938
     84  CA        27.0320    0.4800  -20.6700 C.3   253  SER253      0.2055
     85  C         26.6050    0.4360  -19.2120 C.2   253  SER253      0.2642
     86  O         27.1990   -0.2630  -18.3930 O.2   253  SER253     -0.2714
     87  CB        26.0030   -0.2200  -21.5630 C.3   253  SER253      0.2130
     88  OG        24.6990    0.2740  -21.3100 O.3   253  SER253     -0.2179
     89  N         25.5710    1.2080  -18.8930 N.am  254  ALA254     -0.1977
     90  CA        24.9910    1.1650  -17.5650 C.3   254  ALA254      0.1597
     91  C         23.8820    0.1360  -17.4470 C.2   254  ALA254      0.2287
     92  O         23.4090   -0.1140  -16.3340 O.2   254  ALA254     -0.2864
     93  CB        24.4660    2.5400  -17.1790 C.3   254  ALA254      0.0319
     94  N         16.7930   10.7080  -15.4950 N.3   336  HIS336     -0.1241
     95  CA        17.8810   10.2200  -16.3310 C.3   336  HIS336      0.1621
     96  C         17.5700   10.3980  -17.8120 C.2   336  HIS336      0.2264
     97  O         18.4770   10.6540  -18.6120 O.2   336  HIS336     -0.2867
     98  CB        18.1570    8.7560  -15.9970 C.3   336  HIS336      0.0745
     99  CG        18.9050    8.0250  -17.0610 C.ar  336  HIS336      0.0817
    100  ND1       18.2820    7.1960  -17.9690 N.ar  336  HIS336     -0.2268
    101  CD2       20.2250    7.9940  -17.3640 C.ar  336  HIS336      0.1154
    102  CE1       19.1870    6.6850  -18.7850 C.ar  336  HIS336      0.1986
    103  NE2       20.3720    7.1560  -18.4410 N.ar  336  HIS336     -0.2212
    104  N         23.0500   13.6380  -25.3750 N.3   344  ILE344     -0.1245
    105  CA        23.1420   12.7460  -26.5300 C.3   344  ILE344      0.1561
    106  C         22.3320   13.2820  -27.7070 C.2   344  ILE344      0.2260
    107  O         22.8260   13.3230  -28.8390 O.2   344  ILE344     -0.2867
    108  CB        22.6920   11.3160  -26.1700 C.3   344  ILE344      0.0252
    109  CG1       23.6600   10.6690  -25.1740 C.3   344  ILE344      0.0019
    110  CG2       22.5980   10.4590  -27.4240 C.3   344  ILE344      0.0019
    111  CD1       25.0470   10.3960  -25.7370 C.3   344  ILE344      0.0001
    112  N         24.6390    4.4260  -30.1630 N.3   351  GLY351     -0.1225
    113  CA        23.5630    4.5560  -31.1400 C.3   351  GLY351      0.1811
    114  C         23.2130    6.0250  -31.3690 C.2   351  GLY351      0.2280
    115  O         24.0940    6.8890  -31.3390 O.2   351  GLY351     -0.2866
    116  N         18.8010    5.1350  -28.6170 N.3   355  LEU355     -0.1245
    117  CA        19.0350    5.2770  -27.1840 C.3   355  LEU355      0.1561
    118  C         17.8120    5.8470  -26.4810 C.2   355  LEU355      0.2260
    119  O         17.5170    5.4760  -25.3390 O.2   355  LEU355     -0.2867
    120  CB        20.2500    6.1670  -26.9340 C.3   355  LEU355      0.0270
    121  CG        21.5500    5.7040  -27.5890 C.3   355  LEU355      0.0019
    122  CD1       22.6680    6.7120  -27.3530 C.3   355  LEU355      0.0001
    123  CD2       21.9380    4.3230  -27.0820 C.3   355  LEU355      0.0001
@<TRIPOS>BOND
     1   114   115    2
     2   114   113    1
     3   113   112    1
     4    64    62    1
     5    63    62    1
     6    62    61    2
     7    78    77    1
     8   107   106    2
     9    61    60    1
    10   116   117    1
    11    77    74    1
    12   106   105    1
    13    75    76    2
    14    75    74    1
    15   121   122    1
    16   121   123    1
    17   121   120    1
    18    60    59    1
    19   110   108    1
    20    74    73    1
    21   117   120    1
    22   117   118    1
    23    59    58    1
    24    57    56    2
    25    56    55    1
    26   105   108    1
    27   105   104    1
    28   118   119    2
    29    58    55    1
    30    73    67   am
    31   108   109    1
    32   111   109    1
    33    55    54    1
    34    67    68    2
    35    67    66    1
    36    65    66    1
    37    46    45    2
    38    45    44    1
    39    66    69    1
    40    43    44    1
    41    44    47    1
    42    69    70    1
    43    79    80    1
    44    50    52   ar
    45    50    48   ar
    46    52    53   ar
    47    82    81    2
    48    47    48    1
    49    48    49   ar
    50    70    72    1
    51    70    71    1
    52    53    51   ar
    53    81    80    1
    54    81    83   am
    55    87    88    1
    56    87    84    1
    57    49    51   ar
    58    83    84    1
    59    84    85    1
    60    85    89   am
    61    85    86    2
    62    89    90    1
    63   102   103   ar
    64   102   100   ar
    65    97    96    2
    66    36    35   ar
    67    36    34   ar
    68   103   101   ar
    69    35    33   ar
    70    34    32   ar
    71   100    99   ar
    72    96    95    1
    73    33    31   ar
    74    32    31   ar
    75    90    91    1
    76    90    93    1
    77    91    92    2
    78    31    30    1
    79   101    99   ar
    80    18    17    1
    81     1     2    1
    82    99    98    1
    83    30    27    1
    84    17    14    1
    85    95    98    1
    86    95    94    1
    87     2     5    1
    88     2     3    1
    89     5     6    1
    90    27    26    1
    91    27    28    1
    92     7     6   ar
    93     7     9   ar
    94    14    13    1
    95    14    15    1
    96     6     8   ar
    97     3     4    2
    98    28    29    2
    99     9    11   ar
   100    15    16    2
   101    15    19   am
   102    25    23    1
   103    42    41    1
   104     8    10   ar
   105    19    20    1
   106    11    10   ar
   107    11    12    1
   108    23    20    1
   109    23    24    1
   110    41    38    1
   111    20    21    1
   112    38    37    1
   113    38    39    1
   114    21    22    2
   115    39    40    2
