@<TRIPOS>MOLECULE
tmp/5etxA00.pdb
 169 163 0 0 0
SMALL
GASTEIGER

@<TRIPOS>ATOM
      1  N        -26.9640  -22.5620  -11.0450 N.3    48  GLN48      -0.1231
      2  CA       -27.2220  -22.3750   -9.6160 C.3    48  GLN48       0.1698
      3  C        -28.5690  -21.7080   -9.3590 C.2    48  GLN48       0.2593
      4  O        -29.0990  -21.0180  -10.2260 O.2    48  GLN48      -0.2718
      5  CB       -26.0850  -21.5750   -8.9780 C.3    48  GLN48       0.0381
      6  CG       -24.7480  -22.2350   -9.1730 C.3    48  GLN48       0.0905
      7  CD       -23.6220  -21.4410   -8.5730 C.2    48  GLN48       0.2608
      8  OE1      -22.9670  -21.8680   -7.6220 O.2    48  GLN48      -0.2717
      9  NE2      -23.4030  -20.2590   -9.1090 N.am   48  GLN48      -0.0878
     10  N        -29.1230  -21.9780   -8.1770 N.am   49  THR49      -0.1939
     11  CA       -30.3530  -21.3420   -7.7120 C.3    49  THR49       0.2028
     12  C        -30.1750  -20.8810   -6.2660 C.2    49  THR49       0.2642
     13  O        -29.6430  -21.6040   -5.4250 O.2    49  THR49      -0.2714
     14  CB       -31.5790  -22.2810   -7.8230 C.3    49  THR49       0.1808
     15  OG1      -31.7920  -22.6060   -9.1890 O.3    49  THR49      -0.2208
     16  CG2      -32.8620  -21.6410   -7.3140 C.3    49  THR49       0.0379
     17  N        -30.6110  -19.6540   -5.9910 N.am   50  PHE50      -0.1973
     18  CA       -30.4210  -19.0370   -4.6860 C.3    50  PHE50       0.1639
     19  C        -31.5170  -17.9790   -4.5400 C.2    50  PHE50       0.2290
     20  O        -32.5240  -18.0260   -5.2540 O.2    50  PHE50      -0.2864
     21  CB       -28.9820  -18.4850   -4.5240 C.3    50  PHE50       0.0560
     22  CG       -28.4780  -17.6850   -5.7250 C.ar   50  PHE50      -0.0200
     23  CD1      -28.2010  -18.3080   -6.9370 C.ar   50  PHE50      -0.0042
     24  CD2      -28.2830  -16.3070   -5.6460 C.ar   50  PHE50      -0.0042
     25  CE1      -27.7580  -17.5720   -8.0470 C.ar   50  PHE50      -0.0003
     26  CE2      -27.8480  -15.5760   -6.7680 C.ar   50  PHE50      -0.0003
     27  CZ       -27.5880  -16.2070   -7.9530 C.ar   50  PHE50      -0.0000
     28  N        -22.6240  -12.3230   -4.8540 N.3    63  TYR63      -0.1227
     29  CA       -21.7440  -12.4280   -5.9860 C.3    63  TYR63       0.1736
     30  C        -21.3380  -13.8970   -6.2990 C.2    63  TYR63       0.2595
     31  O        -21.2300  -14.2880   -7.4680 O.2    63  TYR63      -0.2718
     32  CB       -20.5600  -11.4970   -5.7590 C.3    63  TYR63       0.0548
     33  CG       -19.5990  -11.5410   -6.8730 C.ar   63  TYR63      -0.0200
     34  CD1      -19.8910  -10.9470   -8.0810 C.ar   63  TYR63      -0.0009
     35  CD2      -18.3930  -12.1890   -6.7220 C.ar   63  TYR63      -0.0009
     36  CE1      -19.0040  -11.0050   -9.1170 C.ar   63  TYR63       0.0417
     37  CE2      -17.5030  -12.2500   -7.7380 C.ar   63  TYR63       0.0417
     38  CZ       -17.8030  -11.6580   -8.9440 C.ar   63  TYR63       0.1957
     39  OH       -16.8950  -11.7150   -9.9870 O.3    63  TYR63      -0.2866
     40  N        -21.1320  -14.7220   -5.2790 N.am   64  HIS64      -0.1961
     41  CA       -20.7840  -16.0990   -5.5690 C.3    64  HIS64       0.1787
     42  C        -21.8590  -16.8340   -6.3250 C.2    64  HIS64       0.2620
     43  O        -21.6040  -17.8970   -6.8860 O.2    64  HIS64      -0.2715
     44  CB       -20.3970  -16.8540   -4.3110 C.3    64  HIS64       0.0785
     45  CG       -21.5260  -17.2210   -3.4000 C.ar   64  HIS64       0.0821
     46  ND1      -21.6950  -16.6360   -2.1600 N.ar   64  HIS64      -0.2267
     47  CD2      -22.4750  -18.1770   -3.4910 C.ar   64  HIS64       0.1154
     48  CE1      -22.7250  -17.1840   -1.5520 C.ar   64  HIS64       0.1986
     49  NE2      -23.2190  -18.1200   -2.3360 N.ar   64  HIS64      -0.2212
     50  N        -23.0500  -16.2340   -6.3450 N.am   65  GLY65      -0.1954
     51  CA       -24.1830  -16.7110   -7.1040 C.3    65  GLY65       0.1869
     52  C        -24.3350  -16.0140   -8.4350 C.2    65  GLY65       0.2309
     53  O        -24.5220  -16.6760   -9.4530 O.2    65  GLY65      -0.2863
     54  N        -17.2050   -7.1470   -4.7990 N.3    85  VAL85      -0.1245
     55  CA       -16.8170   -8.5480   -4.6870 C.3    85  VAL85       0.1561
     56  C        -16.3020   -8.9280   -3.3090 C.2    85  VAL85       0.2260
     57  O        -16.4970  -10.0550   -2.8650 O.2    85  VAL85      -0.2867
     58  CB       -15.7360   -8.9130   -5.7180 C.3    85  VAL85       0.0252
     59  CG1      -16.3070   -8.8110   -7.1270 C.3    85  VAL85       0.0019
     60  CG2      -14.4660   -8.0440   -5.5170 C.3    85  VAL85       0.0019
     61  N        -18.9870   -9.9460   -1.4040 N.3    88  ASP88      -0.1239
     62  CA       -19.7590  -10.9920   -2.0660 C.3    88  ASP88       0.1674
     63  C        -21.1120  -10.3850   -2.4170 C.2    88  ASP88       0.2266
     64  O        -22.1330  -11.0360   -2.2910 O.2    88  ASP88      -0.2867
     65  CB       -19.9190  -12.2150   -1.1380 C.3    88  ASP88       0.1410
     66  CG       -20.4320  -13.4550   -1.8530 C.2    88  ASP88       0.3668
     67  OD1      -20.4210  -13.5390   -3.1020 O.co2  88  ASP88      -0.2456
     68  OD2      -20.8520  -14.3750   -1.1410 O.co2  88  ASP88      -0.2456
     69  N        -22.8280  -11.4000   11.9890 N.3   130  ARG130     -0.1245
     70  CA       -22.8800  -12.7690   12.5030 C.3   130  ARG130      0.1563
     71  C        -24.1630  -13.0730   13.2600 C.2   130  ARG130      0.2260
     72  O        -24.6180  -12.3000   14.0970 O.2   130  ARG130     -0.2867
     73  CB       -21.7340  -13.0060   13.4710 C.3   130  ARG130      0.0307
     74  CG       -20.3900  -13.2790   12.8320 C.3   130  ARG130      0.0489
     75  CD       -20.3320  -14.7410   12.3510 C.3   130  ARG130      0.2205
     76  NE       -19.1560  -15.0160   11.5230 N.pl3 130  ARG130     -0.0865
     77  CZ       -18.1220  -15.7720   11.8950 C.cat 130  ARG130      0.5346
     78  NH1      -18.0810  -16.3650   13.0810 N.pl3 130  ARG130      0.1354
     79  NH2      -17.1090  -15.9530   11.0680 N.pl3 130  ARG130      0.1354
     80  N        -25.5430  -28.2910    5.9640 N.3   139  ILE139     -0.1245
     81  CA       -25.1770  -27.3390    4.9300 C.3   139  ILE139      0.1561
     82  C        -26.0920  -27.4030    3.7390 C.2   139  ILE139      0.2260
     83  O        -26.4210  -26.3870    3.1650 O.2   139  ILE139     -0.2867
     84  CB       -23.6990  -27.5660    4.4890 C.3   139  ILE139      0.0252
     85  CG1      -22.7720  -27.2250    5.6330 C.3   139  ILE139      0.0019
     86  CG2      -23.2940  -26.7200    3.2720 C.3   139  ILE139      0.0019
     87  CD1      -21.4110  -27.8060    5.4470 C.3   139  ILE139      0.0001
     88  N        -29.5400  -25.5390    3.8860 N.3   142  LEU142     -0.1231
     89  CA       -29.5070  -24.0910    3.7490 C.3   142  LEU142      0.1693
     90  C        -28.9340  -23.6570    2.4140 C.2   142  LEU142      0.2592
     91  O        -28.8850  -22.4710    2.1260 O.2   142  LEU142     -0.2718
     92  CB       -28.6820  -23.4890    4.8800 C.3   142  LEU142      0.0284
     93  CG       -29.2860  -23.5750    6.2940 C.3   142  LEU142      0.0019
     94  CD1      -28.3330  -23.0140    7.3080 C.3   142  LEU142      0.0001
     95  CD2      -30.6020  -22.8610    6.4500 C.3   142  LEU142      0.0001
     96  N        -28.5030  -24.6010    1.6000 N.am  143  LYS143     -0.1966
     97  CA       -27.9670  -24.2680    0.2950 C.3   143  LYS143      0.1728
     98  C        -29.1300  -23.7970   -0.5320 C.2   143  LYS143      0.2616
     99  O        -30.1620  -24.4370   -0.5740 O.2   143  LYS143     -0.2715
    100  CB       -27.2510  -25.4540   -0.3500 C.3   143  LYS143      0.0311
    101  CG       -26.7910  -25.2990   -1.7890 C.3   143  LYS143      0.0038
    102  CD       -25.5290  -24.4700   -1.8490 C.3   143  LYS143      0.0206
    103  CE       -24.8980  -24.6340   -3.2210 C.3   143  LYS143      0.1093
    104  NZ       -25.5610  -23.8150   -4.2140 N.3   143  LYS143     -0.1314
    105  N        -28.9480  -22.6560   -1.1720 N.am  144  GLY144     -0.1955
    106  CA       -29.9640  -22.0190   -1.9910 C.3   144  GLY144      0.1869
    107  C        -30.6780  -20.8560   -1.3330 C.2   144  GLY144      0.2309
    108  O        -31.5770  -20.2820   -1.9070 O.2   144  GLY144     -0.2863
    109  N        -28.8480  -18.2720    0.2850 N.3   146  SER146     -0.1217
    110  CA       -28.0360  -17.0770    0.2390 C.3   146  SER146      0.1889
    111  C        -28.7460  -16.0580   -0.6100 C.2   146  SER146      0.2288
    112  O        -29.4280  -16.4190   -1.5590 O.2   146  SER146     -0.2866
    113  CB       -26.6400  -17.3430   -0.3430 C.3   146  SER146      0.2089
    114  OG       -26.6630  -17.3610   -1.7570 O.3   146  SER146     -0.2183
    115  N        -28.3780  -13.0570    3.7340 N.3   161  PHE161     -0.1227
    116  CA       -27.6480  -14.3060    3.9850 C.3   161  PHE161      0.1736
    117  C        -26.5380  -14.4760    2.9770 C.2   161  PHE161      0.2595
    118  O        -26.7950  -14.4660    1.7790 O.2   161  PHE161     -0.2718
    119  CB       -28.6120  -15.5010    3.8710 C.3   161  PHE161      0.0547
    120  CG       -28.0200  -16.8460    4.2910 C.ar  161  PHE161     -0.0202
    121  CD1      -26.9100  -16.9240    5.1260 C.ar  161  PHE161     -0.0042
    122  CD2      -28.5900  -18.0320    3.8630 C.ar  161  PHE161     -0.0042
    123  CE1      -26.3900  -18.1440    5.5050 C.ar  161  PHE161     -0.0003
    124  CE2      -28.0690  -19.2420    4.2580 C.ar  161  PHE161     -0.0003
    125  CZ       -26.9700  -19.2890    5.0740 C.ar  161  PHE161     -0.0000
    126  N        -25.3080  -14.6430    3.4600 N.am  162  ARG162     -0.1966
    127  CA       -24.1470  -14.7220    2.5800 C.3   162  ARG162      0.1729
    128  C        -23.4330  -16.0680    2.6480 C.2   162  ARG162      0.2617
    129  O        -23.2960  -16.7470    1.6360 O.2   162  ARG162     -0.2715
    130  CB       -23.1610  -13.6260    2.9540 C.3   162  ARG162      0.0348
    131  CG       -21.8720  -13.6150    2.1390 C.3   162  ARG162      0.0492
    132  CD       -21.1270  -12.3490    2.4040 C.3   162  ARG162      0.2205
    133  NE       -20.9890  -12.1250    3.8300 N.pl3 162  ARG162     -0.0865
    134  CZ       -20.5030  -11.0170    4.3530 C.cat 162  ARG162      0.5346
    135  NH1      -20.3830  -10.8800    5.6590 N.pl3 162  ARG162      0.1354
    136  NH2      -20.1290  -10.0380    3.5570 N.pl3 162  ARG162      0.1354
    137  N        -22.9660  -16.4340    3.8410 N.am  163  THR163     -0.1937
    138  CA       -22.1590  -17.6370    4.0590 C.3   163  THR163      0.2028
    139  C        -22.6460  -18.3040    5.3360 C.2   163  THR163      0.2642
    140  O        -23.2480  -17.6580    6.2010 O.2   163  THR163     -0.2714
    141  CB       -20.5480  -17.4900    4.1140 C.3   163  THR163      0.1808
    142  OG1      -20.1090  -16.6830    5.2200 O.3   163  THR163     -0.2208
    143  CG2      -19.9260  -17.0200    2.8010 C.3   163  THR163      0.0379
    144  N        -22.4670  -19.6250    5.3780 N.am  164  ALA164     -0.1963
    145  CA       -22.7610  -20.4180    6.5500 C.3   164  ALA164      0.1728
    146  C        -21.4590  -20.7680    7.2780 C.2   164  ALA164      0.2616
    147  O        -20.4360  -20.9990    6.6450 O.2   164  ALA164     -0.2715
    148  CB       -23.5330  -21.6600    6.1650 C.3   164  ALA164      0.0334
    149  N        -21.4960  -20.6860    8.6100 N.am  165  VAL165     -0.1963
    150  CA       -20.3690  -20.9690    9.5030 C.3   165  VAL165      0.1727
    151  C        -20.3880  -22.4290   10.0350 C.2   165  VAL165      0.2616
    152  O        -21.1470  -22.7820   10.9470 O.2   165  VAL165     -0.2715
    153  CB       -20.3120  -19.9840   10.6470 C.3   165  VAL165      0.0290
    154  CG1      -19.0670  -20.1940   11.4680 C.3   165  VAL165      0.0023
    155  CG2      -20.3080  -18.5900   10.1060 C.3   165  VAL165      0.0023
    156  N        -19.5640  -23.2720    9.4230 N.am  166  SER166     -0.1950
    157  CA       -19.6680  -24.7210    9.5080 C.3   166  SER166      0.1924
    158  C        -18.5020  -25.4470   10.2510 C.2   166  SER166      0.2314
    159  O        -17.3380  -25.0710   10.1400 O.2   166  SER166     -0.2863
    160  CB       -19.8700  -25.2440    8.0720 C.3   166  SER166      0.2116
    161  OG       -21.0410  -24.6480    7.4940 O.3   166  SER166     -0.2180
    162  N        -23.3950  -15.9970    8.3570 N.3   175  ASP175     -0.1239
    163  CA       -22.7860  -14.7240    8.0320 C.3   175  ASP175      0.1674
    164  C        -23.6920  -14.0040    7.0560 C.2   175  ASP175      0.2266
    165  O        -24.2320  -14.5860    6.1240 O.2   175  ASP175     -0.2867
    166  CB       -21.3740  -14.9390    7.4710 C.3   175  ASP175      0.1410
    167  CG       -20.8790  -13.7710    6.6350 C.2   175  ASP175      0.3668
    168  OD1      -20.5020  -12.7080    7.1640 O.co2 175  ASP175     -0.2456
    169  OD2      -20.8210  -13.9280    5.4160 O.co2 175  ASP175     -0.2456
@<TRIPOS>BOND
     1     1     2    1
     2     4     3    2
     3    39    38    1
     4     2     3    1
     5     2     5    1
     6    53    52    2
     7     3    10   am
     8    15    14    1
     9     6     5    1
    10     6     7    1
    11    36    38   ar
    12    36    34   ar
    13     9     7   am
    14    38    37   ar
    15     7     8    2
    16    52    51    1
    17    10    11    1
    18    34    33   ar
    19    25    27   ar
    20    25    23   ar
    21    27    26   ar
    22    14    11    1
    23    14    16    1
    24    37    35   ar
    25    11    12    1
    26    31    30    2
    27    59    58    1
    28    51    50    1
    29    23    22   ar
    30    43    42    2
    31    33    35   ar
    32    33    32    1
    33    26    24   ar
    34    50    42   am
    35    42    41    1
    36    30    29    1
    37    30    40   am
    38    12    17   am
    39    12    13    2
    40    17    18    1
    41    29    32    1
    42    29    28    1
    43    22    24   ar
    44    22    21    1
    45    58    60    1
    46    58    55    1
    47    41    40    1
    48    41    44    1
    49    20    19    2
    50    54    55    1
    51    55    56    1
    52    18    19    1
    53    18    21    1
    54    44    45    1
    55   104   103    1
    56    47    45   ar
    57    47    49   ar
    58    45    46   ar
    59    56    57    2
    60   103   102    1
    61    67    66   ar
    62    63    64    2
    63    63    62    1
    64    49    48   ar
    65    46    48   ar
    66    62    61    1
    67    62    65    1
    68   106   107    1
    69   106   105    1
    70   108   107    2
    71    66    68   ar
    72    66    65    1
    73   102   101    1
    74   101   100    1
    75   114   113    1
    76   112   111    2
    77   105    98   am
    78   111   110    1
    79    99    98    2
    80    98    97    1
    81   100    97    1
    82   113   110    1
    83   110   109    1
    84    97    96    1
    85    96    90   am
    86   129   128    2
    87   118   117    2
    88    91    90    2
    89   131   132    1
    90   131   130    1
    91   132   133    1
    92    90    89    1
    93   127   128    1
    94   127   130    1
    95   127   126    1
    96   128   137   am
    97   143   141    1
    98   117   126   am
    99   117   116    1
   100    83    82    2
   101    86    84    1
   102   136   134    1
   103   115   116    1
   104    82    81    1
   105    89    88    1
   106    89    92    1
   107   133   134    2
   108   137   138    1
   109   122   124   ar
   110   122   120   ar
   111   119   116    1
   112   119   120    1
   113   138   141    1
   114   138   139    1
   115   141   142    1
   116   124   125   ar
   117   120   121   ar
   118   134   135    1
   119    84    81    1
   120    84    85    1
   121    92    93    1
   122    81    80    1
   123   125   123   ar
   124   121   123   ar
   125   139   144   am
   126   139   140    2
   127   144   145    1
   128   169   167   ar
   129    87    85    1
   130   165   164    2
   131   148   145    1
   132    93    95    1
   133    93    94    1
   134   145   146    1
   135   167   168   ar
   136   167   166    1
   137   147   146    2
   138   164   163    1
   139   146   149   am
   140   166   163    1
   141   161   160    1
   142   163   162    1
   143   160   157    1
   144   149   150    1
   145   156   157    1
   146   156   151   am
   147   150   151    1
   148   150   153    1
   149   157   158    1
   150   151   152    2
   151   155   153    1
   152   159   158    2
   153   153   154    1
   154    79    77    1
   155    76    77    2
   156    76    75    1
   157    77    78    1
   158    69    70    1
   159    75    74    1
   160    70    71    1
   161    70    73    1
   162    74    73    1
   163    71    72    2
