@<TRIPOS>MOLECULE
tmp/5etxB00.pdb
 189 185 0 0 0
SMALL
GASTEIGER

@<TRIPOS>ATOM
      1  N          2.3260  -24.8070   34.3840 N.3    54  GLN54      -0.1231
      2  CA         2.3390  -24.6340   35.8450 C.3    54  GLN54       0.1698
      3  C          1.0460  -23.9610   36.3690 C.2    54  GLN54       0.2593
      4  O          0.4270  -23.2110   35.6240 O.2    54  GLN54      -0.2718
      5  CB         3.5600  -23.8150   36.2440 C.3    54  GLN54       0.0381
      6  CG         4.8350  -24.6400   36.0610 C.3    54  GLN54       0.0905
      7  CD         6.0630  -23.8010   36.2890 C.2    54  GLN54       0.2608
      8  OE1        7.0500  -24.3110   36.8520 O.2    54  GLN54      -0.2717
      9  NE2        6.1000  -22.5510   35.8560 N.am   54  GLN54      -0.0878
     10  N          0.6440  -24.2660   37.6210 N.am   55  THR55      -0.1939
     11  CA        -0.5380  -23.6520   38.2630 C.3    55  THR55       0.2028
     12  C         -0.2050  -23.2050   39.6930 C.2    55  THR55       0.2642
     13  O          0.3440  -23.9630   40.4920 O.2    55  THR55      -0.2714
     14  CB        -1.7900  -24.5920   38.2880 C.3    55  THR55       0.1808
     15  OG1       -2.2570  -24.8330   36.9580 O.3    55  THR55      -0.2208
     16  CG2       -2.9370  -23.9900   39.0880 C.3    55  THR55       0.0379
     17  N         -0.5650  -21.9650   40.0040 N.am   56  PHE56      -0.1973
     18  CA        -0.1050  -21.2950   41.2100 C.3    56  PHE56       0.1639
     19  C         -1.1310  -20.2230   41.5420 C.2    56  PHE56       0.2290
     20  O         -2.2730  -20.3010   41.0810 O.2    56  PHE56      -0.2864
     21  CB         1.3290  -20.7440   41.0300 C.3    56  PHE56       0.0560
     22  CG         1.5670  -20.0640   39.7050 C.ar   56  PHE56      -0.0200
     23  CD1        1.6330  -20.7980   38.5420 C.ar   56  PHE56      -0.0042
     24  CD2        1.7260  -18.7000   39.6280 C.ar   56  PHE56      -0.0042
     25  CE1        1.8240  -20.2050   37.3360 C.ar   56  PHE56      -0.0003
     26  CE2        1.9220  -18.1030   38.4140 C.ar   56  PHE56      -0.0003
     27  CZ         1.9650  -18.8580   37.2660 C.ar   56  PHE56      -0.0000
     28  N          4.5820  -14.6810   41.3130 N.3    68  VAL68      -0.1231
     29  CA         5.9830  -15.0130   41.2940 C.3    68  VAL68       0.1692
     30  C          6.4020  -15.2280   39.8530 C.2    68  VAL68       0.2592
     31  O          5.6470  -15.7240   39.0460 O.2    68  VAL68      -0.2718
     32  CB         6.2890  -16.2650   42.1270 C.3    68  VAL68       0.0266
     33  CG1        6.1200  -15.9790   43.6040 C.3    68  VAL68       0.0020
     34  CG2        5.4270  -17.4300   41.6930 C.3    68  VAL68       0.0020
     35  N          7.6240  -14.8110   39.5530 N.am   69  TYR69      -0.1962
     36  CA         8.2250  -14.9490   38.2450 C.3    69  TYR69       0.1771
     37  C          8.4760  -16.4180   37.9000 C.2    69  TYR69       0.2620
     38  O          8.3750  -16.8180   36.7400 O.2    69  TYR69      -0.2715
     39  CB         9.5300  -14.1840   38.1900 C.3    69  TYR69       0.0574
     40  CG        10.1360  -14.2320   36.8280 C.ar   69  TYR69      -0.0198
     41  CD1        9.6420  -13.4420   35.8090 C.ar   69  TYR69      -0.0009
     42  CD2       11.1660  -15.0970   36.5350 C.ar   69  TYR69      -0.0009
     43  CE1       10.1800  -13.4910   34.5490 C.ar   69  TYR69       0.0417
     44  CE2       11.6960  -15.1560   35.2720 C.ar   69  TYR69       0.0417
     45  CZ        11.2030  -14.3410   34.2840 C.ar   69  TYR69       0.1957
     46  OH        11.7310  -14.3660   33.0170 O.3    69  TYR69      -0.2866
     47  N          8.8260  -17.2310   38.8880 N.am   70  HIS70      -0.1959
     48  CA         9.1260  -18.6280   38.5960 C.3    70  HIS70       0.1787
     49  C          7.9110  -19.3380   38.0470 C.2    70  HIS70       0.2620
     50  O          8.0210  -20.4050   37.4390 O.2    70  HIS70      -0.2715
     51  CB         9.7930  -19.3280   39.7890 C.3    70  HIS70       0.0785
     52  CG         8.8800  -19.6900   40.9140 C.ar   70  HIS70       0.0821
     53  ND1        8.8880  -19.0090   42.1110 N.ar   70  HIS70      -0.2267
     54  CD2        8.0370  -20.7370   41.0920 C.ar   70  HIS70       0.1154
     55  CE1        8.0300  -19.5610   42.9460 C.ar   70  HIS70       0.1986
     56  NE2        7.5140  -20.6240   42.3550 N.ar   70  HIS70      -0.2212
     57  N          6.7600  -18.6940   38.1890 N.am   71  GLY71      -0.1954
     58  CA         5.5400  -19.1990   37.5940 C.3    71  GLY71       0.1869
     59  C          5.1880  -18.5920   36.2480 C.2    71  GLY71       0.2309
     60  O          4.8840  -19.3030   35.2920 O.2    71  GLY71      -0.2863
     61  N         13.0120  -10.1540   38.3540 N.3    91  VAL91      -0.1231
     62  CA        13.3400  -11.5770   38.4040 C.3    91  VAL91       0.1692
     63  C         14.1550  -11.9370   39.6520 C.2    91  VAL91       0.2592
     64  O         14.0530  -13.0520   40.1750 O.2    91  VAL91      -0.2718
     65  CB        14.1690  -11.9860   37.1710 C.3    91  VAL91       0.0266
     66  CG1       14.4520  -13.4760   37.1960 C.3    91  VAL91       0.0020
     67  CG2       13.4720  -11.5920   35.8740 C.3    91  VAL91       0.0020
     68  N         14.9830  -11.0000   40.1060 N.am   92  ASP92      -0.1960
     69  CA        15.7610  -11.2040   41.3120 C.3    92  ASP92       0.1840
     70  C         14.9070  -11.1730   42.5440 C.2    92  ASP92       0.2622
     71  O         15.3490  -11.6110   43.5870 O.2    92  ASP92      -0.2715
     72  CB        16.9020  -10.1960   41.4400 C.3    92  ASP92       0.1450
     73  CG        17.9900  -10.6790   42.3970 C.2    92  ASP92       0.3671
     74  OD1       18.8050  -11.5570   42.0080 O.co2  92  ASP92      -0.2456
     75  OD2       18.0550  -10.1570   43.5300 O.co2  92  ASP92      -0.2456
     76  N         13.6690  -10.7100   42.4160 N.am   93  LYS93      -0.1963
     77  CA        12.6890  -10.8310   43.4910 C.3    93  LYS93       0.1728
     78  C         11.6940  -11.9410   43.1650 C.2    93  LYS93       0.2616
     79  O         10.7890  -12.2070   43.9580 O.2    93  LYS93      -0.2715
     80  CB        11.8780   -9.5380   43.6670 C.3    93  LYS93       0.0311
     81  CG        12.5670   -8.4580   44.4140 C.3    93  LYS93       0.0038
     82  CD        11.7730   -7.1870   44.2970 C.3    93  LYS93       0.0206
     83  CE        12.3690   -6.0690   45.1210 C.3    93  LYS93       0.1093
     84  NZ        11.5030   -4.8500   45.1020 N.3    93  LYS93      -0.1314
     85  N         11.8410  -12.5720   42.0030 N.am   94  ASP94      -0.1971
     86  CA        10.8720  -13.5740   41.5560 C.3    94  ASP94       0.1709
     87  C          9.5180  -12.9120   41.5120 C.2    94  ASP94       0.2293
     88  O          8.5490  -13.4940   41.9310 O.2    94  ASP94      -0.2864
     89  CB        10.8770  -14.7450   42.5480 C.3    94  ASP94       0.1436
     90  CG        10.1750  -15.9730   42.0420 C.2    94  ASP94       0.3671
     91  OD1        9.8740  -16.0650   40.8330 O.co2  94  ASP94      -0.2456
     92  OD2        9.9770  -16.8800   42.8840 O.co2  94  ASP94      -0.2456
     93  N          6.2600  -30.4260   51.0130 N.3   145  ILE145     -0.1245
     94  CA         6.5440  -29.5420   49.9170 C.3   145  ILE145      0.1561
     95  C          5.4250  -29.5310   48.8890 C.2   145  ILE145      0.2260
     96  O          5.0230  -28.4840   48.4220 O.2   145  ILE145     -0.2867
     97  CB         7.8620  -29.9950   49.2400 C.3   145  ILE145      0.0252
     98  CG1        8.0840  -29.3420   47.8840 C.3   145  ILE145      0.0019
     99  CG2        7.8730  -31.5180   49.0850 C.3   145  ILE145      0.0019
    100  CD1        9.3140  -29.8350   47.1820 C.3   145  ILE145      0.0001
    101  N          2.1270  -27.6550   49.5090 N.3   148  LEU148     -0.1231
    102  CA         2.2650  -26.2170   49.3220 C.3   148  LEU148      0.1693
    103  C          2.6420  -25.8330   47.9290 C.2   148  LEU148      0.2592
    104  O          2.5800  -24.6630   47.5750 O.2   148  LEU148     -0.2718
    105  CB         3.3850  -25.6970   50.1850 C.3   148  LEU148      0.0284
    106  CG         3.1650  -25.6020   51.6820 C.3   148  LEU148      0.0019
    107  CD1        4.4970  -25.1840   52.3770 C.3   148  LEU148      0.0001
    108  CD2        1.9960  -24.6150   51.9940 C.3   148  LEU148      0.0001
    109  N          3.0530  -26.7940   47.1360 N.am  149  LYS149     -0.1966
    110  CA         3.2980  -26.5200   45.7430 C.3   149  LYS149      0.1728
    111  C          1.9650  -26.0690   45.1490 C.2   149  LYS149      0.2616
    112  O          0.9180  -26.6090   45.4860 O.2   149  LYS149     -0.2715
    113  CB         3.8800  -27.7510   45.0440 C.3   149  LYS149      0.0311
    114  CG         4.2880  -27.5900   43.5880 C.3   149  LYS149      0.0038
    115  CD         4.9710  -28.8880   43.1230 C.3   149  LYS149      0.0206
    116  CE         6.2690  -29.1610   43.8680 C.3   149  LYS149      0.1093
    117  NZ         7.1830  -27.9560   43.7850 N.3   149  LYS149     -0.1314
    118  N          2.0170  -25.0080   44.3500 N.am  150  GLY150     -0.1955
    119  CA         0.8540  -24.4400   43.6970 C.3   150  GLY150      0.1869
    120  C          0.2540  -23.2660   44.4350 C.2   150  GLY150      0.2309
    121  O         -0.7050  -22.6900   43.9830 O.2   150  GLY150     -0.2863
    122  N          2.3800  -20.6360   45.7290 N.3   152  SER152     -0.1217
    123  CA         3.2200  -19.4540   45.6050 C.3   152  SER152      0.1889
    124  C          2.4160  -18.4300   44.7850 C.2   152  SER152      0.2288
    125  O          1.6200  -18.8010   43.9270 O.2   152  SER152     -0.2866
    126  CB         4.5450  -19.7660   44.9370 C.3   152  SER152      0.2089
    127  OG         4.4220  -19.7510   43.5460 O.3   152  SER152     -0.2183
    128  N          3.5280  -15.2030   48.9040 N.3   167  PHE167     -0.1227
    129  CA         4.2080  -16.5090   49.0680 C.3   167  PHE167      0.1736
    130  C          5.1880  -16.7330   47.9210 C.2   167  PHE167      0.2595
    131  O          4.8310  -16.6460   46.7710 O.2   167  PHE167     -0.2718
    132  CB         3.1730  -17.6430   49.1860 C.3   167  PHE167      0.0547
    133  CG         3.7580  -18.9970   49.4800 C.ar  167  PHE167     -0.0202
    134  CD1        5.0400  -19.1350   49.9790 C.ar  167  PHE167     -0.0042
    135  CD2        3.0160  -20.1410   49.2570 C.ar  167  PHE167     -0.0042
    136  CE1        5.5650  -20.3750   50.2390 C.ar  167  PHE167     -0.0003
    137  CE2        3.5420  -21.3840   49.5120 C.ar  167  PHE167     -0.0003
    138  CZ         4.8140  -21.5010   50.0150 C.ar  167  PHE167     -0.0000
    139  N          6.4370  -17.0020   48.2520 N.am  168  ARG168     -0.1966
    140  CA         7.4840  -17.1180   47.2250 C.3   168  ARG168      0.1729
    141  C          8.2420  -18.4650   47.1980 C.2   168  ARG168      0.2617
    142  O          8.3410  -19.0990   46.1380 O.2   168  ARG168     -0.2715
    143  CB         8.4610  -15.9570   47.3720 C.3   168  ARG168      0.0348
    144  CG         9.6120  -15.9460   46.3400 C.3   168  ARG168      0.0492
    145  CD        10.4360  -14.6190   46.3440 C.3   168  ARG168      0.2205
    146  NE        10.8030  -14.2340   47.7040 N.pl3 168  ARG168     -0.0865
    147  CZ        11.4780  -13.1420   48.0490 C.cat 168  ARG168      0.5346
    148  NH1       11.7420  -12.9250   49.3300 N.pl3 168  ARG168      0.1354
    149  NH2       11.9500  -12.3020   47.1440 N.pl3 168  ARG168      0.1354
    150  N          8.8080  -18.8150   48.3500 N.am  169  THR169     -0.1937
    151  CA         9.6710  -19.9610   48.5570 C.3   169  THR169      0.2028
    152  C          9.3450  -20.7820   49.7930 C.2   169  THR169      0.2642
    153  O          9.1370  -20.2240   50.8520 O.2   169  THR169     -0.2714
    154  CB        11.1190  -19.4560   48.8400 C.3   169  THR169      0.1808
    155  OG1       11.5940  -18.6540   47.7680 O.3   169  THR169     -0.2208
    156  CG2       12.0910  -20.5820   49.0790 C.3   169  THR169      0.0379
    157  N          9.3580  -22.1050   49.6670 N.am  170  ALA170     -0.1963
    158  CA         9.1340  -22.9570   50.8180 C.3   170  ALA170      0.1728
    159  C         10.4790  -23.4060   51.2970 C.2   170  ALA170      0.2616
    160  O         11.3120  -23.7880   50.4860 O.2   170  ALA170     -0.2715
    161  CB         8.3380  -24.1460   50.3980 C.3   170  ALA170      0.0334
    162  N         10.7190  -23.3670   52.6040 N.am  171  VAL171     -0.1963
    163  CA        12.0430  -23.7380   53.0830 C.3   171  VAL171      0.1727
    164  C         12.0610  -25.2400   53.3620 C.2   171  VAL171      0.2617
    165  O         11.8920  -25.6640   54.5000 O.2   171  VAL171     -0.2715
    166  CB        12.4080  -22.9540   54.3670 C.3   171  VAL171      0.0290
    167  CG1       13.8310  -23.3390   54.8710 C.3   171  VAL171      0.0023
    168  CG2       12.2570  -21.4530   54.1170 C.3   171  VAL171      0.0023
    169  N         12.3870  -26.0250   52.3380 N.am  172  SER172     -0.1936
    170  CA        12.1070  -27.4540   52.3820 C.3   172  SER172      0.2055
    171  C         13.3970  -28.2400   52.5690 C.2   172  SER172      0.2643
    172  O         14.2720  -28.2340   51.7050 O.2   172  SER172     -0.2714
    173  CB        11.3330  -27.9020   51.1210 C.3   172  SER172      0.2130
    174  OG        10.0540  -27.2570   51.0120 O.3   172  SER172     -0.2179
    175  N         13.4730  -28.9590   53.6750 N.am  173  THR173     -0.1950
    176  CA        14.5970  -29.8230   53.9670 C.3   173  THR173      0.1897
    177  C         14.0320  -31.2270   54.0280 C.2   173  THR173      0.2313
    178  O         13.0510  -31.4620   54.7140 O.2   173  THR173     -0.2863
    179  CB        15.2390  -29.4730   55.3060 C.3   173  THR173      0.1794
    180  OG1       14.4010  -28.5550   56.0020 O.3   173  THR173     -0.2208
    181  CG2       16.6000  -28.8580   55.0840 C.3   173  THR173      0.0378
    182  N          9.0700  -18.3010   52.8340 N.3   181  ASP181     -0.1239
    183  CA         9.5280  -16.9550   52.4800 C.3   181  ASP181      0.1674
    184  C          8.5180  -16.2130   51.5810 C.2   181  ASP181      0.2266
    185  O          7.8650  -16.7980   50.7110 O.2   181  ASP181     -0.2867
    186  CB        10.9560  -16.9950   51.9140 C.3   181  ASP181      0.1410
    187  CG        11.4030  -15.6950   51.3230 C.2   181  ASP181      0.3668
    188  OD1       11.0120  -14.6250   51.8080 O.co2 181  ASP181     -0.2456
    189  OD2       12.1690  -15.7380   50.3560 O.co2 181  ASP181     -0.2456
@<TRIPOS>BOND
     1    46    45    1
     2    45    43   ar
     3    45    44   ar
     4     1     2    1
     5    43    41   ar
     6    44    42   ar
     7    60    59    2
     8     4     3    2
     9    41    40   ar
    10     2     5    1
    11     2     3    1
    12     9     7   am
    13    67    65    1
    14     6     5    1
    15     6     7    1
    16    59    58    1
    17     7     8    2
    18     3    10   am
    19    42    40   ar
    20    38    37    2
    21    40    39    1
    22    15    14    1
    23    65    66    1
    24    65    62    1
    25    27    25   ar
    26    27    26   ar
    27    25    23   ar
    28    50    49    2
    29    58    57    1
    30    10    11    1
    31    37    36    1
    32    37    47   am
    33    49    57   am
    34    49    48    1
    35    39    36    1
    36    36    35    1
    37    11    14    1
    38    11    12    1
    39    14    16    1
    40    61    62    1
    41    62    63    1
    42    26    24   ar
    43    23    22   ar
    44    48    47    1
    45    48    51    1
    46    31    30    2
    47    35    30   am
    48    24    22   ar
    49    63    68   am
    50    63    64    2
    51    12    17   am
    52    12    13    2
    53    22    21    1
    54    51    52    1
    55    30    29    1
    56    17    18    1
    57    68    69    1
    58    91    90   ar
    59    52    54   ar
    60    52    53   ar
    61    21    18    1
    62    20    19    2
    63    54    56   ar
    64    18    19    1
    65    29    28    1
    66    29    32    1
    67    69    72    1
    68    69    70    1
    69    72    73    1
    70    87    86    1
    71    87    88    2
    72    86    85    1
    73    86    89    1
    74    34    32    1
    75    85    78   am
    76    74    73   ar
    77    90    89    1
    78    90    92   ar
    79    53    55   ar
    80    32    33    1
    81    56    55   ar
    82    73    75   ar
    83    76    70   am
    84    76    77    1
    85    70    71    2
    86   115   114    1
    87   115   116    1
    88    78    77    1
    89    78    79    2
    90    77    80    1
    91   127   126    1
    92   114   113    1
    93    80    81    1
    94   119   118    1
    95   119   120    1
    96   117   116    1
    97   125   124    2
    98   121   120    2
    99    82    81    1
   100    82    83    1
   101   118   111   am
   102   124   123    1
   103   126   123    1
   104   113   110    1
   105    84    83    1
   106   111   112    2
   107   111   110    1
   108   123   122    1
   109   110   109    1
   110   142   141    2
   111   144   145    1
   112   144   143    1
   113   145   146    1
   114   131   130    2
   115   109   103   am
   116   149   147    1
   117   100    98    1
   118   141   140    1
   119   141   150   am
   120   140   143    1
   121   140   139    1
   122   104   103    2
   123   146   147    2
   124   155   154    1
   125    98    97    1
   126   130   139   am
   127   130   129    1
   128   103   102    1
   129   147   148    1
   130   150   151    1
   131    96    95    2
   132   151   154    1
   133   151   152    1
   134   154   156    1
   135    95    94    1
   136   128   129    1
   137   129   132    1
   138    99    97    1
   139   132   133    1
   140    97    94    1
   141   135   133   ar
   142   135   137   ar
   143   102   101    1
   144   102   105    1
   145   133   134   ar
   146   137   138   ar
   147   157   152   am
   148   157   158    1
   149   152   153    2
   150    94    93    1
   151   134   136   ar
   152   138   136   ar
   153   105   106    1
   154   189   187   ar
   155   161   158    1
   156   160   159    2
   157   185   184    2
   158   158   159    1
   159   174   173    1
   160   173   170    1
   161   159   162   am
   162   187   188   ar
   163   187   186    1
   164   184   183    1
   165   106   108    1
   166   106   107    1
   167   172   171    2
   168   186   183    1
   169   169   170    1
   170   169   164   am
   171   170   171    1
   172   183   182    1
   173   171   175   am
   174   162   163    1
   175   163   164    1
   176   163   166    1
   177   164   165    2
   178   175   176    1
   179   176   177    1
   180   176   179    1
   181   177   178    2
   182   168   166    1
   183   166   167    1
   184   181   179    1
   185   179   180    1
