@<TRIPOS>MOLECULE
tmp/5etyD00.pdb
 158 159 0 0 0
SMALL
GASTEIGER

@<TRIPOS>ATOM
      1  N        -40.3330  -17.3960  -12.6090 N.3    78  HIS78      -0.1226
      2  CA       -40.8240  -18.4090  -13.5180 C.3    78  HIS78       0.1752
      3  C        -39.6720  -19.1200  -14.2240 C.2    78  HIS78       0.2597
      4  O        -38.7730  -18.4800  -14.7680 O.2    78  HIS78      -0.2718
      5  CB       -41.7690  -17.8180  -14.5650 C.3    78  HIS78       0.0759
      6  CG       -42.1870  -18.8060  -15.6160 C.ar   78  HIS78       0.0818
      7  ND1      -43.0200  -19.8700  -15.3420 N.ar   78  HIS78      -0.2268
      8  CD2      -41.8470  -18.9210  -16.9270 C.ar   78  HIS78       0.1154
      9  CE1      -43.1930  -20.5800  -16.4450 C.ar   78  HIS78       0.1986
     10  NE2      -42.4890  -20.0280  -17.4200 N.ar   78  HIS78      -0.2212
     11  N        -39.7360  -20.4530  -14.2380 N.am   79  GLY79      -0.1942
     12  CA       -38.8180  -21.2870  -15.0020 C.3    79  GLY79       0.2014
     13  C        -39.5100  -22.2290  -15.9770 C.2    79  GLY79       0.2640
     14  O        -40.3800  -23.0160  -15.6040 O.2    79  GLY79      -0.2714
     15  N        -39.1180  -22.1230  -17.2430 N.am   80  SER80      -0.1936
     16  CA       -39.5130  -23.0730  -18.2850 C.3    80  SER80       0.2040
     17  C        -38.5890  -22.9270  -19.5210 C.2    80  SER80       0.2485
     18  O        -37.8360  -21.9420  -19.6280 O.2    80  SER80      -0.2729
     19  CB       -40.9930  -22.8930  -18.6790 C.3    80  SER80       0.2129
     20  OG       -41.2320  -21.5970  -19.1840 O.3    80  SER80      -0.2179
     21  N        -38.6600  -23.9040  -20.4570 N.am   81  PRO81      -0.2715
     22  CA       -37.9850  -23.7590  -21.7520 C.3    81  PRO81       0.1536
     23  C        -38.3990  -22.5710  -22.6610 C.2    81  PRO81       0.2598
     24  O        -37.6830  -22.3000  -23.6140 O.2    81  PRO81      -0.2715
     25  CB       -38.3050  -25.0830  -22.4600 C.3    81  PRO81       0.0310
     26  CG       -38.5200  -26.0680  -21.3600 C.3    81  PRO81       0.0237
     27  CD       -39.1290  -25.2900  -20.2310 C.3    81  PRO81       0.0939
     28  N        -39.5000  -21.8600  -22.3850 N.am   82  PHE82      -0.1974
     29  CA       -40.1220  -20.9880  -23.4080 C.3    82  PHE82       0.1639
     30  C        -39.9820  -19.5100  -23.1120 C.2    82  PHE82       0.2290
     31  O        -40.7490  -18.6860  -23.6280 O.2    82  PHE82      -0.2864
     32  CB       -41.5760  -21.3720  -23.5690 C.3    82  PHE82       0.0560
     33  CG       -41.7880  -22.8490  -23.5270 C.ar   82  PHE82      -0.0200
     34  CD1      -41.7000  -23.5990  -24.6730 C.ar   82  PHE82      -0.0042
     35  CD2      -41.9950  -23.4970  -22.3090 C.ar   82  PHE82      -0.0042
     36  CE1      -41.8610  -24.9720  -24.6330 C.ar   82  PHE82      -0.0003
     37  CE2      -42.1380  -24.8720  -22.2600 C.ar   82  PHE82      -0.0003
     38  CZ       -42.0840  -25.6130  -23.4290 C.ar   82  PHE82      -0.0000
     39  N        -39.9570  -17.1360  -26.1390 N.3    85  ALA85      -0.1231
     40  CA       -41.2860  -16.7960  -26.6040 C.3    85  ALA85       0.1694
     41  C        -41.8900  -15.7300  -25.7030 C.2    85  ALA85       0.2591
     42  O        -42.3800  -14.6760  -26.1470 O.2    85  ALA85      -0.2718
     43  CB       -42.1580  -18.0290  -26.6070 C.3    85  ALA85       0.0304
     44  N        -41.8150  -16.0150  -24.4200 N.am   86  ILE86      -0.1980
     45  CA       -42.5200  -15.2520  -23.4180 C.3    86  ILE86       0.1595
     46  C        -42.1550  -13.7740  -23.3850 C.2    86  ILE86       0.2287
     47  O        -43.0090  -12.9370  -23.0950 O.2    86  ILE86      -0.2864
     48  CB       -42.2900  -15.9060  -22.0430 C.3    86  ILE86       0.0276
     49  CG1      -43.1170  -17.1920  -21.9550 C.3    86  ILE86       0.0022
     50  CG2      -42.6400  -14.9620  -20.9040 C.3    86  ILE86       0.0022
     51  CD1      -42.6070  -18.1960  -20.9440 C.3    86  ILE86       0.0001
     52  N        -43.9660  -12.1420  -26.4980 N.3    89  LYS89      -0.1231
     53  CA       -45.4060  -12.3760  -26.6040 C.3    89  LYS89       0.1693
     54  C        -46.1260  -12.1580  -25.2960 C.2    89  LYS89       0.2593
     55  O        -47.2340  -11.6290  -25.2820 O.2    89  LYS89      -0.2718
     56  CB       -45.6630  -13.8180  -27.0310 C.3    89  LYS89       0.0285
     57  CG       -44.8580  -14.2980  -28.2230 C.3    89  LYS89       0.0035
     58  CD       -45.4560  -13.8920  -29.5400 C.3    89  LYS89       0.0206
     59  CE       -45.7150  -12.4060  -29.6220 C.3    89  LYS89       0.1093
     60  NZ       -45.7600  -11.9800  -31.0430 N.3    89  LYS89      -0.1314
     61  N        -45.5130  -12.5960  -24.1990 N.am   90  GLY90      -0.1942
     62  CA       -46.1610  -12.6190  -22.8970 C.3    90  GLY90       0.2014
     63  C        -46.5770  -14.0360  -22.5720 C.2    90  GLY90       0.2639
     64  O        -46.5450  -14.9150  -23.4330 O.2    90  GLY90      -0.2714
     65  N        -46.9780  -14.2740  -21.3330 N.am   91  PHE91      -0.1959
     66  CA       -47.3950  -15.5970  -20.9930 C.3    91  PHE91       0.1771
     67  C        -48.6770  -15.7710  -21.7330 C.2    91  PHE91       0.2619
     68  O        -49.3990  -14.7920  -21.9840 O.2    91  PHE91      -0.2715
     69  CB       -47.6020  -15.7160  -19.5140 C.3    91  PHE91       0.0574
     70  CG       -46.3340  -15.5510  -18.7060 C.ar   91  PHE91      -0.0200
     71  CD1      -45.9240  -14.3020  -18.2740 C.ar   91  PHE91      -0.0042
     72  CD2      -45.5770  -16.6580  -18.3480 C.ar   91  PHE91      -0.0042
     73  CE1      -44.7820  -14.1550  -17.5200 C.ar   91  PHE91      -0.0003
     74  CE2      -44.4240  -16.5190  -17.5940 C.ar   91  PHE91      -0.0003
     75  CZ       -44.0290  -15.2640  -17.1860 C.ar   91  PHE91      -0.0000
     76  N        -48.9660  -17.0060  -22.1170 N.am   92  ASP92      -0.1971
     77  CA       -50.1450  -17.2720  -22.9540 C.3    92  ASP92       0.1709
     78  C        -50.7450  -18.6210  -22.6050 C.2    92  ASP92       0.2293
     79  O        -50.2450  -19.6670  -22.9720 O.2    92  ASP92      -0.2864
     80  CB       -49.7490  -17.1790  -24.4230 C.3    92  ASP92       0.1436
     81  CG       -50.9100  -17.3510  -25.3770 C.2    92  ASP92       0.3671
     82  OD1      -52.0480  -17.5720  -24.9610 O.co2  92  ASP92      -0.2456
     83  OD2      -50.6490  -17.2620  -26.5900 O.co2  92  ASP92      -0.2456
     84  N        -51.1540  -21.9640  -24.5740 N.3    95  HIS95      -0.1226
     85  CA       -50.0410  -22.9060  -24.6300 C.3    95  HIS95       0.1752
     86  C        -49.9090  -23.7020  -23.3210 C.2    95  HIS95       0.2596
     87  O        -48.9200  -24.4110  -23.1140 O.2    95  HIS95      -0.2718
     88  CB       -48.7260  -22.1640  -24.8910 C.3    95  HIS95       0.0759
     89  CG       -48.5020  -21.7480  -26.3150 C.ar   95  HIS95       0.0818
     90  ND1      -48.1080  -22.6340  -27.3000 N.ar   95  HIS95      -0.2268
     91  CD2      -48.5210  -20.5250  -26.8980 C.ar   95  HIS95       0.1154
     92  CE1      -47.9300  -21.9810  -28.4330 C.ar   95  HIS95       0.1986
     93  NE2      -48.1760  -20.7010  -28.2150 N.ar   95  HIS95      -0.2212
     94  N        -50.8880  -23.5980  -22.4310 N.am   96  ALA96      -0.1966
     95  CA       -50.8560  -24.3640  -21.2010 C.3    96  ALA96       0.1728
     96  C        -51.9110  -25.4310  -21.2980 C.2    96  ALA96       0.2616
     97  O        -53.0760  -25.1260  -21.5930 O.2    96  ALA96      -0.2715
     98  CB       -51.1170  -23.4550  -20.0070 C.3    96  ALA96       0.0334
     99  N        -51.5250  -26.6760  -21.0150 N.am   97  TYR97      -0.1974
    100  CA       -52.4550  -27.8110  -21.1420 C.3    97  TYR97       0.1639
    101  C        -52.7480  -28.4780  -19.7980 C.2    97  TYR97       0.2290
    102  O        -52.1020  -28.2010  -18.7840 O.2    97  TYR97      -0.2864
    103  CB       -51.9260  -28.8290  -22.1570 C.3    97  TYR97       0.0560
    104  CG       -51.6030  -28.1940  -23.4920 C.ar   97  TYR97      -0.0198
    105  CD1      -50.4250  -27.4660  -23.6630 C.ar   97  TYR97      -0.0009
    106  CD2      -52.4910  -28.2790  -24.5670 C.ar   97  TYR97      -0.0009
    107  CE1      -50.1330  -26.8510  -24.8630 C.ar   97  TYR97       0.0417
    108  CE2      -52.2050  -27.6610  -25.7740 C.ar   97  TYR97       0.0417
    109  CZ       -51.0190  -26.9490  -25.9120 C.ar   97  TYR97       0.1957
    110  OH       -50.6920  -26.3450  -27.1100 O.3    97  TYR97      -0.2866
    111  N        -52.4690  -24.1430  -16.1400 N.3   105  GLY105     -0.1210
    112  CA       -51.9920  -22.8890  -15.6040 C.3   105  GLY105      0.1956
    113  C        -50.5460  -22.5960  -15.9850 C.2   105  GLY105      0.2612
    114  O        -49.8870  -23.3710  -16.6940 O.2   105  GLY105     -0.2717
    115  N        -50.1090  -21.4290  -15.5290 N.am  106  ILE106     -0.1965
    116  CA       -48.7860  -20.9220  -15.7200 C.3   106  ILE106      0.1727
    117  C        -48.1530  -20.9060  -14.3450 C.2   106  ILE106      0.2616
    118  O        -48.6990  -20.2880  -13.4510 O.2   106  ILE106     -0.2715
    119  CB       -48.8420  -19.4880  -16.2740 C.3   106  ILE106      0.0290
    120  CG1      -49.5800  -19.4590  -17.6140 C.3   106  ILE106      0.0022
    121  CG2      -47.4370  -18.9510  -16.4820 C.3   106  ILE106      0.0023
    122  CD1      -50.4810  -18.2710  -17.7750 C.3   106  ILE106      0.0001
    123  N        -46.9930  -21.5390  -14.1790 N.am  107  TYR107     -0.1974
    124  CA       -46.4850  -21.8980  -12.8650 C.3   107  TYR107      0.1639
    125  C        -45.3610  -21.0230  -12.3880 C.2   107  TYR107      0.2290
    126  O        -44.3900  -20.8710  -13.0820 O.2   107  TYR107     -0.2864
    127  CB       -46.0170  -23.3490  -12.9130 C.3   107  TYR107      0.0560
    128  CG       -47.1400  -24.3440  -13.0850 C.ar  107  TYR107     -0.0198
    129  CD1      -47.7780  -24.5190  -14.3100 C.ar  107  TYR107     -0.0009
    130  CD2      -47.5680  -25.1160  -12.0140 C.ar  107  TYR107     -0.0009
    131  CE1      -48.7960  -25.4400  -14.4690 C.ar  107  TYR107      0.0417
    132  CE2      -48.5880  -26.0320  -12.1600 C.ar  107  TYR107      0.0417
    133  CZ       -49.1910  -26.1950  -13.3880 C.ar  107  TYR107      0.1957
    134  OH       -50.2120  -27.1120  -13.5140 O.3   107  TYR107     -0.2866
    135  N        -37.2780  -26.1980  -13.4270 N.3   118  TYR118     -0.1241
    136  CA       -38.1180  -26.2960  -14.6490 C.3   118  TYR118      0.1605
    137  C        -37.5390  -25.6910  -15.9220 C.2   118  TYR118      0.2264
    138  O        -38.1230  -25.8120  -16.9750 O.2   118  TYR118     -0.2867
    139  CB       -39.4790  -25.6870  -14.3590 C.3   118  TYR118      0.0534
    140  CG       -40.2310  -26.5180  -13.3710 C.ar  118  TYR118     -0.0201
    141  CD1      -40.6170  -27.8030  -13.6850 C.ar  118  TYR118     -0.0009
    142  CD2      -40.5250  -26.0420  -12.1030 C.ar  118  TYR118     -0.0009
    143  CE1      -41.3000  -28.5900  -12.7820 C.ar  118  TYR118      0.0417
    144  CE2      -41.2150  -26.8280  -11.1960 C.ar  118  TYR118      0.0417
    145  CZ       -41.5980  -28.1070  -11.5460 C.ar  118  TYR118      0.1957
    146  OH       -42.2770  -28.9170  -10.6680 O.3   118  TYR118     -0.2866
    147  N        -37.2400  -28.2820  -18.5650 N.3   121  GLY121     -0.1210
    148  CA       -38.4380  -29.0990  -18.6850 C.3   121  GLY121      0.1956
    149  C        -38.9070  -29.5420  -17.3160 C.2   121  GLY121      0.2611
    150  O        -38.3220  -29.1860  -16.3010 O.2   121  GLY121     -0.2717
    151  N        -39.9750  -30.3260  -17.3000 N.am  122  ILE122     -0.1979
    152  CA       -40.5120  -30.8860  -16.0660 C.3   122  ILE122      0.1595
    153  C        -39.5180  -31.8820  -15.4830 C.2   122  ILE122      0.2287
    154  O        -39.1000  -32.8300  -16.1590 O.2   122  ILE122     -0.2864
    155  CB       -41.8640  -31.5800  -16.3180 C.3   122  ILE122      0.0276
    156  CG1      -42.9590  -30.5350  -16.5220 C.3   122  ILE122      0.0022
    157  CG2      -42.2370  -32.5170  -15.1720 C.3   122  ILE122      0.0022
    158  CD1      -44.0050  -30.9640  -17.5310 C.3   122  ILE122      0.0001
@<TRIPOS>BOND
     1    60    59    1
     2    59    58    1
     3    58    57    1
     4    92    93   ar
     5    92    90   ar
     6    57    56    1
     7    93    91   ar
     8    90    89   ar
     9   110   109    1
    10    56    53    1
    11    91    89   ar
    12    43    40    1
    13    40    39    1
    14    40    41    1
    15    53    52    1
    16    53    54    1
    17    83    81   ar
    18    89    88    1
    19    42    41    2
    20   109   108   ar
    21   109   107   ar
    22   108   106   ar
    23    41    44   am
    24    81    82   ar
    25    81    80    1
    26    54    55    2
    27    54    61   am
    28    88    85    1
    29   107   105   ar
    30    34    36   ar
    31    34    33   ar
    32    36    38   ar
    33    85    84    1
    34    85    86    1
    35   106   104   ar
    36    80    77    1
    37    44    45    1
    38    61    62    1
    39   105   104   ar
    40    31    30    2
    41    24    23    2
    42    32    33    1
    43    32    29    1
    44    33    35   ar
    45   104   103    1
    46    64    63    2
    47    38    37   ar
    48    45    46    1
    49    45    48    1
    50    29    30    1
    51    29    28    1
    52    46    47    2
    53    86    87    2
    54    86    94   am
    55    79    78    2
    56    77    78    1
    57    77    76    1
    58    62    63    1
    59    23    28   am
    60    23    22    1
    61    63    65   am
    62    25    22    1
    63    25    26    1
    64    94    95    1
    65    35    37   ar
    66   103   100    1
    67    76    67   am
    68    48    49    1
    69    48    50    1
    70    68    67    2
    71    49    51    1
    72    22    21    1
    73    67    66    1
    74    97    96    2
    75    26    27    1
    76    65    66    1
    77    96    95    1
    78    96    99   am
    79    95    98    1
    80   100    99    1
    81   100   101    1
    82    66    69    1
    83    21    27    1
    84    21    17   am
    85   101   102    2
    86    18    17    2
    87    17    16    1
    88    69    70    1
    89    20    19    1
    90    70    72   ar
    91    70    71   ar
    92   148   147    1
    93   148   149    1
    94    19    16    1
    95    72    74   ar
    96    16    15    1
    97    71    73   ar
    98   122   120    1
    99   120   119    1
   100    74    75   ar
   101   158   156    1
   102    73    75   ar
   103    10     8   ar
   104    10     9   ar
   105   149   151   am
   106   149   150    2
   107   151   152    1
   108    15    13   am
   109   138   137    2
   110     8     6   ar
   111   114   113    2
   112   156   155    1
   113   121   119    1
   114     9     7   ar
   115   155   152    1
   116   155   157    1
   117   119   116    1
   118   154   153    2
   119   111   112    1
   120   152   153    1
   121   113   112    1
   122   113   115   am
   123    13    14    2
   124    13    12    1
   125   137   136    1
   126   116   115    1
   127   116   117    1
   128     6     7   ar
   129     6     5    1
   130    12    11    1
   131     4     3    2
   132   136   139    1
   133   136   135    1
   134     5     2    1
   135   131   129   ar
   136   131   133   ar
   137   139   140    1
   138   117   123   am
   139   117   118    2
   140   129   128   ar
   141    11     3   am
   142     3     2    1
   143   123   124    1
   144   141   140   ar
   145   141   143   ar
   146     2     1    1
   147   134   133    1
   148   133   132   ar
   149   140   142   ar
   150   128   127    1
   151   128   130   ar
   152   126   125    2
   153   127   124    1
   154   124   125    1
   155   143   145   ar
   156   132   130   ar
   157   142   144   ar
   158   145   144   ar
   159   145   146    1
