@<TRIPOS>MOLECULE
tmp/5etzB05.pdb
 82 76 0 0 0
SMALL
GASTEIGER

@<TRIPOS>ATOM
      1  N         15.7090   17.7730   10.8910 N.3   131  LYS131     -0.1245
      2  CA        15.7740   17.0030    9.6530 C.3   131  LYS131      0.1561
      3  C         16.8240   15.8920    9.7290 C.2   131  LYS131      0.2260
      4  O         16.6200   14.8100    9.1850 O.2   131  LYS131     -0.2867
      5  CB        16.0600   17.9310    8.4720 C.3   131  LYS131      0.0271
      6  CG        14.9260   18.9140    8.1890 C.3   131  LYS131      0.0035
      7  CD        15.2610   19.8300    7.0190 C.3   131  LYS131      0.0206
      8  CE        14.2290   20.9420    6.8870 C.3   131  LYS131      0.1093
      9  NZ        14.6370   21.9530    5.8750 N.3   131  LYS131     -0.1314
     10  N         15.2750   13.1470   11.8140 N.3   134  THR134     -0.1218
     11  CA        14.2390   12.4500   11.0580 C.3   134  THR134      0.1862
     12  C         14.8370   11.5050   10.0120 C.2   134  THR134      0.2287
     13  O         14.4280   10.3460    9.8940 O.2   134  THR134     -0.2866
     14  CB        13.3050   13.4610   10.3480 C.3   134  THR134      0.1770
     15  OG1       12.7550   14.3620   11.3170 O.3   134  THR134     -0.2211
     16  CG2       12.1630   12.7380    9.6440 C.3   134  THR134      0.0375
     17  N         14.5810    7.2790   10.5220 N.3   138  PHE138     -0.1241
     18  CA        13.8540    6.4940    9.5360 C.3   138  PHE138      0.1605
     19  C         14.7870    5.6490    8.6780 C.2   138  PHE138      0.2264
     20  O         14.3940    4.5930    8.1720 O.2   138  PHE138     -0.2867
     21  CB        12.9640    7.4080    8.6890 C.3   138  PHE138      0.0534
     22  CG        11.6690    7.7500    9.3700 C.ar  138  PHE138     -0.0203
     23  CD1       10.6150    6.8400    9.3730 C.ar  138  PHE138     -0.0042
     24  CD2       11.5410    8.9290   10.1010 C.ar  138  PHE138     -0.0042
     25  CE1        9.4530    7.0940   10.1000 C.ar  138  PHE138     -0.0003
     26  CE2       10.3860    9.1950   10.8320 C.ar  138  PHE138     -0.0003
     27  CZ         9.3410    8.2770   10.8350 C.ar  138  PHE138     -0.0000
     28  N          7.2120   -2.0360    4.7580 N.3   165  ILE165     -0.1245
     29  CA         7.4630   -1.1200    5.8670 C.3   165  ILE165      0.1561
     30  C          8.7990   -0.4100    5.6460 C.2   165  ILE165      0.2260
     31  O          8.9220    0.7890    5.8790 O.2   165  ILE165     -0.2867
     32  CB         7.5230   -1.8750    7.2150 C.3   165  ILE165      0.0252
     33  CG1        6.1570   -2.4850    7.5350 C.3   165  ILE165      0.0019
     34  CG2        7.9570   -0.9210    8.3290 C.3   165  ILE165      0.0019
     35  CD1        6.1600   -3.3860    8.7670 C.3   165  ILE165      0.0001
     36  N          8.5550    2.2600    3.0160 N.3   168  ALA168     -0.1231
     37  CA         7.8890    3.4450    3.5440 C.3   168  ALA168      0.1694
     38  C          8.9040    4.3330    4.2620 C.2   168  ALA168      0.2592
     39  O          8.8700    5.5570    4.1350 O.2   168  ALA168     -0.2718
     40  CB         6.7660    3.0420    4.5060 C.3   168  ALA168      0.0304
     41  N          9.8070    3.7110    5.0170 N.am  169  CYS169     -0.1970
     42  CA        10.8310    4.4560    5.7450 C.3   169  CYS169      0.1712
     43  C         11.8150    5.0890    4.7610 C.2   169  CYS169      0.2296
     44  O         12.3020    6.1990    4.9810 O.2   169  CYS169     -0.2864
     45  CB        11.5770    3.5230    6.7130 C.3   169  CYS169      0.0983
     46  SG        10.5490    2.8630    8.0610 S.3   169  CYS169     -0.0798
     47  N         10.6930    8.4210    3.3270 N.3   172  VAL172     -0.1245
     48  CA        10.9260    9.5610    4.2140 C.3   172  VAL172      0.1561
     49  C         12.3260   10.1130    3.9790 C.2   172  VAL172      0.2260
     50  O         12.5200   11.3250    3.8600 O.2   172  VAL172     -0.2867
     51  CB        10.8090    9.1650    5.7070 C.3   172  VAL172      0.0252
     52  CG1       11.1830   10.3560    6.5980 C.3   172  VAL172      0.0019
     53  CG2        9.3970    8.7000    6.0150 C.3   172  VAL172      0.0019
     54  N         12.5690   11.8270    0.6680 N.3   175  TYR175     -0.1227
     55  CA        11.9080   13.1260    0.6830 C.3   175  TYR175      0.1736
     56  C         12.8630   14.1790    1.2360 C.2   175  TYR175      0.2595
     57  O         13.0070   15.2640    0.6670 O.2   175  TYR175     -0.2718
     58  CB        10.6340   13.0750    1.5320 C.3   175  TYR175      0.0548
     59  CG         9.8940   14.3940    1.5720 C.ar  175  TYR175     -0.0200
     60  CD1       10.2510   15.3910    2.4810 C.ar  175  TYR175     -0.0009
     61  CD2        8.8690   14.6670    0.6640 C.ar  175  TYR175     -0.0009
     62  CE1        9.6070   16.6270    2.4840 C.ar  175  TYR175      0.0417
     63  CE2        8.2210   15.9020    0.6560 C.ar  175  TYR175      0.0417
     64  CZ         8.5970   16.8750    1.5690 C.ar  175  TYR175      0.1957
     65  OH         7.9670   18.0970    1.5630 O.3   175  TYR175     -0.2866
     66  N         13.5230   13.8530    2.3430 N.am  176  ILE176     -0.1980
     67  CA        14.4690   14.7810    2.9560 C.3   176  ILE176      0.1595
     68  C         15.6290   15.0770    2.0080 C.2   176  ILE176      0.2287
     69  O         16.0620   16.2240    1.8760 O.2   176  ILE176     -0.2864
     70  CB        15.0140   14.2090    4.2870 C.3   176  ILE176      0.0276
     71  CG1       13.8830   14.1780    5.3210 C.3   176  ILE176      0.0022
     72  CG2       16.1810   15.0570    4.7960 C.3   176  ILE176      0.0022
     73  CD1       14.2620   13.5580    6.6420 C.3   176  ILE176      0.0001
     74  N         13.8250   18.6640    0.9950 N.3   180  GLU180     -0.1245
     75  CA        14.3380   19.4900    2.0740 C.3   180  GLU180      0.1567
     76  C         15.8080   19.8900    2.0410 C.2   180  GLU180      0.2260
     77  O         16.1200   21.0780    2.0710 O.2   180  GLU180     -0.2867
     78  CB        13.9960   18.8350    3.4100 C.3   180  GLU180      0.0388
     79  CG        12.5020   18.8400    3.6840 C.3   180  GLU180      0.1160
     80  CD        12.1400   18.2440    5.0260 C.2   180  GLU180      0.3649
     81  OE1       10.9790   18.4220    5.4520 O.co2 180  GLU180     -0.2457
     82  OE2       13.0090   17.5980    5.6490 O.co2 180  GLU180     -0.2457
@<TRIPOS>BOND
     1    63    61   ar
     2    63    64   ar
     3    61    59   ar
     4    57    56    2
     5    54    55    1
     6    55    56    1
     7    55    58    1
     8    74    75    1
     9    56    66   am
    10    58    59    1
    11    65    64    1
    12    64    62   ar
    13    59    60   ar
    14    69    68    2
    15    68    67    1
    16    76    77    2
    17    76    75    1
    18    75    78    1
    19    66    67    1
    20    60    62   ar
    21    67    70    1
    22    36    37    1
    23    47    48    1
    24    78    79    1
    25    37    38    1
    26    37    40    1
    27    79    80    1
    28    50    49    2
    29    49    48    1
    30    39    38    2
    31    48    51    1
    32    38    41   am
    33    70    72    1
    34    70    71    1
    35    28    29    1
    36    43    44    2
    37    43    42    1
    38    41    42    1
    39    80    81   ar
    40    80    82   ar
    41    71    73    1
    42    30    29    1
    43    30    31    2
    44    51    53    1
    45    51    52    1
    46    42    45    1
    47    29    32    1
    48     9     8    1
    49    45    46    1
    50     8     7    1
    51     7     6    1
    52    32    33    1
    53    32    34    1
    54    33    35    1
    55    20    19    2
    56     6     5    1
    57     5     2    1
    58    19    18    1
    59    21    22    1
    60    21    18    1
    61     4     3    2
    62    22    23   ar
    63    22    24   ar
    64    23    25   ar
    65    18    17    1
    66    16    14    1
    67     2     3    1
    68     2     1    1
    69    13    12    2
    70    12    11    1
    71    25    27   ar
    72    24    26   ar
    73    14    11    1
    74    14    15    1
    75    26    27   ar
    76    11    10    1
