@<TRIPOS>MOLECULE
tmp/5etzB00.pdb
 110 100 0 0 0
SMALL
GASTEIGER

@<TRIPOS>ATOM
      1  N         39.6620   -0.6610    2.9130 N.3    29  GLY29      -0.1210
      2  CA        40.9120   -0.3930    3.6030 C.3    29  GLY29       0.1956
      3  C         41.7260    0.6870    2.9160 C.2    29  GLY29       0.2611
      4  O         42.2090    1.6210    3.5610 O.2    29  GLY29      -0.2717
      5  N         41.8880    0.5590    1.6040 N.am   30  LEU30      -0.1979
      6  CA        42.6380    1.5460    0.8430 C.3    30  LEU30       0.1596
      7  C         41.9450    2.9040    0.9290 C.2    30  LEU30       0.2287
      8  O         42.6040    3.9380    1.0330 O.2    30  LEU30      -0.2864
      9  CB        42.7680    1.0990   -0.6160 C.3    30  LEU30       0.0297
     10  CG        43.6360   -0.1480   -0.8270 C.3    30  LEU30       0.0022
     11  CD1       43.4980   -0.6460   -2.2610 C.3    30  LEU30       0.0001
     12  CD2       45.0840    0.1780   -0.5060 C.3    30  LEU30       0.0001
     13  N         40.1530    4.1410    3.4100 N.3    32  ILE32      -0.1231
     14  CA        40.4000    4.7700    4.7040 C.3    32  ILE32       0.1692
     15  C         41.7470    5.4840    4.6870 C.2    32  ILE32       0.2591
     16  O         41.8560    6.6340    5.1120 O.2    32  ILE32      -0.2718
     17  CB        40.4040    3.7370    5.8490 C.3    32  ILE32       0.0266
     18  CG1       39.0280    3.0740    5.9540 C.3    32  ILE32       0.0019
     19  CG2       40.7550    4.4230    7.1640 C.3    32  ILE32       0.0020
     20  CD1       38.9910    1.8860    6.8960 C.3    32  ILE32       0.0001
     21  N         42.7690    4.7960    4.1900 N.am   33  LEU33      -0.1980
     22  CA        44.1070    5.3710    4.1180 C.3    33  LEU33       0.1596
     23  C         44.0970    6.6220    3.2420 C.2    33  LEU33       0.2287
     24  O         44.6080    7.6710    3.6390 O.2    33  LEU33      -0.2864
     25  CB        45.0950    4.3420    3.5570 C.3    33  LEU33       0.0297
     26  CG        45.3300    3.0990    4.4260 C.3    33  LEU33       0.0022
     27  CD1       46.2490    2.1280    3.7000 C.3    33  LEU33       0.0001
     28  CD2       45.9440    3.5080    5.7580 C.3    33  LEU33       0.0001
     29  N         42.1210    9.5760    4.9630 N.3    36  VAL36      -0.1245
     30  CA        42.8530   10.1440    6.0880 C.3    36  VAL36       0.1561
     31  C         43.9310   11.0670    5.5220 C.2    36  VAL36       0.2260
     32  O         44.1110   12.1920    5.9850 O.2    36  VAL36      -0.2867
     33  CB        43.5170    9.0380    6.9360 C.3    36  VAL36       0.0252
     34  CG1       44.3670    9.6570    8.0280 C.3    36  VAL36       0.0019
     35  CG2       42.4470    8.1430    7.5470 C.3    36  VAL36       0.0019
     36  N         42.4870   14.3540    4.0050 N.3    39  THR39      -0.1203
     37  CA        41.9860   15.3320    4.9680 C.3    39  THR39       0.1994
     38  C         42.9660   15.7870    6.0440 C.2    39  THR39       0.2617
     39  O         42.5850   16.5080    6.9630 O.2    39  THR39      -0.2717
     40  CB        40.7060   14.7980    5.6670 C.3    39  THR39       0.1784
     41  OG1       40.9950   13.5570    6.3250 O.3    39  THR39      -0.2211
     42  CG2       39.6030   14.5680    4.6490 C.3    39  THR39       0.0376
     43  N         44.2260   15.3900    5.9190 N.am   40  ARG40      -0.1979
     44  CA        45.2360   15.7550    6.9080 C.3    40  ARG40       0.1597
     45  C         45.4400   17.2600    7.0850 C.2    40  ARG40       0.2287
     46  O         46.0250   17.6920    8.0780 O.2    40  ARG40      -0.2864
     47  CB        46.5760   15.0990    6.5560 C.3    40  ARG40       0.0334
     48  CG        47.2430   15.6260    5.2850 C.3    40  ARG40       0.0492
     49  CD        48.4680   14.7830    4.9330 C.3    40  ARG40       0.2205
     50  NE        49.2560   15.3340    3.8290 N.pl3  40  ARG40      -0.0865
     51  CZ        48.8560   15.3910    2.5610 C.cat  40  ARG40       0.5346
     52  NH1       49.6570   15.9160    1.6410 N.pl3  40  ARG40       0.1354
     53  NH2       47.6620   14.9280    2.2050 N.pl3  40  ARG40       0.1354
     54  N         42.8550   19.5890    7.0940 N.3    42  LEU42      -0.1245
     55  CA        41.6890   20.2470    7.6740 C.3    42  LEU42       0.1561
     56  C         41.9880   20.7640    9.0730 C.2    42  LEU42       0.2260
     57  O         42.6790   20.1060    9.8480 O.2    42  LEU42      -0.2867
     58  CB        40.5070   19.2750    7.7380 C.3    42  LEU42       0.0270
     59  CG        39.6760   19.0430    6.4730 C.3    42  LEU42       0.0019
     60  CD1       40.5700   18.8230    5.2770 C.3    42  LEU42       0.0001
     61  CD2       38.7590   17.8420    6.6940 C.3    42  LEU42       0.0001
     62  N         35.9470   19.0950   10.0540 N.3    48  LYS48      -0.1245
     63  CA        36.4950   17.8460   10.5680 C.3    48  LYS48       0.1561
     64  C         35.3920   16.8640   10.9480 C.2    48  LYS48       0.2260
     65  O         35.5590   15.6540   10.7990 O.2    48  LYS48      -0.2867
     66  CB        37.4030   18.1150   11.7710 C.3    48  LYS48       0.0271
     67  CG        38.7390   18.7570   11.4070 C.3    48  LYS48       0.0035
     68  CD        39.6300   18.8890   12.6360 C.3    48  LYS48       0.0206
     69  CE        41.0090   19.4040   12.2730 C.3    48  LYS48       0.1093
     70  NZ        41.8810   19.5440   13.4780 N.3    48  LYS48      -0.1314
     71  N         34.2470   15.2720    7.8230 N.3    51  ALA51      -0.1231
     72  CA        35.2800   14.3460    7.3600 C.3    51  ALA51       0.1694
     73  C         35.2940   13.0260    8.1380 C.2    51  ALA51       0.2591
     74  O         35.4260   11.9540    7.5440 O.2    51  ALA51      -0.2718
     75  CB        36.6510   15.0060    7.4460 C.3    51  ALA51       0.0304
     76  N         35.1740   13.1030    9.4620 N.am   52  VAL52      -0.1980
     77  CA        35.1790   11.8940   10.2880 C.3    52  VAL52       0.1595
     78  C         33.9340   11.0580   10.0070 C.2    52  VAL52       0.2287
     79  O         34.0100    9.8380    9.8830 O.2    52  VAL52      -0.2864
     80  CB        35.2170   12.2300   11.8050 C.3    52  VAL52       0.0276
     81  CG1       35.2300   10.9390   12.6230 C.3    52  VAL52       0.0022
     82  CG2       36.4520   13.0550   12.1240 C.3    52  VAL52       0.0022
     83  N         34.6050    9.3220    6.7780 N.3    55  ILE55      -0.1245
     84  CA        35.6260    8.2930    6.9160 C.3    55  ILE55       0.1561
     85  C         35.0800    7.0500    7.6230 C.2    55  ILE55       0.2260
     86  O         35.5190    5.9320    7.3510 O.2    55  ILE55      -0.2867
     87  CB        36.8620    8.8550    7.6740 C.3    55  ILE55       0.0252
     88  CG1       37.6200    9.8190    6.7520 C.3    55  ILE55       0.0019
     89  CG2       37.7790    7.7160    8.1390 C.3    55  ILE55       0.0019
     90  CD1       38.7710   10.5630    7.4220 C.3    55  ILE55       0.0001
     91  N         35.1210    2.6180    7.2460 N.3    59  VAL59      -0.1245
     92  CA        35.5450    1.9140    8.4630 C.3    59  VAL59       0.1561
     93  C         34.4870    0.8520    8.7710 C.2    59  VAL59       0.2260
     94  O         34.8010   -0.3190    8.9970 O.2    59  VAL59      -0.2867
     95  CB        35.6770    2.8830    9.6700 C.3    59  VAL59       0.0252
     96  CG1       35.8130    2.0960   10.9770 C.3    59  VAL59       0.0019
     97  CG2       36.9060    3.7680    9.4830 C.3    59  VAL59       0.0019
     98  N         34.6540   -1.9670    5.9830 N.3    62  ILE62      -0.1231
     99  CA        35.6900   -2.9880    6.0820 C.3    62  ILE62       0.1692
    100  C         35.4150   -3.9710    7.2220 C.2    62  ILE62       0.2591
    101  O         35.6980   -5.1650    7.1030 O.2    62  ILE62      -0.2718
    102  CB        37.1000   -2.3790    6.2650 C.3    62  ILE62       0.0266
    103  CG1       38.1510   -3.4770    6.0620 C.3    62  ILE62       0.0019
    104  CG2       37.2490   -1.7760    7.6600 C.3    62  ILE62       0.0020
    105  CD1       39.5840   -3.0050    6.1970 C.3    62  ILE62       0.0001
    106  N         34.8490   -3.4790    8.3200 N.am   63  ALA63      -0.1980
    107  CA        34.5480   -4.3540    9.4470 C.3    63  ALA63       0.1597
    108  C         33.3990   -5.2920    9.0820 C.2    63  ALA63       0.2287
    109  O         33.4830   -6.4970    9.2990 O.2    63  ALA63      -0.2864
    110  CB        34.1880   -3.5280   10.6820 C.3    63  ALA63       0.0319
@<TRIPOS>BOND
     1    11    10    1
     2    10     9    1
     3    10    12    1
     4     9     6    1
     5     6     7    1
     6     6     5    1
     7     7     8    2
     8     5     3   am
     9    52    51    1
    10    53    51    1
    11    51    50    2
    12     1     2    1
    13     3     4    2
    14     3     2    1
    15    23    24    2
    16    23    22    1
    17    13    14    1
    18    25    22    1
    19    25    26    1
    20    27    26    1
    21    50    49    1
    22    36    37    1
    23    22    21    1
    24    21    15   am
    25    26    28    1
    26    42    40    1
    27    15    14    1
    28    15    16    2
    29    14    17    1
    30    49    48    1
    31    29    30    1
    32    37    40    1
    33    37    38    1
    34    60    59    1
    35    48    47    1
    36    31    32    2
    37    31    30    1
    38    40    41    1
    39    17    18    1
    40    17    19    1
    41    43    38   am
    42    43    44    1
    43    18    20    1
    44    98    99    1
    45    38    39    2
    46   103   105    1
    47   103   102    1
    48    99   102    1
    49    99   100    1
    50    30    33    1
    51   102   104    1
    52    59    61    1
    53    59    58    1
    54    47    44    1
    55    88    90    1
    56    88    87    1
    57    83    84    1
    58    44    45    1
    59    84    85    1
    60    84    87    1
    61    33    35    1
    62    33    34    1
    63    45    46    2
    64    54    55    1
    65   101   100    2
    66   100   106   am
    67    91    92    1
    68    86    85    2
    69    72    75    1
    70    72    71    1
    71    72    73    1
    72    74    73    2
    73    87    89    1
    74    55    58    1
    75    55    56    1
    76    73    76   am
    77   106   107    1
    78    92    93    1
    79    92    95    1
    80    93    94    2
    81    56    57    2
    82   108   109    2
    83   108   107    1
    84   107   110    1
    85    76    77    1
    86    97    95    1
    87    95    96    1
    88    79    78    2
    89    78    77    1
    90    62    63    1
    91    77    80    1
    92    63    64    1
    93    63    66    1
    94    65    64    2
    95    67    66    1
    96    67    68    1
    97    80    82    1
    98    80    81    1
    99    69    68    1
   100    69    70    1
