@<TRIPOS>MOLECULE
tmp/5etzB02.pdb
 81 75 0 0 0
SMALL
GASTEIGER

@<TRIPOS>ATOM
      1  N         25.2740  -26.0340   10.3760 N.3     2  VAL2       -0.1245
      2  CA        26.3140  -25.4430    9.5410 C.3     2  VAL2        0.1561
      3  C         27.2360  -24.5530   10.3690 C.2     2  VAL2        0.2260
      4  O         26.7790  -23.6470   11.0680 O.2     2  VAL2       -0.2867
      5  CB        25.6950  -24.6200    8.3930 C.3     2  VAL2        0.0252
      6  CG1       24.9210  -25.5420    7.4590 C.3     2  VAL2        0.0019
      7  CG2       24.7690  -23.5540    8.9530 C.3     2  VAL2        0.0019
      8  N         24.2810  -16.8830    7.5600 N.3    75  SER75      -0.1202
      9  CA        23.5120  -18.0050    8.0960 C.3    75  SER75       0.2020
     10  C         22.8460  -18.7340    6.9330 C.2    75  SER75       0.2619
     11  O         22.8620  -18.2540    5.8020 O.2    75  SER75      -0.2717
     12  CB        22.4250  -17.5110    9.0580 C.3    75  SER75       0.2103
     13  OG        22.9800  -16.8780   10.1990 O.3    75  SER75      -0.2182
     14  N         22.2650  -19.8950    7.2160 N.am   76  VAL76      -0.1965
     15  CA        21.5670  -20.6610    6.1870 C.3    76  VAL76       0.1727
     16  C         20.1140  -20.7090    6.6140 C.2    76  VAL76       0.2616
     17  O         19.7940  -21.2110    7.6930 O.2    76  VAL76      -0.2715
     18  CB        22.1110  -22.0990    6.0670 C.3    76  VAL76       0.0290
     19  CG1       21.3100  -22.8760    5.0170 C.3    76  VAL76       0.0023
     20  CG2       23.5740  -22.0610    5.6760 C.3    76  VAL76       0.0023
     21  N         19.2420  -20.1580    5.7780 N.am   77  LEU77      -0.1977
     22  CA        17.8190  -20.1250    6.0730 C.3    77  LEU77       0.1596
     23  C         17.0210  -20.8680    5.0110 C.2    77  LEU77       0.2287
     24  O         17.3810  -20.8590    3.8350 O.2    77  LEU77      -0.2864
     25  CB        17.3210  -18.6780    6.1370 C.3    77  LEU77       0.0297
     26  CG        17.9960  -17.7310    7.1360 C.3    77  LEU77       0.0022
     27  CD1       17.3150  -16.3650    7.0800 C.3    77  LEU77       0.0001
     28  CD2       17.9070  -18.3090    8.5390 C.3    77  LEU77       0.0001
     29  N         23.0980  -11.9450    5.9470 N.3   104  TRP104     -0.1241
     30  CA        22.3930  -10.9170    6.7040 C.3   104  TRP104      0.1605
     31  C         23.3490   -9.8490    7.2300 C.2   104  TRP104      0.2264
     32  O         22.9200   -8.7780    7.6540 O.2   104  TRP104     -0.2867
     33  CB        21.6120  -11.5460    7.8640 C.3   104  TRP104      0.0550
     34  CG        22.4510  -12.3120    8.8430 C.ar  104  TRP104      0.0003
     35  CD1       22.7110  -13.6520    8.8340 C.ar  104  TRP104      0.0946
     36  CD2       23.1290  -11.7780    9.9840 C.ar  104  TRP104      0.0152
     37  NE1       23.5080  -13.9890    9.9060 N.ar  104  TRP104     -0.2442
     38  CE2       23.7790  -12.8560   10.6280 C.ar  104  TRP104      0.0810
     39  CE3       23.2500  -10.4920   10.5280 C.ar  104  TRP104      0.0012
     40  CZ2       24.5410  -12.6860   11.7900 C.ar  104  TRP104      0.0191
     41  CZ3       24.0080  -10.3240   11.6840 C.ar  104  TRP104      0.0001
     42  CH2       24.6420  -11.4160   12.3010 C.ar  104  TRP104      0.0015
     43  N         23.9520   -5.0470    8.5450 N.3   108  LEU108     -0.1245
     44  CA        24.7330   -4.3990    9.5950 C.3   108  LEU108      0.1561
     45  C         25.5790   -3.3410    8.9100 C.2   108  LEU108      0.2260
     46  O         25.7420   -2.2310    9.4140 O.2   108  LEU108     -0.2867
     47  CB        25.6400   -5.4090   10.3130 C.3   108  LEU108      0.0270
     48  CG        25.0050   -6.2190   11.4500 C.3   108  LEU108      0.0019
     49  CD1       23.7360   -6.9000   10.9600 C.3   108  LEU108      0.0001
     50  CD2       26.0100   -7.2460   11.9700 C.3   108  LEU108      0.0001
     51  N         17.5570    4.2020    9.8310 N.3   140  ILE140     -0.1245
     52  CA        17.8840    3.0480   10.6590 C.3   140  ILE140      0.1561
     53  C         16.7040    2.0730   10.6320 C.2   140  ILE140      0.2260
     54  O         16.8920    0.8610   10.5120 O.2   140  ILE140     -0.2867
     55  CB        18.2090    3.4950   12.1130 C.3   140  ILE140      0.0252
     56  CG1       19.5290    4.2760   12.1110 C.3   140  ILE140      0.0019
     57  CG2       18.3090    2.2850   13.0430 C.3   140  ILE140      0.0019
     58  CD1       19.9420    4.8410   13.4750 C.3   140  ILE140      0.0001
     59  N         16.7650   -1.8770    9.5990 N.3   144  VAL144     -0.1245
     60  CA        16.3740   -2.9240   10.5290 C.3   144  VAL144      0.1561
     61  C         15.1700   -3.7160   10.0400 C.2   144  VAL144      0.2260
     62  O         15.1160   -4.9290   10.2260 O.2   144  VAL144     -0.2867
     63  CB        16.0850   -2.3500   11.9320 C.3   144  VAL144      0.0252
     64  CG1       15.7080   -3.4760   12.8880 C.3   144  VAL144      0.0019
     65  CG2       17.3240   -1.6260   12.4500 C.3   144  VAL144      0.0019
     66  N         16.3720   -6.0220    7.4560 N.3   147  LEU147     -0.1245
     67  CA        17.0410   -7.1650    8.0620 C.3   147  LEU147      0.1561
     68  C         15.9710   -8.1570    8.5140 C.2   147  LEU147      0.2260
     69  O         16.1030   -9.3680    8.3160 O.2   147  LEU147     -0.2867
     70  CB        17.8740   -6.7210    9.2650 C.3   147  LEU147      0.0270
     71  CG        18.4710   -7.8430   10.1270 C.3   147  LEU147      0.0019
     72  CD1       19.3920   -8.7150    9.2820 C.3   147  LEU147      0.0001
     73  CD2       19.2300   -7.2410   11.3000 C.3   147  LEU147      0.0001
     74  N         15.3990  -12.1430    7.5100 N.3   151  LEU151     -0.1245
     75  CA        15.4210  -13.1550    8.5670 C.3   151  LEU151      0.1561
     76  C         14.0780  -13.8480    8.8010 C.2   151  LEU151      0.2260
     77  O         13.9890  -14.7880    9.5910 O.2   151  LEU151     -0.2867
     78  CB        15.8940  -12.5240    9.8820 C.3   151  LEU151      0.0270
     79  CG        17.3930  -12.2680   10.0830 C.3   151  LEU151      0.0019
     80  CD1       17.9970  -11.6200    8.8640 C.3   151  LEU151      0.0001
     81  CD2       17.5870  -11.3960   11.3160 C.3   151  LEU151      0.0001
@<TRIPOS>BOND
     1    24    23    2
     2    23    22    1
     3    19    18    1
     4    20    18    1
     5    21    22    1
     6    21    16   am
     7    11    10    2
     8    29    30    1
     9    18    15    1
    10    22    25    1
    11    25    26    1
    12    15    16    1
    13    15    14    1
    14    16    17    2
    15    30    31    1
    16    30    33    1
    17    10    14   am
    18    10     9    1
    19    27    26    1
    20    26    28    1
    21    31    32    2
    22    66    67    1
    23     6     5    1
    24    74    75    1
    25     8     9    1
    26    33    34    1
    27    67    68    1
    28    67    70    1
    29     9    12    1
    30    69    68    2
    31     5     7    1
    32     5     2    1
    33    43    44    1
    34    75    76    1
    35    75    78    1
    36    76    77    2
    37    35    34   ar
    38    35    37   ar
    39    34    36   ar
    40    80    79    1
    41    45    46    2
    42    45    44    1
    43    12    13    1
    44    70    71    1
    45    72    71    1
    46     2     3    1
    47     2     1    1
    48    44    47    1
    49    59    60    1
    50    51    52    1
    51    78    79    1
    52    37    38   ar
    53    36    39   ar
    54    36    38   ar
    55    61    62    2
    56    61    60    1
    57    79    81    1
    58    71    73    1
    59    47    48    1
    60     3     4    2
    61    54    53    2
    62    39    41   ar
    63    60    63    1
    64    38    40   ar
    65    53    52    1
    66    52    55    1
    67    49    48    1
    68    48    50    1
    69    41    42   ar
    70    40    42   ar
    71    63    65    1
    72    63    64    1
    73    56    55    1
    74    56    58    1
    75    55    57    1
