@<TRIPOS>MOLECULE
tmp/5eu1B00.pdb
 123 124 0 0 0
SMALL
GASTEIGER

@<TRIPOS>ATOM
      1  N         -5.3680   40.7450   12.0620 N.3    22  HIS22      -0.1226
      2  CA        -6.3290   41.5050   11.2670 C.3    22  HIS22       0.1752
      3  C         -5.8410   41.8190    9.8510 C.2    22  HIS22       0.2597
      4  O         -6.5830   42.3960    9.0610 O.2    22  HIS22      -0.2718
      5  CB        -6.7880   42.7720   12.0040 C.3    22  HIS22       0.0759
      6  CG        -7.3660   42.4750   13.3510 C.ar   22  HIS22       0.0818
      7  ND1       -8.5330   41.7420   13.4920 N.ar   22  HIS22      -0.2268
      8  CD2       -6.8940   42.7860   14.5790 C.ar   22  HIS22       0.1154
      9  CE1       -8.7350   41.6360   14.7970 C.ar   22  HIS22       0.1986
     10  NE2       -7.7760   42.2510   15.4910 N.ar   22  HIS22      -0.2212
     11  N         -4.6180   41.4170    9.5430 N.am   23  GLY23      -0.1942
     12  CA        -4.0400   41.6040    8.2240 C.3    23  GLY23       0.2014
     13  C         -3.7870   43.0460    7.8260 C.2    23  GLY23       0.2639
     14  O         -3.8420   43.3670    6.6390 O.2    23  GLY23      -0.2714
     15  N         -3.4710   43.9360    8.7950 N.am   24  PHE24      -0.1959
     16  CA        -3.1370   45.3260    8.4460 C.3    24  PHE24       0.1771
     17  C         -1.8910   45.4070    7.5500 C.2    24  PHE24       0.2619
     18  O         -1.7650   46.3390    6.7670 O.2    24  PHE24      -0.2715
     19  CB        -2.9290   46.1730    9.7170 C.3    24  PHE24       0.0574
     20  CG        -4.1470   46.2380   10.6070 C.ar   24  PHE24      -0.0200
     21  CD1       -5.4040   46.5160   10.0770 C.ar   24  PHE24      -0.0042
     22  CD2       -4.0350   46.0610   11.9830 C.ar   24  PHE24      -0.0042
     23  CE1       -6.5370   46.5800   10.9050 C.ar   24  PHE24      -0.0003
     24  CE2       -5.1640   46.1270   12.8060 C.ar   24  PHE24      -0.0003
     25  CZ        -6.4040   46.3990   12.2620 C.ar   24  PHE24      -0.0000
     26  N         -0.9780   44.4150    7.6690 N.am   25  PHE25      -0.1974
     27  CA         0.2650   44.3660    6.8930 C.3    25  PHE25       0.1639
     28  C          0.2440   43.3130    5.8010 C.2    25  PHE25       0.2290
     29  O          1.2760   43.0730    5.1770 O.2    25  PHE25      -0.2864
     30  CB         1.4440   44.1290    7.8530 C.3    25  PHE25       0.0560
     31  CG         1.6700   45.2890    8.7920 C.ar   25  PHE25      -0.0200
     32  CD1        2.2300   46.4770    8.3290 C.ar   25  PHE25      -0.0042
     33  CD2        1.2510   45.2240   10.1180 C.ar   25  PHE25      -0.0042
     34  CE1        2.4110   47.5660    9.1890 C.ar   25  PHE25      -0.0003
     35  CE2        1.4420   46.3020   10.9830 C.ar   25  PHE25      -0.0003
     36  CZ         1.9940   47.4790   10.5070 C.ar   25  PHE25      -0.0000
     37  N         -1.3960   43.2670    2.7950 N.3    27  PHE27      -0.1228
     38  CA        -1.4200   43.7900    1.4320 C.3    27  PHE27       0.1721
     39  C         -0.9810   45.2620    1.4380 C.2    27  PHE27       0.2437
     40  O         -0.9770   45.8840    2.5170 O.2    27  PHE27      -0.2733
     41  CB        -2.8430   43.6780    0.8620 C.3    27  PHE27       0.0547
     42  CG        -3.3320   42.2580    0.7190 C.ar   27  PHE27      -0.0202
     43  CD1       -3.0250   41.5120   -0.4120 C.ar   27  PHE27      -0.0042
     44  CD2       -4.0910   41.6640    1.7190 C.ar   27  PHE27      -0.0042
     45  CE1       -3.4630   40.1920   -0.5370 C.ar   27  PHE27      -0.0003
     46  CE2       -4.5110   40.3390    1.6040 C.ar   27  PHE27      -0.0003
     47  CZ        -4.2050   39.6170    0.4720 C.ar   27  PHE27      -0.0000
     48  N         -0.6790   45.8690    0.2590 N.am   28  PRO28      -0.2718
     49  CA        -0.2550   47.2820    0.2680 C.3    28  PRO28       0.1535
     50  C         -1.3260   48.2520    0.7710 C.2    28  PRO28       0.2598
     51  O         -2.5340   47.9910    0.6210 O.2    28  PRO28      -0.2715
     52  CB         0.0440   47.5770   -1.2170 C.3    28  PRO28       0.0310
     53  CG         0.3400   46.2470   -1.8240 C.3    28  PRO28       0.0237
     54  CD        -0.6170   45.3080   -1.1100 C.3    28  PRO28       0.0939
     55  N         -0.8750   49.3900    1.3300 N.am   29  VAL29      -0.1978
     56  CA        -1.7740   50.4540    1.7770 C.3    29  VAL29       0.1596
     57  C         -2.1090   51.3050    0.5360 C.2    29  VAL29       0.2287
     58  O         -1.2010   51.8110   -0.1250 O.2    29  VAL29      -0.2864
     59  CB        -1.1430   51.3430    2.8810 C.3    29  VAL29       0.0276
     60  CG1       -2.1280   52.4240    3.3250 C.3    29  VAL29       0.0022
     61  CG2       -0.7090   50.5010    4.0780 C.3    29  VAL29       0.0022
     62  N         -7.5590   54.5450    1.0740 N.3    33  ILE33      -0.1231
     63  CA        -7.7950   54.4060    2.5140 C.3    33  ILE33       0.1692
     64  C         -6.7950   55.1980    3.3550 C.2    33  ILE33       0.2591
     65  O         -6.9760   55.2990    4.5670 O.2    33  ILE33      -0.2718
     66  CB        -7.8640   52.9280    2.9560 C.3    33  ILE33       0.0266
     67  CG1       -6.4880   52.2390    2.8820 C.3    33  ILE33       0.0019
     68  CG2       -8.9500   52.1640    2.1700 C.3    33  ILE33       0.0020
     69  CD1       -6.4200   50.8620    3.6670 C.3    33  ILE33       0.0001
     70  N         -5.7300   55.7330    2.7200 N.am   34  ALA34      -0.1980
     71  CA        -4.7090   56.4900    3.4490 C.3    34  ALA34       0.1597
     72  C         -4.2490   57.6540    2.5770 C.2    34  ALA34       0.2287
     73  O         -3.2370   57.5570    1.8910 O.2    34  ALA34      -0.2864
     74  CB        -3.5460   55.5760    3.8080 C.3    34  ALA34       0.0319
     75  N         -0.5610   58.6480    1.0540 N.3    37  TYR37      -0.1241
     76  CA         0.3510   57.5410    1.3430 C.3    37  TYR37       0.1605
     77  C          1.4600   57.3740    0.3110 C.2    37  TYR37       0.2264
     78  O          2.6320   57.2810    0.6830 O.2    37  TYR37      -0.2867
     79  CB        -0.4150   56.2180    1.5380 C.3    37  TYR37       0.0534
     80  CG         0.4290   55.1700    2.2440 C.ar   37  TYR37      -0.0201
     81  CD1        0.4680   55.1000    3.6360 C.ar   37  TYR37      -0.0009
     82  CD2        1.2410   54.2940    1.5210 C.ar   37  TYR37      -0.0009
     83  CE1        1.2650   54.1550    4.2930 C.ar   37  TYR37       0.0417
     84  CE2        2.0500   53.3570    2.1670 C.ar   37  TYR37       0.0417
     85  CZ         2.0680   53.3020    3.5540 C.ar   37  TYR37       0.1957
     86  OH         2.8520   52.3870    4.2170 O.3    37  TYR37      -0.2866
     87  N          5.0760   52.3050    8.4850 N.3    76  ALA76      -0.1245
     88  CA         3.9140   52.4940    9.3700 C.3    76  ALA76       0.1562
     89  C          4.1800   53.4970   10.4840 C.2    76  ALA76       0.2260
     90  O          3.2980   54.2760   10.8220 O.2    76  ALA76      -0.2867
     91  CB         3.4770   51.1620    9.9400 C.3    76  ALA76       0.0290
     92  N          4.2280   57.2010    8.4910 N.3    79  TYR79      -0.1227
     93  CA         2.9490   57.7120    8.0230 C.3    79  TYR79       0.1736
     94  C          1.9640   57.9610    9.1590 C.2    79  TYR79       0.2595
     95  O          1.2610   58.9780    9.1500 O.2    79  TYR79      -0.2718
     96  CB         2.3430   56.7680    6.9560 C.3    79  TYR79       0.0548
     97  CG         0.9980   57.2470    6.4460 C.ar   79  TYR79      -0.0200
     98  CD1        0.9110   58.1990    5.4320 C.ar   79  TYR79      -0.0009
     99  CD2       -0.1930   56.7390    6.9720 C.ar   79  TYR79      -0.0009
    100  CE1       -0.3270   58.6580    4.9720 C.ar   79  TYR79       0.0417
    101  CE2       -1.4290   57.2250    6.5560 C.ar   79  TYR79       0.0417
    102  CZ        -1.4940   58.1370    5.5140 C.ar   79  TYR79       0.1957
    103  OH        -2.7020   58.5920    5.0660 O.3    79  TYR79      -0.2866
    104  N          1.8690   57.0140   10.1020 N.am   80  ASN80      -0.1974
    105  CA         0.8690   57.0770   11.1770 C.3    80  ASN80       0.1688
    106  C          1.3500   57.7450   12.4190 C.2    80  ASN80       0.2292
    107  O          2.5250   57.6370   12.7570 O.2    80  ASN80      -0.2864
    108  CB         0.3970   55.6720   11.5330 C.3    80  ASN80       0.1181
    109  CG        -0.1580   54.9300   10.3680 C.2    80  ASN80       0.2629
    110  OD1       -1.2780   55.2010    9.9160 O.2    80  ASN80      -0.2716
    111  ND2        0.6220   53.9790    9.8510 N.am   80  ASN80      -0.0877
    112  N         -1.8700   51.2380   13.8810 N.3    86  TYR86      -0.1241
    113  CA        -0.8090   50.9030   12.9250 C.3    86  TYR86       0.1605
    114  C          0.5970   51.1870   13.4410 C.2    86  TYR86       0.2264
    115  O          1.4700   50.3270   13.3040 O.2    86  TYR86      -0.2867
    116  CB        -1.0780   51.5850   11.5760 C.3    86  TYR86       0.0534
    117  CG        -2.5160   51.4140   11.1380 C.ar   86  TYR86      -0.0201
    118  CD1       -3.0490   50.1500   10.9070 C.ar   86  TYR86      -0.0009
    119  CD2       -3.3550   52.5150   10.9830 C.ar   86  TYR86      -0.0009
    120  CE1       -4.3820   49.9840   10.5310 C.ar   86  TYR86       0.0417
    121  CE2       -4.6880   52.3590   10.6020 C.ar   86  TYR86       0.0417
    122  CZ        -5.1990   51.0900   10.3880 C.ar   86  TYR86       0.1957
    123  OH        -6.5120   50.9170   10.0210 O.3    86  TYR86      -0.2866
@<TRIPOS>BOND
     1    53    52    1
     2    53    54    1
     3    52    49    1
     4    54    48    1
     5    45    43   ar
     6    45    47   ar
     7    43    42   ar
     8    58    57    2
     9    48    49    1
    10    48    39   am
    11    49    50    1
    12    77    78    2
    13    77    76    1
    14    47    46   ar
    15    57    56    1
    16    51    50    2
    17    42    41    1
    18    42    44   ar
    19    50    55   am
    20    41    38    1
    21    75    76    1
    22    62    63    1
    23    55    56    1
    24    76    79    1
    25    38    39    1
    26    38    37    1
    27    39    40    2
    28    82    84   ar
    29    82    80   ar
    30    79    80    1
    31    46    44   ar
    32    56    59    1
    33    73    72    2
    34    84    85   ar
    35    68    66    1
    36    80    81   ar
    37    63    66    1
    38    63    64    1
    39    72    71    1
    40    70    64   am
    41    70    71    1
    42    59    60    1
    43    59    61    1
    44    67    66    1
    45    67    69    1
    46    64    65    2
    47    71    74    1
    48    85    86    1
    49    85    83   ar
    50    81    83   ar
    51   100    98   ar
    52   100   102   ar
    53   103   102    1
    54    29    28    2
    55    98    97   ar
    56   102   101   ar
    57    28    27    1
    58    97    96    1
    59    97    99   ar
    60   101    99   ar
    61    14    13    2
    62    18    17    2
    63    27    26    1
    64    27    30    1
    65    96    93    1
    66    17    26   am
    67    17    16    1
    68    13    12    1
    69    13    15   am
    70    30    31    1
    71    93    92    1
    72    93    94    1
    73    12    11    1
    74    32    31   ar
    75    32    34   ar
    76    16    15    1
    77    16    19    1
    78    87    88    1
    79    31    33   ar
    80     4     3    2
    81    95    94    2
    82    94   104   am
    83    34    36   ar
    84    88    91    1
    85    88    89    1
    86    11     3   am
    87    19    20    1
    88     3     2    1
    89   111   109   am
    90   110   109    2
    91   123   122    1
    92    21    20   ar
    93    21    23   ar
    94   104   105    1
    95    33    35   ar
    96   109   108    1
    97   122   120   ar
    98   122   121   ar
    99    89    90    2
   100    36    35   ar
   101   120   118   ar
   102   121   119   ar
   103    20    22   ar
   104    23    25   ar
   105   118   117   ar
   106   119   117   ar
   107   117   116    1
   108   105   108    1
   109   105   106    1
   110     2     5    1
   111     2     1    1
   112   116   113    1
   113    22    24   ar
   114     5     6    1
   115    25    24   ar
   116   106   107    2
   117   113   114    1
   118   113   112    1
   119   115   114    2
   120     6     7   ar
   121     6     8   ar
   122     7     9   ar
   123     8    10   ar
   124     9    10   ar
