@<TRIPOS>MOLECULE
tmp/5eu8A00.pdb
 210 206 0 0 0
SMALL
GASTEIGER

@<TRIPOS>ATOM
      1  N        -41.8890   -0.3350   -3.2030 N.3    25  ASN25      -0.1225
      2  CA       -41.9240   -1.3540   -2.1530 C.3    25  ASN25       0.1785
      3  C        -41.8410   -2.7670   -2.7270 C.2    25  ASN25       0.2597
      4  O        -42.0300   -3.7500   -2.0110 O.2    25  ASN25      -0.2718
      5  CB       -43.1800   -1.2200   -1.2840 C.3    25  ASN25       0.1169
      6  CG       -43.0310   -1.9080    0.0820 C.2    25  ASN25       0.2627
      7  OD1      -41.9890   -2.4970    0.3900 O.2    25  ASN25      -0.2716
      8  ND2      -44.0730   -1.8200    0.9050 N.am   25  ASN25      -0.0877
      9  N        -41.5550   -2.8700   -4.0190 N.am   26  ASN26      -0.1960
     10  CA       -41.2750   -4.1690   -4.6090 C.3    26  ASN26       0.1819
     11  C        -39.8820   -4.6400   -4.2290 C.2    26  ASN26       0.2621
     12  O        -38.8990   -3.9850   -4.5600 O.2    26  ASN26      -0.2715
     13  CB       -41.4030   -4.1150   -6.1290 C.3    26  ASN26       0.1195
     14  CG       -42.8210   -3.8660   -6.5830 C.2    26  ASN26       0.2630
     15  OD1      -43.7740   -4.1430   -5.8540 O.2    26  ASN26      -0.2716
     16  ND2      -42.9710   -3.3430   -7.7930 N.am   26  ASN26      -0.0877
     17  N        -39.7970   -5.7710   -3.5330 N.am   27  VAL27      -0.1963
     18  CA       -38.5090   -6.3970   -3.2460 C.3    27  VAL27       0.1727
     19  C        -38.4420   -7.8250   -3.7710 C.2    27  VAL27       0.2616
     20  O        -39.3320   -8.6320   -3.5150 O.2    27  VAL27      -0.2715
     21  CB       -38.2050   -6.4350   -1.7350 C.3    27  VAL27       0.0290
     22  CG1      -36.7010   -6.5620   -1.5070 C.3    27  VAL27       0.0023
     23  CG2      -38.7590   -5.2010   -1.0380 C.3    27  VAL27       0.0023
     24  N        -37.3700   -8.1380   -4.4920 N.am   28  LEU28      -0.1977
     25  CA       -37.1070   -9.5060   -4.9050 C.3    28  LEU28       0.1596
     26  C        -35.6080   -9.7360   -5.0660 C.2    28  LEU28       0.2287
     27  O        -34.8180   -8.8250   -4.8440 O.2    28  LEU28      -0.2864
     28  CB       -37.8660   -9.8330   -6.1960 C.3    28  LEU28       0.0297
     29  CG       -37.8700   -8.8650   -7.3730 C.3    28  LEU28       0.0022
     30  CD1      -36.4900   -8.7090   -7.9550 C.3    28  LEU28       0.0001
     31  CD2      -38.8230   -9.3640   -8.4400 C.3    28  LEU28       0.0001
     32  N        -36.1160  -10.5130  -12.1900 N.3    40  PRO40      -0.2116
     33  CA       -37.3920  -10.5450  -12.9160 C.3    40  PRO40       0.1372
     34  C        -37.9380   -9.1320  -13.0990 C.2    40  PRO40       0.2244
     35  O        -37.7860   -8.2870  -12.2170 O.2    40  PRO40      -0.2868
     36  CB       -38.3060  -11.3730  -12.0050 C.3    40  PRO40       0.0268
     37  CG       -37.4040  -12.0270  -11.0090 C.3    40  PRO40       0.0207
     38  CD       -36.2500  -11.0950  -10.8410 C.3    40  PRO40       0.0892
     39  N        -40.8710   -7.8050  -13.0680 N.3    42  HIS42      -0.1241
     40  CA       -42.0690   -7.3640  -12.3420 C.3    42  HIS42       0.1621
     41  C        -41.7740   -6.5000  -11.1420 C.2    42  HIS42       0.2264
     42  O        -42.6890   -5.9830  -10.5150 O.2    42  HIS42      -0.2867
     43  CB       -42.8690   -8.5560  -11.8730 C.3    42  HIS42       0.0745
     44  CG       -42.7610   -9.7230  -12.7870 C.ar   42  HIS42       0.0817
     45  ND1      -43.6550   -9.9390  -13.8100 N.ar   42  HIS42      -0.2268
     46  CD2      -41.8480  -10.7230  -12.8550 C.ar   42  HIS42       0.1154
     47  CE1      -43.3140  -11.0410  -14.4520 C.ar   42  HIS42       0.1986
     48  NE2      -42.2170  -11.5330  -13.8980 N.ar   42  HIS42      -0.2212
     49  N        -49.2370   -6.6510   -9.9430 N.3    48  THR48      -0.1218
     50  CA       -48.8780   -7.9630  -10.4530 C.3    48  THR48       0.1862
     51  C        -50.0520   -8.9490  -10.4640 C.2    48  THR48       0.2287
     52  O        -49.8550  -10.1590  -10.3550 O.2    48  THR48      -0.2866
     53  CB       -47.7310   -8.5380   -9.6280 C.3    48  THR48       0.1770
     54  OG1      -48.0520   -8.4060   -8.2380 O.3    48  THR48      -0.2211
     55  CG2      -46.4460   -7.7580   -9.9070 C.3    48  THR48       0.0375
     56  N        -49.6840   -6.5550  -17.3970 N.3    52  ILE52      -0.1245
     57  CA       -48.9080   -5.3240  -17.3830 C.3    52  ILE52       0.1561
     58  C        -48.3690   -4.9940  -18.7750 C.2    52  ILE52       0.2260
     59  O        -47.8900   -5.8720  -19.4900 O.2    52  ILE52      -0.2867
     60  CB       -47.7280   -5.4210  -16.3920 C.3    52  ILE52       0.0252
     61  CG1      -48.1600   -6.1040  -15.0850 C.3    52  ILE52       0.0019
     62  CG2      -47.1260   -4.0520  -16.1300 C.3    52  ILE52       0.0019
     63  CD1      -47.7340   -7.5700  -14.9710 C.3    52  ILE52       0.0001
     64  N        -45.5400   -4.0280  -20.1930 N.3    54  TYR54      -0.1241
     65  CA       -44.1730   -3.9500  -19.6980 C.3    54  TYR54       0.1605
     66  C        -43.3080   -2.9410  -20.4340 C.2    54  TYR54       0.2264
     67  O        -42.4370   -2.3160  -19.8240 O.2    54  TYR54      -0.2867
     68  CB       -43.5150   -5.3300  -19.7390 C.3    54  TYR54       0.0534
     69  CG       -43.8340   -6.1360  -18.5060 C.ar   54  TYR54      -0.0201
     70  CD1      -43.2000   -5.8620  -17.2990 C.ar   54  TYR54      -0.0009
     71  CD2      -44.7820   -7.1480  -18.5380 C.ar   54  TYR54      -0.0009
     72  CE1      -43.4950   -6.5740  -16.1630 C.ar   54  TYR54       0.0417
     73  CE2      -45.0830   -7.8740  -17.4080 C.ar   54  TYR54       0.0417
     74  CZ       -44.4360   -7.5810  -16.2230 C.ar   54  TYR54       0.1957
     75  OH       -44.7250   -8.3040  -15.0910 O.3    54  TYR54      -0.2866
     76  N        -40.9820  -22.6530   -3.1010 N.3   140  PHE140     -0.1241
     77  CA       -40.7930  -21.2140   -3.2540 C.3   140  PHE140      0.1605
     78  C        -41.8020  -20.4260   -2.4180 C.2   140  PHE140      0.2264
     79  O        -42.9360  -20.1540   -2.8410 O.2   140  PHE140     -0.2867
     80  CB       -40.8810  -20.8040   -4.7270 C.3   140  PHE140      0.0534
     81  CG       -39.7390  -21.3090   -5.5660 C.ar  140  PHE140     -0.0203
     82  CD1      -38.4630  -20.7610   -5.4410 C.ar  140  PHE140     -0.0042
     83  CD2      -39.9360  -22.3340   -6.4850 C.ar  140  PHE140     -0.0042
     84  CE1      -37.3970  -21.2390   -6.2130 C.ar  140  PHE140     -0.0003
     85  CE2      -38.8850  -22.8060   -7.2700 C.ar  140  PHE140     -0.0003
     86  CZ       -37.6130  -22.2670   -7.1340 C.ar  140  PHE140     -0.0000
     87  N        -43.2680  -17.0790   -0.6650 N.3   142  ALA142     -0.1245
     88  CA       -43.3390  -15.6680   -1.0350 C.3   142  ALA142      0.1562
     89  C        -42.0920  -14.9620   -0.5010 C.2   142  ALA142      0.2260
     90  O        -41.7080  -15.1590    0.6560 O.2   142  ALA142     -0.2867
     91  CB       -44.6150  -15.0240   -0.5000 C.3   142  ALA142      0.0290
     92  N        -39.1850  -15.1840   -2.5320 N.3   144  THR144     -0.1203
     93  CA       -38.0900  -15.8660   -3.2040 C.3   144  THR144      0.1994
     94  C        -38.0680  -15.6560   -4.7120 C.2   144  THR144      0.2618
     95  O        -37.3900  -16.3860   -5.4320 O.2   144  THR144     -0.2717
     96  CB       -38.1500  -17.3810   -2.9400 C.3   144  THR144      0.1784
     97  OG1      -39.3950  -17.8910   -3.4360 O.3   144  THR144     -0.2211
     98  CG2      -38.0510  -17.6750   -1.4420 C.3   144  THR144      0.0376
     99  N        -38.8170  -14.6760   -5.1920 N.am  145  CYS145     -0.1969
    100  CA       -38.8760  -14.3870   -6.6220 C.3   145  CYS145      0.1712
    101  C        -37.4990  -13.9920   -7.0880 C.2   145  CYS145      0.2296
    102  O        -36.8110  -13.2160   -6.4190 O.2   145  CYS145     -0.2864
    103  CB       -39.8740  -13.2580   -6.9330 C.3   145  CYS145      0.0983
    104  SG       -41.5520  -13.4550   -6.2560 S.3   145  CYS145     -0.0798
    105  N        -36.2860  -17.5980  -10.7920 N.3   163  HIS163     -0.1226
    106  CA       -37.6490  -17.9650  -10.4510 C.3   163  HIS163      0.1752
    107  C        -38.6960  -16.8520  -10.6760 C.2   163  HIS163      0.2596
    108  O        -38.5260  -15.7010  -10.2500 O.2   163  HIS163     -0.2718
    109  CB       -37.7310  -18.4420   -9.0000 C.3   163  HIS163      0.0759
    110  CG       -39.1050  -18.8690   -8.6210 C.ar  163  HIS163      0.0818
    111  ND1      -39.7650  -19.8860   -9.2810 N.ar  163  HIS163     -0.2268
    112  CD2      -39.9920  -18.3610   -7.7340 C.ar  163  HIS163      0.1154
    113  CE1      -40.9800  -20.0120   -8.7880 C.ar  163  HIS163      0.1986
    114  NE2      -41.1460  -19.1010   -7.8430 N.ar  163  HIS163     -0.2212
    115  N        -39.7980  -17.2480  -11.3110 N.am  164  HIS164     -0.1961
    116  CA       -40.8340  -16.3230  -11.7530 C.3   164  HIS164      0.1787
    117  C        -42.2200  -16.6940  -11.2070 C.2   164  HIS164      0.2620
    118  O        -42.6560  -16.1230  -10.2210 O.2   164  HIS164     -0.2715
    119  CB       -40.8560  -16.2490  -13.2860 C.3   164  HIS164      0.0785
    120  CG       -39.8320  -15.3120  -13.8590 C.ar  164  HIS164      0.0821
    121  ND1      -40.1320  -14.0190  -14.2380 N.ar  164  HIS164     -0.2267
    122  CD2      -38.5150  -15.4810  -14.1200 C.ar  164  HIS164      0.1154
    123  CE1      -39.0450  -13.4330  -14.7080 C.ar  164  HIS164      0.1986
    124  NE2      -38.0490  -14.3000  -14.6480 N.ar  164  HIS164     -0.2212
    125  N        -42.9280  -17.6380  -11.8120 N.am  165  LEU165     -0.1963
    126  CA       -44.3220  -17.8330  -11.3800 C.3   165  LEU165      0.1728
    127  C        -44.7050  -19.2290  -10.8580 C.2   165  LEU165      0.2616
    128  O        -43.9490  -20.1970  -11.0010 O.2   165  LEU165     -0.2715
    129  CB       -45.2620  -17.4490  -12.5200 C.3   165  LEU165      0.0311
    130  CG       -45.1770  -18.2510  -13.8160 C.3   165  LEU165      0.0022
    131  CD1      -46.3660  -19.1910  -13.9150 C.3   165  LEU165      0.0001
    132  CD2      -45.1080  -17.3170  -15.0360 C.3   165  LEU165      0.0001
    133  N        -45.8740  -19.2940  -10.2100 N.am  166  GLU166     -0.1963
    134  CA       -46.4370  -20.5350   -9.6860 C.3   166  GLU166      0.1733
    135  C        -47.7790  -20.7700  -10.3580 C.2   166  GLU166      0.2616
    136  O        -48.6010  -19.8600  -10.4630 O.2   166  GLU166     -0.2715
    137  CB       -46.5900  -20.4920   -8.1450 C.3   166  GLU166      0.0429
    138  CG       -46.8710  -21.8550   -7.4190 C.3   166  GLU166      0.1163
    139  CD       -46.6570  -21.8080   -5.8680 C.2   166  GLU166      0.3649
    140  OE1      -47.6060  -21.4090   -5.1580 O.co2 166  GLU166     -0.2457
    141  OE2      -45.5390  -22.1590   -5.3510 O.co2 166  GLU166     -0.2457
    142  N        -47.9770  -21.9890  -10.8320 N.am  167  LEU167     -0.1963
    143  CA       -49.2060  -22.3800  -11.4950 C.3   167  LEU167      0.1728
    144  C        -50.1570  -22.9640  -10.4610 C.2   167  LEU167      0.2616
    145  O        -49.7470  -23.2620   -9.3330 O.2   167  LEU167     -0.2715
    146  CB       -48.9140  -23.3970  -12.5920 C.3   167  LEU167      0.0311
    147  CG       -47.9840  -22.8870  -13.6910 C.3   167  LEU167      0.0022
    148  CD1      -47.5390  -24.0260  -14.6080 C.3   167  LEU167      0.0001
    149  CD2      -48.6940  -21.7890  -14.4670 C.3   167  LEU167      0.0001
    150  N        -51.4150  -23.1420  -10.8500 N.am  168  GLY168     -0.1955
    151  CA       -52.4460  -23.6180   -9.9450 C.3   168  GLY168      0.1869
    152  C        -52.1600  -24.9610   -9.2890 C.2   168  GLY168      0.2309
    153  O        -52.5850  -25.1990   -8.1590 O.2   168  GLY168     -0.2863
    154  N        -43.7900  -24.8880  -10.5520 N.3   172  HIS172     -0.1241
    155  CA       -43.0440  -23.6410  -10.5690 C.3   172  HIS172      0.1621
    156  C        -42.3430  -23.4250  -11.9250 C.2   172  HIS172      0.2264
    157  O        -41.6840  -24.3130  -12.4670 O.2   172  HIS172     -0.2867
    158  CB       -42.0580  -23.6150   -9.3880 C.3   172  HIS172      0.0745
    159  CG       -42.7320  -23.5230   -8.0440 C.ar  172  HIS172      0.0817
    160  ND1      -42.4910  -24.4210   -7.0240 N.ar  172  HIS172     -0.2268
    161  CD2      -43.6540  -22.6530   -7.5650 C.ar  172  HIS172      0.1154
    162  CE1      -43.2220  -24.0960   -5.9700 C.ar  172  HIS172      0.1986
    163  NE2      -43.9430  -23.0300   -6.2740 N.ar  172  HIS172     -0.2212
    164  N        -45.0400  -14.2830  -19.0530 N.3   187  ASP187     -0.1225
    165  CA       -44.7800  -13.5740  -17.8110 C.3   187  ASP187      0.1805
    166  C        -45.9800  -12.7590  -17.2910 C.2   187  ASP187      0.2598
    167  O        -45.8430  -11.5920  -16.9130 O.2   187  ASP187     -0.2718
    168  CB       -43.5950  -12.6520  -18.0590 C.3   187  ASP187      0.1424
    169  CG       -42.6400  -12.6030  -16.9200 C.2   187  ASP187      0.3668
    170  OD1      -42.6000  -13.5590  -16.1140 O.co2 187  ASP187     -0.2456
    171  OD2      -41.9160  -11.5860  -16.8320 O.co2 187  ASP187     -0.2456
    172  N        -47.1550  -13.3700  -17.2670 N.am  188  GLN188     -0.1966
    173  CA       -48.3710  -12.6440  -16.9090 C.3   188  GLN188      0.1718
    174  C        -49.2710  -13.4280  -15.9660 C.2   188  GLN188      0.2458
    175  O        -49.3270  -14.6630  -16.0250 O.2   188  GLN188     -0.2730
    176  CB       -49.1580  -12.2760  -18.1660 C.3   188  GLN188      0.0407
    177  CG       -48.4720  -11.2620  -19.0690 C.3   188  GLN188      0.0908
    178  CD       -48.4270   -9.8720  -18.4670 C.2   188  GLN188      0.2608
    179  OE1      -48.8560   -9.6530  -17.3310 O.2   188  GLN188     -0.2717
    180  NE2      -47.9080   -8.9200  -19.2320 N.am  188  GLN188     -0.0878
    181  N        -49.9740  -12.7130  -15.0770 N.am  189  PRO189     -0.2716
    182  CA       -50.9500  -13.3800  -14.2120 C.3   189  PRO189      0.1536
    183  C        -52.1710  -13.7970  -15.0030 C.2   189  PRO189      0.2599
    184  O        -53.2740  -13.3880  -14.6700 O.2   189  PRO189     -0.2715
    185  CB       -51.3000  -12.3110  -13.1760 C.3   189  PRO189      0.0310
    186  CG       -50.9580  -11.0190  -13.8330 C.3   189  PRO189      0.0237
    187  CD       -49.7700  -11.3050  -14.7010 C.3   189  PRO189      0.0939
    188  N        -51.9650  -14.5900  -16.0480 N.am  190  SER190     -0.1936
    189  CA       -53.0500  -15.0160  -16.9190 C.3   190  SER190      0.2055
    190  C        -53.4060  -16.4690  -16.6350 C.2   190  SER190      0.2643
    191  O        -52.7150  -17.1500  -15.8770 O.2   190  SER190     -0.2714
    192  CB       -52.6680  -14.8550  -18.3930 C.3   190  SER190      0.2130
    193  OG       -52.0560  -16.0400  -18.8920 O.3   190  SER190     -0.2179
    194  N        -54.4880  -16.9370  -17.2440 N.am  191  MET191     -0.1962
    195  CA       -54.8760  -18.3280  -17.1270 C.3   191  MET191      0.1736
    196  C        -53.9130  -19.1790  -17.9120 C.2   191  MET191      0.2616
    197  O        -53.9900  -19.2630  -19.1360 O.2   191  MET191     -0.2715
    198  CB       -56.3020  -18.5610  -17.6310 C.3   191  MET191      0.0427
    199  CG       -57.3740  -18.0810  -16.6760 C.3   191  MET191      0.0599
    200  SD       -59.0420  -18.5010  -17.2250 S.3   191  MET191     -0.1393
    201  CE       -59.4410  -17.0790  -18.2460 C.3   191  MET191      0.0692
    202  N        -52.9860  -19.8010  -17.2050 N.am  192  GLN192     -0.1977
    203  CA       -52.0570  -20.6980  -17.8530 C.3   192  GLN192      0.1601
    204  C        -52.0880  -22.0210  -17.1270 C.2   192  GLN192      0.2287
    205  O        -52.3330  -22.0870  -15.9230 O.2   192  GLN192     -0.2864
    206  CB       -50.6540  -20.0930  -17.8920 C.3   192  GLN192      0.0394
    207  CG       -50.6930  -18.7320  -18.5390 C.3   192  GLN192      0.0908
    208  CD       -49.3560  -18.1870  -18.9610 C.2   192  GLN192      0.2608
    209  OE1      -48.3840  -18.9140  -19.1310 O.2   192  GLN192     -0.2717
    210  NE2      -49.3150  -16.8780  -19.1700 N.am  192  GLN192     -0.0878
@<TRIPOS>BOND
     1    66    67    2
     2    66    65    1
     3    64    65    1
     4    68    65    1
     5    68    69    1
     6    59    58    2
     7   180   178   am
     8   210   208   am
     9   197   196    2
    10   209   208    2
    11   177   178    1
    12   177   176    1
    13   164   165    1
    14   208   207    1
    15   193   192    1
    16    58    57    1
    17   207   206    1
    18    71    69   ar
    19    71    73   ar
    20    69    70   ar
    21   178   179    2
    22   192   189    1
    23   201   200    1
    24   176   173    1
    25   168   165    1
    26   168   169    1
    27   196   202   am
    28   196   195    1
    29   206   203    1
    30   203   202    1
    31   203   204    1
    32   165   166    1
    33   198   195    1
    34   198   199    1
    35    73    74   ar
    36    56    57    1
    37    57    60    1
    38    70    72   ar
    39   166   172   am
    40   166   167    2
    41   172   173    1
    42   194   195    1
    43   194   190   am
    44   200   199    1
    45   204   205    2
    46   169   171   ar
    47   169   170   ar
    48   189   190    1
    49   189   188    1
    50   173   174    1
    51   190   191    2
    52    60    62    1
    53    60    61    1
    54    74    72   ar
    55    74    75    1
    56   188   183   am
    57   175   174    2
    58   174   181   am
    59    61    63    1
    60   181   187    1
    61   181   182    1
    62   132   130    1
    63   183   184    2
    64   183   182    1
    65   123   124   ar
    66   123   121   ar
    67   187   186    1
    68   124   122   ar
    69   148   147    1
    70   149   147    1
    71    47    48   ar
    72    47    45   ar
    73   121   120   ar
    74   182   185    1
    75   122   120   ar
    76   131   130    1
    77    48    46   ar
    78   120   119    1
    79   186   185    1
    80   130   129    1
    81    45    44   ar
    82   147   146    1
    83   119   116    1
    84    34    33    1
    85    34    35    2
    86    39    40    1
    87    33    32    1
    88    33    36    1
    89    46    44   ar
    90    44    43    1
    91   146   143    1
    92   129   126    1
    93   157   156    2
    94    40    43    1
    95    40    41    1
    96    32    38    1
    97    36    37    1
    98   156   155    1
    99   125   126    1
   100   125   117   am
   101   116   115    1
   102   116   117    1
   103   143   142    1
   104   143   144    1
   105   126   127    1
   106   115   107   am
   107   117   118    2
   108    41    42    2
   109    37    38    1
   110   128   127    2
   111   127   133   am
   112   150   144   am
   113   150   151    1
   114   142   135   am
   115   105   106    1
   116   107   106    1
   117   107   108    2
   118   155   154    1
   119   155   158    1
   120    51    50    1
   121    51    52    2
   122   136   135    2
   123   144   145    2
   124    50    49    1
   125    50    53    1
   126   106   109    1
   127   135   134    1
   128   133   134    1
   129   151   152    1
   130    55    53    1
   131   134   137    1
   132    53    54    1
   133   158   159    1
   134   152   153    2
   135   111   113   ar
   136   111   110   ar
   137   109   110    1
   138   113   114   ar
   139   110   112   ar
   140    31    29    1
   141   137   138    1
   142   159   161   ar
   143   159   160   ar
   144    30    29    1
   145   114   112   ar
   146    16    14   am
   147   161   163   ar
   148   138   139    1
   149    29    28    1
   150    85    86   ar
   151    85    83   ar
   152    86    84   ar
   153   101   100    1
   154   101   102    2
   155   160   162   ar
   156   103   100    1
   157   103   104    1
   158   100    99    1
   159    14    13    1
   160    14    15    2
   161    83    81   ar
   162   163   162   ar
   163    84    82   ar
   164    28    25    1
   165    13    10    1
   166   139   141   ar
   167   139   140   ar
   168    81    82   ar
   169    81    80    1
   170    95    94    2
   171    99    94   am
   172    26    25    1
   173    26    27    2
   174    25    24    1
   175    80    77    1
   176    94    93    1
   177    10    11    1
   178    10     9    1
   179    12    11    2
   180    24    19   am
   181    11    17   am
   182     9     3   am
   183    19    20    2
   184    19    18    1
   185    17    18    1
   186    97    96    1
   187    77    76    1
   188    77    78    1
   189    18    21    1
   190    93    96    1
   191    93    92    1
   192     1     2    1
   193    96    98    1
   194    79    78    2
   195     3     2    1
   196     3     4    2
   197     2     5    1
   198    21    22    1
   199    21    23    1
   200     5     6    1
   201    88    87    1
   202    88    89    1
   203    88    91    1
   204    89    90    2
   205     6     7    2
   206     6     8   am
