@<TRIPOS>MOLECULE
tmp/5eu9C01.pdb
 143 133 0 0 0
SMALL
GASTEIGER

@<TRIPOS>ATOM
      1  N        -59.2140    7.6930   49.0900 N.3    37  GLY37      -0.1210
      2  CA       -58.4850    8.7870   48.4580 C.3    37  GLY37       0.1956
      3  C        -58.2100    9.9970   49.3380 C.2    37  GLY37       0.2612
      4  O        -58.9380   10.2460   50.2950 O.2    37  GLY37      -0.2717
      5  N        -57.1490   10.7460   49.0190 N.am   38  ALA38      -0.1965
      6  CA       -56.8500   12.0000   49.7100 C.3    38  ALA38       0.1728
      7  C        -57.2150   13.2230   48.8660 C.2    38  ALA38       0.2616
      8  O        -57.6010   14.2560   49.4030 O.2    38  ALA38      -0.2715
      9  CB       -55.3700   12.0680   50.0950 C.3    38  ALA38       0.0334
     10  N        -57.0360   13.1270   47.5520 N.am   39  SER39      -0.1950
     11  CA       -57.4770   14.1910   46.6530 C.3    39  SER39       0.1924
     12  C        -58.5000   13.5940   45.7050 C.2    39  SER39       0.2314
     13  O        -58.1830   13.1900   44.5910 O.2    39  SER39      -0.2863
     14  CB       -56.2990   14.8240   45.8930 C.3    39  SER39       0.2116
     15  OG       -55.5380   13.8590   45.1850 O.3    39  SER39      -0.2180
     16  N        -51.5550   17.7340   50.0700 N.3   157  HIS157     -0.1241
     17  CA       -51.2720   16.9860   51.2920 C.3   157  HIS157      0.1621
     18  C        -49.7770   16.8600   51.5370 C.2   157  HIS157      0.2264
     19  O        -49.3170   15.9470   52.2170 O.2   157  HIS157     -0.2867
     20  CB       -51.9310   15.6110   51.2240 C.3   157  HIS157      0.0745
     21  CG       -53.4260   15.6750   51.2280 C.ar  157  HIS157      0.0817
     22  ND1      -54.1800   15.3750   52.3420 N.ar  157  HIS157     -0.2268
     23  CD2      -54.3050   16.0340   50.2610 C.ar  157  HIS157      0.1154
     24  CE1      -55.4620   15.5280   52.0550 C.ar  157  HIS157      0.1986
     25  NE2      -55.5640   15.9280   50.7990 N.ar  157  HIS157     -0.2212
     26  N        -48.5920   17.2980   42.3280 N.3   165  GLN165     -0.1231
     27  CA       -48.7490   16.3060   43.3930 C.3   165  GLN165      0.1698
     28  C        -47.6380   15.2360   43.4620 C.2   165  GLN165      0.2592
     29  O        -47.0670   14.9910   44.5330 O.2   165  GLN165     -0.2718
     30  CB       -50.1030   15.6300   43.2260 C.3   165  GLN165      0.0381
     31  CG       -50.5560   14.7790   44.3890 C.3   165  GLN165      0.0905
     32  CD       -51.9300   14.1930   44.1250 C.2   165  GLN165      0.2608
     33  OE1      -52.0680   13.2000   43.3970 O.2   165  GLN165     -0.2717
     34  NE2      -52.9580   14.8250   44.6780 N.am  165  GLN165     -0.0878
     35  N        -47.3540   14.5870   42.3280 N.am  166  GLU166     -0.1979
     36  CA       -46.4700   13.4180   42.3200 C.3   166  GLU166      0.1602
     37  C        -45.4340   13.4550   41.2130 C.2   166  GLU166      0.2287
     38  O        -45.7430   13.7630   40.0670 O.2   166  GLU166     -0.2864
     39  CB       -47.2790   12.1190   42.1740 C.3   166  GLU166      0.0415
     40  CG       -48.4100   11.9780   43.1710 C.3   166  GLU166      0.1163
     41  CD       -49.2790   10.7890   42.8930 C.2   166  GLU166      0.3649
     42  OE1      -48.9390    9.9810   41.9990 O.co2 166  GLU166     -0.2457
     43  OE2      -50.3140   10.6720   43.5680 O.co2 166  GLU166     -0.2457
     44  N        -47.4750    8.3120   50.8890 N.3   209  GLU209     -0.1245
     45  CA       -47.1600    7.1730   50.0230 C.3   209  GLU209      0.1567
     46  C        -45.6700    6.8540   49.9450 C.2   209  GLU209      0.2260
     47  O        -45.2420    6.1850   49.0140 O.2   209  GLU209     -0.2867
     48  CB       -47.6720    7.4060   48.6050 C.3   209  GLU209      0.0388
     49  CG       -49.0840    7.8840   48.5310 C.3   209  GLU209      0.1160
     50  CD       -49.2600    8.8790   47.4060 C.2   209  GLU209      0.3649
     51  OE1      -49.8900    9.9330   47.6520 O.co2 209  GLU209     -0.2457
     52  OE2      -48.7520    8.6090   46.2840 O.co2 209  GLU209     -0.2457
     53  N        -48.0980   13.0730   38.3340 N.3   244  ASP244     -0.1239
     54  CA       -49.5020   13.3060   38.6290 C.3   244  ASP244      0.1674
     55  C        -49.6080   14.7400   39.0920 C.2   244  ASP244      0.2266
     56  O        -49.2040   15.0720   40.2000 O.2   244  ASP244     -0.2867
     57  CB       -50.0420   12.3570   39.6990 C.3   244  ASP244      0.1410
     58  CG       -51.5390   12.5460   39.9600 C.2   244  ASP244      0.3668
     59  OD1      -52.0750   11.8050   40.8070 O.co2 244  ASP244     -0.2456
     60  OD2      -52.1880   13.4220   39.3340 O.co2 244  ASP244     -0.2456
     61  N        -52.4580   16.4860   39.3380 N.3   246  ALA246     -0.1245
     62  CA       -53.6720   16.6130   40.1440 C.3   246  ALA246      0.1562
     63  C        -54.1600   18.0560   40.0960 C.2   246  ALA246      0.2260
     64  O        -54.3500   18.6900   41.1290 O.2   246  ALA246     -0.2867
     65  CB       -53.4270   16.1690   41.5800 C.3   246  ALA246      0.0290
     66  N        -50.4650   12.8840   34.3760 N.3   292  GLU292     -0.1245
     67  CA       -51.7950   12.5630   34.8580 C.3   292  GLU292      0.1567
     68  C        -52.4800   13.8230   35.3860 C.2   292  GLU292      0.2260
     69  O        -51.8320   14.6800   36.0130 O.2   292  GLU292     -0.2867
     70  CB       -51.6970   11.4810   35.9450 C.3   292  GLU292      0.0388
     71  CG       -52.9920   11.0920   36.6240 C.3   292  GLU292      0.1160
     72  CD       -52.7290   10.2980   37.8990 C.2   292  GLU292      0.3649
     73  OE1      -51.7300    9.5440   37.9330 O.co2 292  GLU292     -0.2457
     74  OE2      -53.5000   10.4460   38.8700 O.co2 292  GLU292     -0.2457
     75  N        -57.5580   10.7740   35.7370 N.3   317  ASP317     -0.1225
     76  CA       -57.7830   10.2600   37.0800 C.3   317  ASP317      0.1805
     77  C        -59.0820   10.8670   37.5830 C.2   317  ASP317      0.2597
     78  O        -60.1280   10.2460   37.4870 O.2   317  ASP317     -0.2718
     79  CB       -56.6110   10.5960   38.0050 C.3   317  ASP317      0.1424
     80  CG       -56.8360   10.1430   39.4690 C.2   317  ASP317      0.3668
     81  OD1      -56.0900   10.6100   40.3590 O.co2 317  ASP317     -0.2456
     82  OD2      -57.7520    9.3360   39.7330 O.co2 317  ASP317     -0.2456
     83  N        -59.0160   12.0900   38.0970 N.am  318  ASP318     -0.1974
     84  CA       -60.2280   12.7760   38.5360 C.3   318  ASP318      0.1709
     85  C        -61.1460   13.0990   37.3520 C.2   318  ASP318      0.2293
     86  O        -62.3660   13.1450   37.5040 O.2   318  ASP318     -0.2864
     87  CB       -59.8710   14.0440   39.3220 C.3   318  ASP318      0.1436
     88  CG       -59.2160   13.7250   40.6740 C.2   318  ASP318      0.3671
     89  OD1      -59.4420   12.6060   41.2040 O.co2 318  ASP318     -0.2456
     90  OD2      -58.4770   14.5830   41.2040 O.co2 318  ASP318     -0.2456
     91  N        -56.5770    6.0000   34.4830 N.3   340  LEU340     -0.1245
     92  CA       -56.1090    5.5600   35.8070 C.3   340  LEU340      0.1561
     93  C        -57.2310    4.7540   36.4640 C.2   340  LEU340      0.2260
     94  O        -58.3460    5.2420   36.6250 O.2   340  LEU340     -0.2867
     95  CB       -55.6940    6.7360   36.6910 C.3   340  LEU340      0.0270
     96  CG       -54.8450    6.3300   37.9040 C.3   340  LEU340      0.0019
     97  CD1      -53.4190    5.9310   37.4660 C.3   340  LEU340      0.0001
     98  CD2      -54.7890    7.4330   38.9340 C.3   340  LEU340      0.0001
     99  N        -59.0360    2.9730   39.4100 N.3   342  LYS342     -0.1245
    100  CA       -59.2150    2.8790   40.8530 C.3   342  LYS342      0.1561
    101  C        -60.5650    2.2520   41.1750 C.2   342  LYS342      0.2260
    102  O        -61.6030    2.8850   41.0000 O.2   342  LYS342     -0.2867
    103  CB       -59.1120    4.2660   41.5040 C.3   342  LYS342      0.0271
    104  CG       -57.7100    4.8790   41.4710 C.3   342  LYS342      0.0035
    105  CD       -57.7320    6.3750   41.8540 C.3   342  LYS342      0.0206
    106  CE       -56.3160    6.9240   42.0210 C.3   342  LYS342      0.1093
    107  NZ       -56.2400    8.4000   42.2650 N.3   342  LYS342     -0.1314
    108  N        -53.1240    2.7010   43.3550 N.3   370  HIS370     -0.1226
    109  CA       -53.4840    2.8000   44.7640 C.3   370  HIS370      0.1752
    110  C        -54.2970    4.0740   45.0620 C.2   370  HIS370      0.2596
    111  O        -54.4830    4.9120   44.1860 O.2   370  HIS370     -0.2718
    112  CB       -52.2190    2.8080   45.6170 C.3   370  HIS370      0.0759
    113  CG       -51.3360    3.9960   45.3820 C.ar  370  HIS370      0.0818
    114  ND1      -50.2770    4.3120   46.2060 N.ar  370  HIS370     -0.2268
    115  CD2      -51.3430    4.9390   44.4070 C.ar  370  HIS370      0.1154
    116  CE1      -49.6820    5.4070   45.7640 C.ar  370  HIS370      0.1986
    117  NE2      -50.3100    5.8050   44.6680 N.ar  370  HIS370     -0.2212
    118  N        -54.7690    4.2040   46.2990 N.am  371  ARG371     -0.1966
    119  CA       -55.2230    5.4900   46.8350 C.3   371  ARG371      0.1729
    120  C        -54.2200    5.9120   47.8860 C.2   371  ARG371      0.2616
    121  O        -53.3640    5.1230   48.2760 O.2   371  ARG371     -0.2715
    122  CB       -56.6200    5.4110   47.4760 C.3   371  ARG371      0.0348
    123  CG       -57.7490    4.8270   46.6350 C.3   371  ARG371      0.0492
    124  CD       -57.9130    5.4840   45.2530 C.3   371  ARG371      0.2205
    125  NE       -58.0190    6.9500   45.2270 N.pl3 371  ARG371     -0.0865
    126  CZ       -59.1600    7.6340   45.1310 C.cat 371  ARG371      0.5346
    127  NH1      -60.3350    7.0030   45.0930 N.pl3 371  ARG371      0.1354
    128  NH2      -59.1310    8.9580   45.0820 N.pl3 371  ARG371      0.1354
    129  N        -54.3510    7.1320   48.3880 N.am  372  SER372     -0.1950
    130  CA       -53.4460    7.6090   49.4320 C.3   372  SER372      0.1924
    131  C        -53.6230    6.8510   50.7540 C.2   372  SER372      0.2314
    132  O        -52.6500    6.5180   51.4370 O.2   372  SER372     -0.2863
    133  CB       -53.6530    9.1030   49.6540 C.3   372  SER372      0.2116
    134  OG       -52.6340    9.6230   50.4880 O.3   372  SER372     -0.2180
    135  N        -49.2520    2.1690   39.4970 N.3   393  LYS393     -0.1245
    136  CA       -48.6320    3.0130   40.5020 C.3   393  LYS393      0.1561
    137  C        -49.2410    2.6900   41.8650 C.2   393  LYS393      0.2260
    138  O        -50.4580    2.7230   42.0460 O.2   393  LYS393     -0.2867
    139  CB       -48.7350    4.5070   40.1470 C.3   393  LYS393      0.0271
    140  CG       -50.0400    5.1930   40.3500 C.3   393  LYS393      0.0035
    141  CD       -49.8970    6.7200   40.1480 C.3   393  LYS393      0.0206
    142  CE       -51.1800    7.4150   40.5680 C.3   393  LYS393      0.1093
    143  NZ       -51.1940    8.8850   40.3300 N.3   393  LYS393     -0.1314
@<TRIPOS>BOND
     1    66    67    1
     2    91    92    1
     3    67    68    1
     4    67    70    1
     5    68    69    2
     6    75    76    1
     7    92    93    1
     8    92    95    1
     9    70    71    1
    10    93    94    2
    11    71    72    1
    12    95    96    1
    13    76    77    1
    14    76    79    1
    15    85    86    2
    16    85    84    1
    17    97    96    1
    18    78    77    2
    19    77    83   am
    20    72    73   ar
    21    72    74   ar
    22    96    98    1
    23    79    80    1
    24    83    84    1
    25    53    54    1
    26    84    87    1
    27    54    55    1
    28    54    57    1
    29    55    56    2
    30    87    88    1
    31    60    58   ar
    32    61    62    1
    33    99   100    1
    34    80    82   ar
    35    80    81   ar
    36   135   136    1
    37    57    58    1
    38    58    59   ar
    39    38    37    2
    40    63    62    1
    41    63    64    2
    42    62    65    1
    43   139   140    1
    44   139   136    1
    45   141   140    1
    46   141   142    1
    47   143   142    1
    48   136   137    1
    49    88    89   ar
    50    88    90   ar
    51   100   101    1
    52   100   103    1
    53   102   101    2
    54    37    36    1
    55   104   103    1
    56   104   105    1
    57   105   106    1
    58   137   138    2
    59    42    41   ar
    60   106   107    1
    61    39    36    1
    62    39    40    1
    63    36    35    1
    64    35    28   am
    65    26    27    1
    66    41    40    1
    67    41    43   ar
    68    30    27    1
    69    30    31    1
    70   108   109    1
    71    27    28    1
    72    33    32    2
    73    28    29    2
    74    32    31    1
    75    32    34   am
    76   111   110    2
    77   115   117   ar
    78   115   113   ar
    79    13    12    2
    80   117   116   ar
    81   109   110    1
    82   109   112    1
    83   110   118   am
    84   128   126    1
    85   127   126    1
    86   126   125    2
    87    15    14    1
    88   125   124    1
    89   124   123    1
    90   113   112    1
    91   113   114   ar
    92    12    11    1
    93   116   114   ar
    94    14    11    1
    95    52    50   ar
    96   118   119    1
    97   123   122    1
    98    11    10    1
    99   119   122    1
   100   119   120    1
   101    50    51   ar
   102    50    49    1
   103    10     7   am
   104   120   121    2
   105   120   129   am
   106   129   130    1
   107     2     1    1
   108     2     3    1
   109    49    48    1
   110    48    45    1
   111     7     8    2
   112     7     6    1
   113    47    46    2
   114     5     3   am
   115     5     6    1
   116     3     4    2
   117   130   133    1
   118   130   131    1
   119   133   134    1
   120     6     9    1
   121    46    45    1
   122    45    44    1
   123    16    17    1
   124    23    25   ar
   125    23    21   ar
   126   131   132    2
   127    25    24   ar
   128    20    21    1
   129    20    17    1
   130    21    22   ar
   131    17    18    1
   132    18    19    2
   133    24    22   ar
