@<TRIPOS>MOLECULE
tmp/5euaB00.pdb
 102 96 0 0 0
SMALL
GASTEIGER

@<TRIPOS>ATOM
      1  N        -50.8610    7.9130  -22.7690 N.3    41  CYS41      -0.1221
      2  CA       -49.5130    8.1800  -23.2080 C.3    41  CYS41       0.1808
      3  C        -48.4940    7.1020  -22.9080 C.2    41  CYS41       0.2601
      4  O        -47.8900    6.5570  -23.8340 O.2    41  CYS41      -0.2717
      5  CB       -49.0250    9.5250  -22.6680 C.3    41  CYS41       0.0970
      6  SG       -50.1330   10.8140  -23.2740 S.3    41  CYS41      -0.0800
      7  N        -48.1930    6.8660  -21.6510 N.am   42  SER42      -0.1952
      8  CA       -47.3000    5.7290  -21.3150 C.3    42  SER42       0.1924
      9  C        -47.9630    4.6480  -20.5110 C.2    42  SER42       0.2314
     10  O        -47.3180    3.6260  -20.2450 O.2    42  SER42      -0.2863
     11  CB       -46.0870    6.1690  -20.4810 C.3    42  SER42       0.2116
     12  OG       -45.0870    6.8410  -21.3000 O.3    42  SER42      -0.2180
     13  N        -47.9500    1.0550  -21.6350 N.3    45  LYS45      -0.1245
     14  CA       -46.8440    0.1780  -21.5020 C.3    45  LYS45       0.1561
     15  C        -47.1080   -0.9640  -20.5460 C.2    45  LYS45       0.2260
     16  O        -46.4320   -2.0100  -20.6400 O.2    45  LYS45      -0.2867
     17  CB       -45.6170    0.9970  -21.0730 C.3    45  LYS45       0.0271
     18  CG       -45.2600    2.0870  -22.1150 C.3    45  LYS45       0.0035
     19  CD       -44.0880    2.9610  -21.7020 C.3    45  LYS45       0.0206
     20  CE       -43.7690    4.0580  -22.7390 C.3    45  LYS45       0.1093
     21  NZ       -43.4470    5.3940  -22.2020 N.3    45  LYS45      -0.1314
     22  N        -36.9240   10.6720  -24.9800 N.3    77  TYR77      -0.1241
     23  CA       -36.9220   10.1050  -23.6170 C.3    77  TYR77       0.1605
     24  C        -36.6890    8.6000  -23.7070 C.2    77  TYR77       0.2264
     25  O        -37.6170    7.8050  -23.9680 O.2    77  TYR77      -0.2867
     26  CB       -38.2260   10.4140  -22.8510 C.3    77  TYR77       0.0534
     27  CG       -38.0910    9.8820  -21.4070 C.ar   77  TYR77      -0.0201
     28  CD1      -37.3300   10.5660  -20.4370 C.ar   77  TYR77      -0.0009
     29  CD2      -38.6650    8.6570  -21.0480 C.ar   77  TYR77      -0.0009
     30  CE1      -37.1650   10.0350  -19.1450 C.ar   77  TYR77       0.0417
     31  CE2      -38.5140    8.1300  -19.7840 C.ar   77  TYR77       0.0417
     32  CZ       -37.7870    8.8050  -18.8210 C.ar   77  TYR77       0.1957
     33  OH       -37.6620    8.2260  -17.5420 O.3    77  TYR77      -0.2866
     34  N        -40.1460    4.0830  -17.9510 N.3   103  SER103     -0.1217
     35  CA       -40.9850    4.5690  -19.0420 C.3   103  SER103      0.1889
     36  C        -40.1600    4.9140  -20.3000 C.2   103  SER103      0.2288
     37  O        -40.5420    5.8410  -21.0380 O.2   103  SER103     -0.2866
     38  CB       -41.8580    5.7530  -18.6120 C.3   103  SER103      0.2089
     39  OG       -43.0970    5.7390  -19.3190 O.3   103  SER103     -0.2183
     40  N        -39.0540    5.2160  -23.8300 N.3   105  ASN105     -0.1240
     41  CA       -39.7720    5.1120  -25.1280 C.3   105  ASN105      0.1653
     42  C        -39.2090    4.2330  -26.2170 C.2   105  ASN105      0.2266
     43  O        -39.9980    3.6540  -27.0240 O.2   105  ASN105     -0.2867
     44  CB       -40.1050    6.5020  -25.6520 C.3   105  ASN105      0.1155
     45  CG       -41.3180    7.0800  -24.9400 C.2   105  ASN105      0.2627
     46  OD1      -42.2820    6.3840  -24.5310 O.2   105  ASN105     -0.2716
     47  ND2      -41.2530    8.3690  -24.7180 N.am  105  ASN105     -0.0877
     48  N        -40.8300    5.7500  -11.1990 N.3   178  THR178     -0.1218
     49  CA       -41.3890    7.0470  -11.5200 C.3   178  THR178      0.1862
     50  C        -42.6100    7.4600  -10.7140 C.2   178  THR178      0.2287
     51  O        -43.1410    8.5700  -10.9320 O.2   178  THR178     -0.2866
     52  CB       -41.7960    7.1000  -13.0240 C.3   178  THR178      0.1770
     53  OG1      -42.7920    6.1090  -13.2890 O.3   178  THR178     -0.2211
     54  CG2      -40.6450    6.8300  -13.9260 C.3   178  THR178      0.0375
     55  N        -47.8140    2.1390  -12.8100 N.3   196  LYS196     -0.1231
     56  CA       -47.2410    2.6370  -14.0420 C.3   196  LYS196      0.1693
     57  C        -47.7770    4.0520  -14.2500 C.2   196  LYS196      0.2593
     58  O        -48.9770    4.3040  -14.3340 O.2   196  LYS196     -0.2718
     59  CB       -47.5480    1.7460  -15.2640 C.3   196  LYS196      0.0285
     60  CG       -46.9880    2.3290  -16.5710 C.3   196  LYS196      0.0035
     61  CD       -45.4740    2.1190  -16.6010 C.3   196  LYS196      0.0206
     62  CE       -44.7730    2.9320  -17.6600 C.3   196  LYS196      0.1093
     63  NZ       -44.6420    4.3590  -17.2520 N.3   196  LYS196     -0.1314
     64  N        -46.8690    5.0190  -14.3090 N.am  197  THR197     -0.1939
     65  CA       -47.2550    6.3840  -14.6000 C.3   197  THR197      0.2028
     66  C        -47.3330    6.7510  -16.0990 C.2   197  THR197      0.2643
     67  O        -46.8210    6.0750  -17.0110 O.2   197  THR197     -0.2714
     68  CB       -46.2380    7.4100  -13.9760 C.3   197  THR197      0.1808
     69  OG1      -44.9320    7.0930  -14.4480 O.3   197  THR197     -0.2208
     70  CG2      -46.2830    7.3760  -12.4690 C.3   197  THR197      0.0379
     71  N        -47.8780    7.9200  -16.3500 N.am  198  GLY198     -0.1939
     72  CA       -47.8140    8.5300  -17.7000 C.3   198  GLY198      0.2014
     73  C        -47.7450   10.0440  -17.6200 C.2   198  GLY198      0.2640
     74  O        -48.2610   10.6510  -16.6960 O.2   198  GLY198     -0.2714
     75  N        -47.0830   10.6370  -18.6000 N.am  199  SER199     -0.1935
     76  CA       -46.9930   12.0840  -18.7680 C.3   199  SER199      0.2055
     77  C        -47.2510   12.3910  -20.2430 C.2   199  SER199      0.2643
     78  O        -46.5780   11.8240  -21.0990 O.2   199  SER199     -0.2714
     79  CB       -45.5830   12.5960  -18.4230 C.3   199  SER199      0.2130
     80  OG       -45.4230   12.7080  -17.0610 O.3   199  SER199     -0.2179
     81  N        -48.1640   13.3200  -20.5190 N.am  200  CYS200     -0.1953
     82  CA       -48.6870   13.5830  -21.8650 C.3   200  CYS200      0.1843
     83  C        -48.4860   15.0980  -22.1430 C.2   200  CYS200      0.2625
     84  O        -48.0780   15.8400  -21.2810 O.2   200  CYS200     -0.2714
     85  CB       -50.2120   13.3340  -21.9190 C.3   200  CYS200      0.0997
     86  SG       -50.7750   11.6540  -21.5400 S.3   200  CYS200     -0.0797
     87  N        -48.8670   15.5240  -23.3400 N.am  201  ALA201     -0.1977
     88  CA       -49.0400   16.9410  -23.6620 C.3   201  ALA201      0.1597
     89  C        -50.3150   17.5000  -23.0260 C.2   201  ALA201      0.2287
     90  O        -51.0920   16.7660  -22.3950 O.2   201  ALA201     -0.2864
     91  CB       -49.0850   17.0940  -25.1630 C.3   201  ALA201      0.0319
     92  N        -51.0240   14.1400  -16.7100 N.3   205  ARG205     -0.1245
     93  CA       -50.2290   13.3650  -15.7410 C.3   205  ARG205      0.1563
     94  C        -51.1530   12.3020  -15.1200 C.2   205  ARG205      0.2260
     95  O        -52.2110   12.6400  -14.5950 O.2   205  ARG205     -0.2867
     96  CB       -49.6260   14.2940  -14.6920 C.3   205  ARG205      0.0307
     97  CG       -48.5130   13.6960  -13.8730 C.3   205  ARG205      0.0489
     98  CD       -47.0990   13.8240  -14.4750 C.3   205  ARG205      0.2205
     99  NE       -46.1430   13.1400  -13.5830 N.pl3 205  ARG205     -0.0865
    100  CZ       -45.4680   13.7190  -12.5880 C.cat 205  ARG205      0.5346
    101  NH1      -45.5760   15.0400  -12.3750 N.pl3 205  ARG205      0.1354
    102  NH2      -44.6320   12.9880  -11.8390 N.pl3 205  ARG205      0.1354
@<TRIPOS>BOND
     1    43    42    2
     2    42    41    1
     3    44    41    1
     4    44    45    1
     5    91    88    1
     6    41    40    1
     7    22    23    1
     8    45    47   am
     9    45    46    2
    10    25    24    2
    11     4     3    2
    12    24    23    1
    13    88    87    1
    14    88    89    1
    15    23    26    1
    16    87    83   am
    17     6     5    1
    18     6    86    1
    19     2     3    1
    20     2     1    1
    21     2     5    1
    22    89    90    2
    23     3     7   am
    24    26    27    1
    25    20    21    1
    26    20    19    1
    27    83    82    1
    28    83    84    2
    29    18    19    1
    30    18    17    1
    31    85    82    1
    32    85    86    1
    33    82    81    1
    34     7     8    1
    35    13    14    1
    36    14    17    1
    37    14    15    1
    38    27    29   ar
    39    27    28   ar
    40     8     9    1
    41     8    11    1
    42    12    11    1
    43    78    77    2
    44    29    31   ar
    45    37    36    2
    46    16    15    2
    47    81    77   am
    48     9    10    2
    49    28    30   ar
    50    36    35    1
    51    77    76    1
    52    31    32   ar
    53    39    38    1
    54    30    32   ar
    55    35    38    1
    56    35    34    1
    57    32    33    1
    58    76    75    1
    59    76    79    1
    60    75    73   am
    61    79    80    1
    62    72    73    1
    63    72    71    1
    64    62    63    1
    65    62    61    1
    66    73    74    2
    67    67    66    2
    68    92    93    1
    69    61    60    1
    70    60    59    1
    71    71    66   am
    72    66    65    1
    73    93    94    1
    74    93    96    1
    75    59    56    1
    76    94    95    2
    77    96    97    1
    78    65    64    1
    79    65    68    1
    80    98    97    1
    81    98    99    1
    82    69    68    1
    83    58    57    2
    84    64    57   am
    85    57    56    1
    86    56    55    1
    87    68    70    1
    88    54    52    1
    89    99   100    2
    90    53    52    1
    91    52    49    1
    92   100   101    1
    93   100   102    1
    94    49    48    1
    95    49    50    1
    96    51    50    2
