@<TRIPOS>MOLECULE
tmp/5euaA00.pdb
 140 131 0 0 0
SMALL
GASTEIGER

@<TRIPOS>ATOM
      1  N        -19.6380    4.4460   -2.7910 N.3    42  SER42      -0.1217
      2  CA       -20.4990    3.4410   -3.4950 C.3    42  SER42       0.1889
      3  C        -19.7650    2.5750   -4.5120 C.2    42  SER42       0.2288
      4  O        -20.3140    1.5470   -4.9830 O.2    42  SER42      -0.2866
      5  CB       -21.6900    4.0640   -4.1420 C.3    42  SER42       0.2089
      6  OG       -22.5780    4.5580   -3.1460 O.3    42  SER42      -0.2183
      7  N        -19.6120   -1.2450   -4.3790 N.3    45  LYS45      -0.1245
      8  CA       -20.7400   -2.0940   -4.8260 C.3    45  LYS45       0.1561
      9  C        -20.4600   -2.9770   -6.0580 C.2    45  LYS45       0.2260
     10  O        -21.0820   -4.0380   -6.2190 O.2    45  LYS45      -0.2867
     11  CB       -21.9880   -1.2100   -4.9920 C.3    45  LYS45       0.0271
     12  CG       -22.5190   -0.6690   -3.6760 C.3    45  LYS45       0.0035
     13  CD       -23.4610    0.5380   -3.7920 C.3    45  LYS45       0.0206
     14  CE       -23.8790    1.0870   -2.4430 C.3    45  LYS45       0.1093
     15  NZ       -24.6830    2.3620   -2.4420 N.3    45  LYS45      -0.1314
     16  N        -31.2990    5.9480    4.5770 N.3    76  GLU76      -0.1231
     17  CA       -31.6900    7.2020    3.9380 C.3    76  GLU76       0.1699
     18  C        -31.7380    7.0940    2.4010 C.2    76  GLU76       0.2592
     19  O        -32.6640    7.6080    1.7540 O.2    76  GLU76      -0.2718
     20  CB       -30.7040    8.3100    4.3530 C.3    76  GLU76       0.0402
     21  CG       -31.0430    9.6920    3.7990 C.3    76  GLU76       0.1161
     22  CD       -29.9730   10.7530    4.0290 C.2    76  GLU76       0.3649
     23  OE1      -28.9040   10.4820    4.6270 O.co2  76  GLU76      -0.2457
     24  OE2      -30.1930   11.8830    3.5620 O.co2  76  GLU76      -0.2457
     25  N        -30.7130    6.4790    1.8170 N.am   77  TYR77      -0.1976
     26  CA       -30.7250    6.2850    0.3720 C.3    77  TYR77       0.1639
     27  C        -30.9250    4.8250    0.0280 C.2    77  TYR77       0.2290
     28  O        -29.9970    4.0220   -0.0750 O.2    77  TYR77      -0.2864
     29  CB       -29.5060    6.8810   -0.3370 C.3    77  TYR77       0.0560
     30  CG       -29.7100    6.7950   -1.8340 C.ar   77  TYR77      -0.0198
     31  CD1      -30.6260    7.6210   -2.4950 C.ar   77  TYR77      -0.0009
     32  CD2      -29.0780    5.8250   -2.5710 C.ar   77  TYR77      -0.0009
     33  CE1      -30.8360    7.5020   -3.8550 C.ar   77  TYR77       0.0417
     34  CE2      -29.2740    5.7110   -3.9150 C.ar   77  TYR77       0.0417
     35  CZ       -30.1310    6.5500   -4.5710 C.ar   77  TYR77       0.1957
     36  OH       -30.3190    6.3970   -5.9620 O.3    77  TYR77      -0.2866
     37  N        -27.5890    2.4900   -6.7140 N.3   103  SER103     -0.1217
     38  CA       -26.7350    2.7030   -5.5490 C.3   103  SER103      0.1889
     39  C        -27.5040    2.5090   -4.2270 C.2   103  SER103      0.2288
     40  O        -27.2330    3.1830   -3.2130 O.2   103  SER103     -0.2866
     41  CB       -26.0370    4.0700   -5.6230 C.3   103  SER103      0.2089
     42  OG       -24.7240    3.9940   -5.0660 O.3   103  SER103     -0.2183
     43  N        -28.4920    1.5400   -0.7850 N.3   105  ASN105     -0.1240
     44  CA       -27.7330    1.1470    0.3860 C.3   105  ASN105      0.1653
     45  C        -28.3000   -0.0030    1.1800 C.2   105  ASN105      0.2266
     46  O        -27.5370   -0.7630    1.7590 O.2   105  ASN105     -0.2867
     47  CB       -27.5200    2.3340    1.3110 C.3   105  ASN105      0.1155
     48  CG       -26.3210    3.2000    0.9090 C.2   105  ASN105      0.2627
     49  OD1      -25.4200    2.7860    0.1520 O.2   105  ASN105     -0.2716
     50  ND2      -26.2340    4.3620    1.5290 N.am  105  ASN105     -0.0877
     51  N        -22.9570    0.1270    5.1370 N.3   139  GLU139     -0.1231
     52  CA       -23.6000    1.4410    4.9080 C.3   139  GLU139      0.1684
     53  C        -24.3190    1.9020    6.1670 C.2   139  GLU139      0.2434
     54  O        -24.9920    1.0750    6.8290 O.2   139  GLU139     -0.2733
     55  CB       -24.6650    1.3390    3.7810 C.3   139  GLU139      0.0402
     56  CG       -24.0460    0.9090    2.4690 C.3   139  GLU139      0.1161
     57  CD       -23.1940    2.0150    1.8640 C.2   139  GLU139      0.3649
     58  OE1      -23.1750    3.1220    2.4470 O.co2 139  GLU139     -0.2457
     59  OE2      -22.6310    1.8110    0.7410 O.co2 139  GLU139     -0.2457
     60  N        -24.2740    3.1990    6.4660 N.am  140  PRO140     -0.2729
     61  CA       -23.6980    4.2480    5.5970 C.3   140  PRO140      0.1401
     62  C        -22.3670    4.7760    6.1240 C.2   140  PRO140      0.2269
     63  O        -21.8040    5.6920    5.5340 O.2   140  PRO140     -0.2865
     64  CB       -24.7150    5.3640    5.7450 C.3   140  PRO140      0.0296
     65  CG       -25.1750    5.2440    7.1900 C.3   140  PRO140      0.0237
     66  CD       -25.2250    3.7730    7.4540 C.3   140  PRO140      0.0939
     67  N        -18.7270    5.6500    4.2860 N.3   143  ASN143     -0.1240
     68  CA       -18.5710    6.8390    3.4330 C.3   143  ASN143      0.1653
     69  C        -17.9960    8.0500    4.1440 C.2   143  ASN143      0.2266
     70  O        -17.9770    9.1420    3.5900 O.2   143  ASN143     -0.2867
     71  CB       -19.9370    7.2480    2.8400 C.3   143  ASN143      0.1155
     72  CG       -20.5950    6.1110    2.0590 C.2   143  ASN143      0.2627
     73  OD1      -20.1270    5.7150    0.9650 O.2   143  ASN143     -0.2716
     74  ND2      -21.6630    5.5320    2.6470 N.am  143  ASN143     -0.0877
     75  N        -26.8090    6.2560  -12.7870 N.3   189  THR189     -0.1218
     76  CA       -26.2710    7.3840  -12.0130 C.3   189  THR189      0.1862
     77  C        -25.0120    7.9840  -12.6260 C.2   189  THR189      0.2287
     78  O        -24.4850    8.9710  -12.0690 O.2   189  THR189     -0.2866
     79  CB       -25.9180    6.9400  -10.5620 C.3   189  THR189      0.1770
     80  OG1      -24.9550    5.9000  -10.6230 O.3   189  THR189     -0.2211
     81  CG2      -27.1120    6.4070   -9.8610 C.3   189  THR189      0.0375
     82  N        -19.6540    2.4060  -12.2280 N.3   207  LYS207     -0.1231
     83  CA       -20.2430    2.5830  -10.8980 C.3   207  LYS207      0.1693
     84  C        -19.6660    3.8570  -10.2560 C.2   207  LYS207      0.2593
     85  O        -18.4560    3.9830  -10.1190 O.2   207  LYS207     -0.2718
     86  CB       -19.9640    1.3880   -9.9860 C.3   207  LYS207      0.0285
     87  CG       -20.6570    1.4590   -8.6240 C.3   207  LYS207      0.0035
     88  CD       -22.1770    1.3020   -8.7130 C.3   207  LYS207      0.0206
     89  CE       -22.9420    1.8370   -7.4870 C.3   207  LYS207      0.1093
     90  NZ       -23.1700    3.3070   -7.4130 N.3   207  LYS207     -0.1314
     91  N        -20.5550    4.7500   -9.8820 N.am  208  THR208     -0.1939
     92  CA       -20.2640    6.0050   -9.2430 C.3   208  THR208      0.2028
     93  C        -20.2970    5.8900   -7.7110 C.2   208  THR208      0.2643
     94  O        -20.8390    4.9310   -7.1560 O.2   208  THR208     -0.2714
     95  CB       -21.2990    7.0890   -9.6300 C.3   208  THR208      0.1808
     96  OG1      -22.6150    6.5550   -9.4860 O.3   208  THR208     -0.2208
     97  CG2      -21.0940    7.5620  -11.0700 C.3   208  THR208      0.0379
     98  N        -19.7600    6.9090   -7.0410 N.am  209  GLY209     -0.1939
     99  CA       -20.0160    7.0900   -5.6110 C.3   209  GLY209      0.2014
    100  C        -19.8240    8.5280   -5.1370 C.2   209  GLY209      0.2640
    101  O        -19.1470    9.3030   -5.7720 O.2   209  GLY209     -0.2714
    102  N        -20.4900    8.8820   -4.0550 N.am  210  SER210     -0.1935
    103  CA       -20.2500   10.1380   -3.3600 C.3   210  SER210      0.2055
    104  C        -19.9190    9.8090   -1.9020 C.2   210  SER210      0.2643
    105  O        -20.3600    8.7810   -1.3580 O.2   210  SER210     -0.2714
    106  CB       -21.4840   11.0010   -3.3710 C.3   210  SER210      0.2130
    107  OG       -22.0090   11.2080   -4.6780 O.3   210  SER210     -0.2179
    108  N        -19.1320   10.6790   -1.2930 N.am  211  CYS211     -0.1953
    109  CA       -18.6600   10.5200    0.0710 C.3   211  CYS211      0.1843
    110  C        -18.8510   11.8350    0.7810 C.2   211  CYS211      0.2625
    111  O        -18.9550   12.8790    0.1440 O.2   211  CYS211     -0.2714
    112  CB       -17.1440   10.2760    0.1320 C.3   211  CYS211      0.0997
    113  SG       -16.4630    9.0030   -0.9160 S.3   211  CYS211     -0.0797
    114  N        -18.7600   11.7910    2.1070 N.am  212  ALA212     -0.1977
    115  CA       -18.5770   13.0350    2.8590 C.3   212  ALA212      0.1597
    116  C        -17.2540   13.6960    2.5120 C.2   212  ALA212      0.2287
    117  O        -16.3590   13.1120    1.8380 O.2   212  ALA212     -0.2864
    118  CB       -18.6530   12.7550    4.3660 C.3   212  ALA212      0.0319
    119  N        -16.2660   12.4210   -4.6460 N.3   216  ARG216     -0.1245
    120  CA       -17.0320   12.0730   -5.8050 C.3   216  ARG216      0.1563
    121  C        -16.1790   11.2070   -6.7360 C.2   216  ARG216      0.2260
    122  O        -15.1160   11.6660   -7.2030 O.2   216  ARG216     -0.2867
    123  CB       -17.5040   13.3360   -6.5160 C.3   216  ARG216      0.0307
    124  CG       -18.5530   13.0870   -7.5590 C.3   216  ARG216      0.0489
    125  CD       -19.8980   12.7140   -6.9380 C.3   216  ARG216      0.2205
    126  NE       -20.5210   13.8050   -6.1870 N.pl3 216  ARG216     -0.0865
    127  CZ       -21.3180   14.7500   -6.7100 C.cat 216  ARG216      0.5346
    128  NH1      -21.6210   14.7990   -8.0310 N.pl3 216  ARG216      0.1354
    129  NH2      -21.8790   15.6690   -5.9420 N.pl3 216  ARG216      0.1354
    130  N        -18.8890   18.7700   -9.5340 N.3   246  ARG246     -0.1245
    131  CA       -18.0090   17.5880   -9.2330 C.3   246  ARG246      0.1563
    132  C        -18.1020   16.5740  -10.3630 C.2   246  ARG246      0.2260
    133  O        -17.0740   15.9650  -10.7570 O.2   246  ARG246     -0.2867
    134  CB       -18.3700   16.9630   -7.8990 C.3   246  ARG246      0.0307
    135  CG       -18.1070   17.8740   -6.7180 C.3   246  ARG246      0.0489
    136  CD       -18.4670   17.2710   -5.3790 C.3   246  ARG246      0.2205
    137  NE       -18.3400   18.3000   -4.3300 N.pl3 246  ARG246     -0.0865
    138  CZ       -19.0580   18.3310   -3.2170 C.cat 246  ARG246      0.5346
    139  NH1      -19.9560   17.3940   -3.0060 N.pl3 246  ARG246      0.1354
    140  NH2      -18.8970   19.3200   -2.3230 N.pl3 246  ARG246      0.1354
@<TRIPOS>BOND
     1    75    76    1
     2    77    78    2
     3    77    76    1
     4    82    83    1
     5    76    79    1
     6    97    95    1
     7    83    84    1
     8    83    86    1
     9   133   132    2
    10    80    79    1
    11    79    81    1
    12   132   131    1
    13    84    85    2
    14    84    91   am
    15    86    87    1
    16    91    92    1
    17    95    96    1
    18    95    92    1
    19   130   131    1
    20    92    93    1
    21   131   134    1
    22    88    87    1
    23    88    89    1
    24   128   127    1
    25   134   135    1
    26    93    94    2
    27    93    98   am
    28   124   125    1
    29   124   123    1
    30    89    90    1
    31   122   121    2
    32    98    99    1
    33   125   126    1
    34   121   120    1
    35   135   136    1
    36    37    38    1
    37   127   126    2
    38   127   129    1
    39   123   120    1
    40    10     9    2
    41     9     8    1
    42    36    35    1
    43   120   119    1
    44   101   100    2
    45    41    38    1
    46    41    42    1
    47    99   100    1
    48    38    39    1
    49   136   137    1
    50   100   102   am
    51    11     8    1
    52    11    12    1
    53     4     3    2
    54     8     7    1
    55   107   106    1
    56    35    34   ar
    57    35    33   ar
    58     3     2    1
    59   137   138    2
    60    39    40    2
    61     5     2    1
    62     5     6    1
    63   102   103    1
    64    34    32   ar
    65    33    31   ar
    66    13    12    1
    67    13    14    1
    68     2     1    1
    69   106   103    1
    70   103   104    1
    71   138   139    1
    72   138   140    1
    73    32    30   ar
    74    31    30   ar
    75    14    15    1
    76   104   105    2
    77   104   108   am
    78    30    29    1
    79   108   109    1
    80   113   112    1
    81    43    44    1
    82    29    26    1
    83    28    27    2
    84    27    26    1
    85   109   112    1
    86   109   110    1
    87   111   110    2
    88    49    48    2
    89    26    25    1
    90    44    45    1
    91    44    47    1
    92    59    57   ar
    93   110   114   am
    94    48    47    1
    95    48    50   am
    96    73    72    2
    97    45    46    2
    98    19    18    2
    99    25    18   am
   100   117   116    2
   101    57    58   ar
   102    57    56    1
   103    72    74   am
   104    72    71    1
   105   114   115    1
   106    18    17    1
   107    56    55    1
   108   116   115    1
   109    71    68    1
   110   115   118    1
   111    68    69    1
   112    68    67    1
   113    24    22   ar
   114    70    69    2
   115    55    52    1
   116    21    22    1
   117    21    20    1
   118    17    20    1
   119    17    16    1
   120    22    23   ar
   121    52    51    1
   122    52    53    1
   123    63    62    2
   124    61    64    1
   125    61    62    1
   126    61    60    1
   127    64    65    1
   128    53    60   am
   129    53    54    2
   130    60    66    1
   131    65    66    1
