@<TRIPOS>MOLECULE
tmp/5eubA00.pdb
 164 155 0 0 0
SMALL
GASTEIGER

@<TRIPOS>ATOM
      1  N        -17.4420  -54.2650  -10.9660 N.3     9  THR9       -0.1218
      2  CA       -18.7540  -54.9030  -11.0990 C.3     9  THR9        0.1862
      3  C        -19.7920  -54.1160  -10.3240 C.2     9  THR9        0.2287
      4  O        -19.5840  -53.8530   -9.1630 O.2     9  THR9       -0.2866
      5  CB       -18.7250  -56.3420  -10.5540 C.3     9  THR9        0.1770
      6  OG1      -17.7110  -57.0870  -11.2340 O.3     9  THR9       -0.2211
      7  CG2      -20.0790  -57.0210  -10.7500 C.3     9  THR9        0.0375
      8  N        -14.8250  -54.6790  -16.9030 N.3    52  HIS52      -0.1241
      9  CA       -15.3480  -55.8910  -17.5300 C.3    52  HIS52       0.1621
     10  C        -16.0090  -55.6610  -18.8940 C.2    52  HIS52       0.2264
     11  O        -16.6710  -56.5670  -19.4150 O.2    52  HIS52      -0.2867
     12  CB       -16.3330  -56.5600  -16.5800 C.3    52  HIS52       0.0745
     13  CG       -15.6910  -57.0910  -15.3400 C.ar   52  HIS52       0.0817
     14  ND1      -15.0300  -58.2970  -15.3110 N.ar   52  HIS52      -0.2268
     15  CD2      -15.6130  -56.5860  -14.0850 C.ar   52  HIS52       0.1154
     16  CE1      -14.5780  -58.5180  -14.0870 C.ar   52  HIS52       0.1986
     17  NE2      -14.9310  -57.5000  -13.3240 N.ar   52  HIS52      -0.2212
     18  N        -20.3540  -56.2290  -19.5210 N.3    56  HIS56      -0.1241
     19  CA       -19.8250  -57.1510  -18.4760 C.3    56  HIS56       0.1621
     20  C        -19.5730  -58.5500  -19.0440 C.2    56  HIS56       0.2264
     21  O        -20.1250  -59.5640  -18.5960 O.2    56  HIS56      -0.2867
     22  CB       -20.7090  -57.2080  -17.2260 C.3    56  HIS56       0.0745
     23  CG       -19.9770  -57.6920  -16.0070 C.ar   56  HIS56       0.0817
     24  ND1      -19.6930  -56.8640  -14.9420 N.ar   56  HIS56      -0.2268
     25  CD2      -19.4210  -58.8940  -15.7060 C.ar   56  HIS56       0.1154
     26  CE1      -19.0220  -57.5430  -14.0280 C.ar   56  HIS56       0.1986
     27  NE2      -18.8420  -58.7750  -14.4650 N.ar   56  HIS56      -0.2212
     28  N        -12.4000  -62.2810  -15.1300 N.3    60  PRO60      -0.2116
     29  CA       -11.2500  -61.5830  -14.5110 C.3    60  PRO60       0.1372
     30  C         -9.8930  -62.0210  -15.0320 C.2    60  PRO60       0.2244
     31  O         -9.0290  -61.1720  -15.2140 O.2    60  PRO60      -0.2868
     32  CB       -11.3800  -61.9170  -13.0180 C.3    60  PRO60       0.0268
     33  CG       -12.7880  -62.3280  -12.8310 C.3    60  PRO60       0.0207
     34  CD       -13.2930  -62.8880  -14.1270 C.3    60  PRO60       0.0892
     35  N        -13.9020  -51.8790   -6.8630 N.3    84  THR84      -0.1203
     36  CA       -13.9140  -53.3240   -6.9830 C.3    84  THR84       0.1994
     37  C        -14.8570  -53.9540   -5.9740 C.2    84  THR84       0.2618
     38  O        -14.8410  -53.5930   -4.7950 O.2    84  THR84      -0.2717
     39  CB       -12.4790  -53.9220   -6.8570 C.3    84  THR84       0.1784
     40  OG1      -12.5440  -55.3460   -6.8800 O.3    84  THR84      -0.2211
     41  CG2      -11.8000  -53.4990   -5.5610 C.3    84  THR84       0.0376
     42  N        -15.7080  -54.8660   -6.4430 N.am   85  ALA85      -0.1965
     43  CA       -16.5370  -55.6570   -5.5630 C.3    85  ALA85       0.1728
     44  C        -15.7140  -56.7990   -4.9560 C.2    85  ALA85       0.2616
     45  O        -14.8850  -57.4170   -5.6390 O.2    85  ALA85      -0.2715
     46  CB       -17.7460  -56.2010   -6.3190 C.3    85  ALA85       0.0334
     47  N        -15.9090  -57.0460   -3.6610 N.am   86  CYS86      -0.1954
     48  CA       -15.1370  -58.0720   -2.9830 C.3    86  CYS86       0.1843
     49  C        -15.9270  -58.7810   -1.9170 C.2    86  CYS86       0.2626
     50  O        -16.9970  -58.3210   -1.5140 O.2    86  CYS86      -0.2714
     51  CB       -13.8850  -57.4600   -2.3890 C.3    86  CYS86       0.0997
     52  SG       -14.2010  -56.2950   -1.0530 S.3    86  CYS86      -0.0797
     53  N        -15.4080  -59.9180   -1.4760 N.am   87  GLY87      -0.1954
     54  CA       -15.9460  -60.6000   -0.3080 C.3    87  GLY87       0.1869
     55  C        -15.1850  -60.2140    0.9320 C.2    87  GLY87       0.2309
     56  O        -14.0040  -59.8220    0.8560 O.2    87  GLY87      -0.2863
     57  N         -7.7050  -63.7960   -6.1350 N.3   163  ILE163     -0.1245
     58  CA        -7.7020  -65.1870   -6.6220 C.3   163  ILE163      0.1561
     59  C         -7.8570  -65.1880   -8.1510 C.2   163  ILE163      0.2260
     60  O         -8.2700  -64.1820   -8.7510 O.2   163  ILE163     -0.2867
     61  CB        -8.7890  -66.0640   -5.9430 C.3   163  ILE163      0.0252
     62  CG1      -10.2210  -65.6230   -6.3480 C.3   163  ILE163      0.0019
     63  CG2       -8.6150  -66.0370   -4.4390 C.3   163  ILE163      0.0019
     64  CD1      -11.3190  -66.5110   -5.8030 C.3   163  ILE163      0.0001
     65  N        -15.5330  -69.0040   -7.1500 N.3   168  PHE168     -0.1227
     66  CA       -15.3140  -68.5380   -5.8000 C.3   168  PHE168      0.1736
     67  C        -14.4160  -69.5460   -5.0580 C.2   168  PHE168      0.2596
     68  O        -14.1810  -70.6590   -5.5320 O.2   168  PHE168     -0.2718
     69  CB       -16.6500  -68.3680   -5.0780 C.3   168  PHE168      0.0547
     70  CG       -17.5280  -67.2800   -5.6500 C.ar  168  PHE168     -0.0202
     71  CD1      -17.1200  -65.9540   -5.6170 C.ar  168  PHE168     -0.0042
     72  CD2      -18.7690  -67.5690   -6.1900 C.ar  168  PHE168     -0.0042
     73  CE1      -17.9340  -64.9420   -6.0980 C.ar  168  PHE168     -0.0003
     74  CE2      -19.5880  -66.5570   -6.7050 C.ar  168  PHE168     -0.0003
     75  CZ       -19.1820  -65.2490   -6.6510 C.ar  168  PHE168     -0.0000
     76  N        -13.8930  -69.1400   -3.8980 N.am  169  SER169     -0.1952
     77  CA       -13.0550  -70.0090   -3.0890 C.3   169  SER169      0.1924
     78  C        -13.7830  -71.1630   -2.4040 C.2   169  SER169      0.2314
     79  O        -14.9730  -71.0730   -2.0760 O.2   169  SER169     -0.2863
     80  CB       -12.3550  -69.1740   -2.0200 C.3   169  SER169      0.2116
     81  OG       -11.6970  -68.0950   -2.6400 O.3   169  SER169     -0.2180
     82  N        -11.4270  -60.2740   -0.3780 N.3   185  ILE185     -0.1231
     83  CA       -11.0970  -61.1920   -1.4650 C.3   185  ILE185      0.1692
     84  C        -11.7660  -60.7660   -2.7550 C.2   185  ILE185      0.2592
     85  O        -12.9530  -60.4150   -2.7720 O.2   185  ILE185     -0.2718
     86  CB       -11.4510  -62.6600   -1.0830 C.3   185  ILE185      0.0266
     87  CG1      -11.0830  -63.6310   -2.2080 C.3   185  ILE185      0.0019
     88  CG2      -12.9200  -62.8310   -0.7090 C.3   185  ILE185      0.0020
     89  CD1      -10.9170  -65.0470   -1.7050 C.3   185  ILE185      0.0001
     90  N        -11.0070  -60.7810   -3.8500 N.am  186  ASN186     -0.1960
     91  CA       -11.5350  -60.4180   -5.1590 C.3   186  ASN186      0.1819
     92  C        -10.7770  -61.1460   -6.2650 C.2   186  ASN186      0.2621
     93  O         -9.9880  -62.0650   -5.9760 O.2   186  ASN186     -0.2715
     94  CB       -11.5590  -58.8800   -5.3480 C.3   186  ASN186      0.1195
     95  CG       -10.2040  -58.2720   -5.7220 C.2   186  ASN186      0.2630
     96  OD1       -9.1520  -58.9180   -5.6860 O.2   186  ASN186     -0.2716
     97  ND2      -10.2410  -56.9930   -6.0900 N.am  186  ASN186     -0.0877
     98  N        -11.0080  -60.7490   -7.5090 N.am  187  MET187     -0.1963
     99  CA       -10.3720  -61.4010   -8.6410 C.3   187  MET187      0.1736
    100  C         -9.6120  -60.4580   -9.5720 C.2   187  MET187      0.2617
    101  O         -9.0790  -60.9230  -10.5770 O.2   187  MET187     -0.2715
    102  CB       -11.4520  -62.1630   -9.4430 C.3   187  MET187      0.0427
    103  CG       -12.2540  -63.1550   -8.6070 C.3   187  MET187      0.0599
    104  SD       -13.5640  -63.9990   -9.5250 S.3   187  MET187     -0.1393
    105  CE       -14.4600  -64.8560   -8.2370 C.3   187  MET187      0.0692
    106  N         -9.5120  -59.1680   -9.2430 N.am  188  THR188     -0.1951
    107  CA        -8.9690  -58.1760  -10.1790 C.3   188  THR188      0.1897
    108  C         -7.8560  -57.2370   -9.6740 C.2   188  THR188      0.2313
    109  O         -7.2520  -56.5120  -10.4880 O.2   188  THR188     -0.2863
    110  CB       -10.0940  -57.2780  -10.6990 C.3   188  THR188      0.1794
    111  OG1      -10.6660  -56.5450   -9.6060 O.3   188  THR188     -0.2208
    112  CG2      -11.1730  -58.0990  -11.3770 C.3   188  THR188      0.0378
    113  N        -19.4010  -57.1570   -0.4480 N.3   210  THR210     -0.1203
    114  CA       -20.7720  -57.5010   -0.8360 C.3   210  THR210      0.1994
    115  C        -21.3470  -58.6780   -0.0850 C.2   210  THR210      0.2617
    116  O        -22.5490  -58.9230   -0.1730 O.2   210  THR210     -0.2717
    117  CB       -20.8580  -57.7900   -2.3390 C.3   210  THR210      0.1784
    118  OG1      -19.9720  -58.8520   -2.6690 O.3   210  THR210     -0.2211
    119  CG2      -20.4670  -56.5730   -3.1260 C.3   210  THR210      0.0376
    120  N        -20.5090  -59.3740    0.6790 N.am  211  ASP211     -0.1973
    121  CA       -20.8900  -60.5990    1.3710 C.3   211  ASP211      0.1709
    122  C        -19.7190  -61.0290    2.2240 C.2   211  ASP211      0.2293
    123  O        -18.5820  -60.5980    2.0120 O.2   211  ASP211     -0.2864
    124  CB       -21.2020  -61.7270    0.3850 C.3   211  ASP211      0.1436
    125  CG       -20.0220  -62.0140   -0.5450 C.2   211  ASP211      0.3671
    126  OD1      -19.9280  -61.3710   -1.6110 O.co2 211  ASP211     -0.2456
    127  OD2      -19.1420  -62.7990   -0.1570 O.co2 211  ASP211     -0.2456
    128  N        -17.4020  -64.0810    2.8150 N.3   213  ASP213     -0.1239
    129  CA       -17.0310  -65.2650    2.0540 C.3   213  ASP213      0.1674
    130  C        -17.3600  -66.4530    2.9710 C.2   213  ASP213      0.2266
    131  O        -17.7370  -66.2540    4.1550 O.2   213  ASP213     -0.2867
    132  CB       -15.5520  -65.1900    1.6830 C.3   213  ASP213      0.1410
    133  CG       -15.1370  -66.2250    0.6510 C.2   213  ASP213      0.3668
    134  OD1      -15.9650  -66.6000   -0.1890 O.co2 213  ASP213     -0.2456
    135  OD2      -13.9740  -66.6430    0.6740 O.co2 213  ASP213     -0.2456
    136  N        -22.5990  -67.5380   -0.7720 N.3   222  VAL222     -0.1245
    137  CA       -22.0240  -66.5730   -1.7320 C.3   222  VAL222      0.1561
    138  C        -22.5900  -66.9330   -3.0970 C.2   222  VAL222      0.2260
    139  O        -22.5640  -68.1020   -3.4830 O.2   222  VAL222     -0.2867
    140  CB       -20.4720  -66.6560   -1.8180 C.3   222  VAL222      0.0252
    141  CG1      -19.9310  -65.6380   -2.8200 C.3   222  VAL222      0.0019
    142  CG2      -19.8440  -66.4720   -0.4460 C.3   222  VAL222      0.0019
    143  N        -23.4940  -65.1260   -7.3390 N.3   224  VAL224     -0.1245
    144  CA       -23.5320  -64.0120   -8.2690 C.3   224  VAL224      0.1561
    145  C        -24.7270  -63.0970   -7.9620 C.2   224  VAL224      0.2260
    146  O        -24.5680  -61.8740   -7.8640 O.2   224  VAL224     -0.2867
    147  CB       -23.5790  -64.4860   -9.7570 C.3   224  VAL224      0.0252
    148  CG1      -23.9650  -63.3530  -10.6870 C.3   224  VAL224      0.0019
    149  CG2      -22.2480  -65.0880  -10.2060 C.3   224  VAL224      0.0019
    150  N        -24.3080  -61.0460   -4.8120 N.3   227  VAL227     -0.1231
    151  CA       -23.2880  -60.0250   -5.0040 C.3   227  VAL227      0.1692
    152  C        -23.9180  -58.8250   -5.7390 C.2   227  VAL227      0.2591
    153  O        -23.7950  -57.6830   -5.2920 O.2   227  VAL227     -0.2718
    154  CB       -22.0510  -60.5670   -5.7490 C.3   227  VAL227      0.0266
    155  CG1      -21.1030  -59.4430   -6.1230 C.3   227  VAL227      0.0020
    156  CG2      -21.3080  -61.5830   -4.8700 C.3   227  VAL227      0.0020
    157  N        -24.6010  -59.1040   -6.8470 N.am  228  LEU228     -0.1980
    158  CA       -25.1700  -58.0500   -7.6680 C.3   228  LEU228      0.1596
    159  C        -26.2260  -57.2490   -6.9190 C.2   228  LEU228      0.2287
    160  O        -26.2810  -56.0270   -7.0560 O.2   228  LEU228     -0.2864
    161  CB       -25.7590  -58.6280   -8.9610 C.3   228  LEU228      0.0297
    162  CG       -24.7260  -59.2290   -9.9020 C.3   228  LEU228      0.0022
    163  CD1      -25.4370  -59.7520  -11.1420 C.3   228  LEU228      0.0001
    164  CD2      -23.6300  -58.2220  -10.2560 C.3   228  LEU228      0.0001
@<TRIPOS>BOND
     1    18    19    1
     2    11    10    2
     3    20    21    2
     4    20    19    1
     5    10     9    1
     6    19    22    1
     7     9     8    1
     8     9    12    1
     9    22    23    1
    10    12    13    1
    11    23    25   ar
    12    23    24   ar
    13    25    27   ar
    14    13    14   ar
    15    13    15   ar
    16    14    16   ar
    17    31    30    2
    18    28    29    1
    19    28    34    1
    20    30    29    1
    21    24    26   ar
    22    29    32    1
    23    27    26   ar
    24    34    33    1
    25    16    17   ar
    26    15    17   ar
    27    32    33    1
    28   112   110    1
    29     6     5    1
    30   163   162    1
    31     2     1    1
    32     2     5    1
    33     2     3    1
    34     7     5    1
    35   110   107    1
    36   110   111    1
    37   148   147    1
    38   101   100    2
    39   109   108    2
    40     3     4    2
    41   164   162    1
    42   149   147    1
    43   107   108    1
    44   107   106    1
    45   162   161    1
    46   147   144    1
    47   100   106   am
    48   100    99    1
    49   104   103    1
    50   104   105    1
    51   102    99    1
    52   102   103    1
    53   161   158    1
    54    60    59    2
    55    99    98    1
    56   144   145    1
    57   144   143    1
    58    59    58    1
    59   145   146    2
    60   158   159    1
    61   158   157    1
    62    98    92   am
    63    65    66    1
    64   160   159    2
    65    36    35    1
    66    36    39    1
    67    36    37    1
    68    40    39    1
    69    39    41    1
    70   157   152   am
    71    74    75   ar
    72    74    72   ar
    73    75    73   ar
    74    58    57    1
    75    58    61    1
    76    42    37   am
    77    42    43    1
    78    62    61    1
    79    62    64    1
    80    46    43    1
    81    92    93    2
    82    92    91    1
    83    72    70   ar
    84   155   154    1
    85    73    71   ar
    86    97    95   am
    87    37    38    2
    88    61    63    1
    89    66    69    1
    90    66    67    1
    91   154   151    1
    92   154   156    1
    93   152   153    2
    94   152   151    1
    95    95    96    2
    96    95    94    1
    97    70    71   ar
    98    70    69    1
    99    45    44    2
   100    43    44    1
   101    68    67    2
   102    94    91    1
   103    91    90    1
   104    67    76   am
   105   151   150    1
   106    44    47   am
   107    76    77    1
   108    90    84   am
   109    47    48    1
   110   139   138    2
   111   119   117    1
   112   138   137    1
   113    77    78    1
   114    77    80    1
   115    48    51    1
   116    48    49    1
   117   141   140    1
   118    85    84    2
   119    84    83    1
   120   118   117    1
   121    81    80    1
   122    78    79    2
   123    51    52    1
   124   117   114    1
   125    87    89    1
   126    87    86    1
   127    49    50    2
   128    49    53   am
   129   140   137    1
   130   140   142    1
   131   137   136    1
   132   126   125   ar
   133    53    54    1
   134    83    86    1
   135    83    82    1
   136    86    88    1
   137   114   113    1
   138   114   115    1
   139   125   127   ar
   140   125   124    1
   141    54    55    1
   142   134   133   ar
   143   116   115    2
   144   115   120   am
   145   124   121    1
   146   133   135   ar
   147   133   132    1
   148   120   121    1
   149    56    55    2
   150   121   122    1
   151   132   129    1
   152   123   122    2
   153   129   128    1
   154   129   130    1
   155   130   131    2
