@<TRIPOS>MOLECULE
tmp/5eudA01.pdb
 103 105 0 0 0
SMALL
GASTEIGER

@<TRIPOS>ATOM
      1  N         -5.6800    0.1070  -15.2830 N.3    73  PRO73      -0.2102
      2  CA        -7.1620    0.1670  -15.1940 C.3    73  PRO73       0.1504
      3  C         -7.8160    1.5560  -15.2140 C.2    73  PRO73       0.2576
      4  O         -9.0400    1.6400  -15.3650 O.2    73  PRO73      -0.2718
      5  CB        -7.4870   -0.5690  -13.8900 C.3    73  PRO73       0.0282
      6  CG        -6.2880   -1.3480  -13.5660 C.3    73  PRO73       0.0208
      7  CD        -5.1140   -0.5870  -14.1100 C.3    73  PRO73       0.0893
      8  N         -7.0100    2.6330  -15.1110 N.am   74  LEU74      -0.1966
      9  CA        -7.4530    4.0340  -15.2230 C.3    74  LEU74       0.1728
     10  C         -8.0180    4.2420  -16.6500 C.2    74  LEU74       0.2616
     11  O         -8.8410    5.1340  -16.8530 O.2    74  LEU74      -0.2715
     12  CB        -6.2210    4.9490  -15.0380 C.3    74  LEU74       0.0311
     13  CG        -6.2920    6.4930  -15.1600 C.3    74  LEU74       0.0022
     14  CD1       -7.2030    7.0820  -14.0830 C.3    74  LEU74       0.0001
     15  CD2       -4.9450    7.1810  -15.2420 C.3    74  LEU74       0.0001
     16  N         -7.5490    3.4110  -17.6330 N.am   75  HIS75      -0.1960
     17  CA        -7.9600    3.4120  -19.0400 C.3    75  HIS75       0.1772
     18  C         -8.7610    2.1150  -19.4080 C.2    75  HIS75       0.2462
     19  O         -8.2550    1.2910  -20.1740 O.2    75  HIS75      -0.2730
     20  CB        -6.7420    3.5640  -19.9590 C.3    75  HIS75       0.0785
     21  CG        -5.9110    4.7650  -19.6560 C.ar   75  HIS75       0.0821
     22  ND1       -6.1620    5.9780  -20.2580 N.ar   75  HIS75      -0.2267
     23  CD2       -4.8750    4.9050  -18.7950 C.ar   75  HIS75       0.1154
     24  CE1       -5.2640    6.8150  -19.7630 C.ar   75  HIS75       0.1986
     25  NE2       -4.4750    6.2160  -18.8740 N.ar   75  HIS75      -0.2212
     26  N        -10.0180    1.9310  -18.9320 N.am   76  PRO76      -0.2727
     27  CA       -10.7700    0.7140  -19.3020 C.3    76  PRO76       0.1402
     28  C        -11.0680    0.5830  -20.8010 C.2    76  PRO76       0.2269
     29  O        -11.3540   -0.5110  -21.2770 O.2    76  PRO76      -0.2865
     30  CB       -12.0630    0.8530  -18.4940 C.3    76  PRO76       0.0296
     31  CG       -12.2190    2.3290  -18.2740 C.3    76  PRO76       0.0237
     32  CD       -10.8210    2.7930  -18.0390 C.3    76  PRO76       0.0939
     33  N        -12.3710   20.0370  -12.8820 N.3   285  TRP285     -0.1241
     34  CA       -10.9520   20.0310  -13.2430 C.3   285  TRP285      0.1605
     35  C        -10.7640   20.1860  -14.7650 C.2   285  TRP285      0.2264
     36  O        -11.3160   19.3740  -15.5220 O.2   285  TRP285     -0.2867
     37  CB       -10.2970   18.7400  -12.7340 C.3   285  TRP285      0.0550
     38  CG        -8.8220   18.6120  -12.9950 C.ar  285  TRP285      0.0003
     39  CD1       -7.8510   19.5360  -12.7220 C.ar  285  TRP285      0.0946
     40  CD2       -8.1380   17.4310  -13.4440 C.ar  285  TRP285      0.0152
     41  NE1       -6.6140   19.0310  -13.0580 N.ar  285  TRP285     -0.2442
     42  CE2       -6.7590   17.7300  -13.4760 C.ar  285  TRP285      0.0810
     43  CE3       -8.5620   16.1420  -13.8290 C.ar  285  TRP285      0.0012
     44  CZ2       -5.7970   16.7970  -13.8980 C.ar  285  TRP285      0.0191
     45  CZ3       -7.6070   15.2080  -14.2170 C.ar  285  TRP285      0.0001
     46  CH2       -6.2430   15.5430  -14.2560 C.ar  285  TRP285      0.0015
     47  N         -8.5720   19.0750  -16.5530 N.3   287  GLY287     -0.1210
     48  CA        -8.0230   17.8150  -17.0540 C.3   287  GLY287      0.1956
     49  C         -9.0840   16.8030  -17.4520 C.2   287  GLY287      0.2612
     50  O         -8.7550   15.6730  -17.8450 O.2   287  GLY287     -0.2717
     51  N        -10.3490   17.2210  -17.3450 N.am  288  GLY288     -0.1942
     52  CA       -11.5370   16.4420  -17.6650 C.3   288  GLY288      0.2014
     53  C        -12.2350   15.8930  -16.4370 C.2   288  GLY288      0.2639
     54  O        -11.7360   16.0410  -15.3150 O.2   288  GLY288     -0.2714
     55  N        -13.3930   15.2380  -16.6470 N.am  289  ILE289     -0.1963
     56  CA       -14.1400   14.5560  -15.5880 C.3   289  ILE289      0.1727
     57  C        -13.2670   13.3830  -15.0930 C.2   289  ILE289      0.2616
     58  O        -12.8080   12.5740  -15.8870 O.2   289  ILE289     -0.2715
     59  CB       -15.5560   14.1010  -16.0460 C.3   289  ILE289      0.0290
     60  CG1      -16.4380   15.3440  -16.3050 C.3   289  ILE289      0.0022
     61  CG2      -16.2090   13.1850  -14.9800 C.3   289  ILE289      0.0023
     62  CD1      -17.5620   15.1250  -17.2380 C.3   289  ILE289      0.0001
     63  N        -13.0280   13.3340  -13.7820 N.am  290  TYR290     -0.1960
     64  CA       -12.1660   12.3680  -13.1570 C.3   290  TYR290      0.1771
     65  C        -12.9230   11.6350  -12.0600 C.2   290  TYR290      0.2619
     66  O        -13.5970   12.2530  -11.2430 O.2   290  TYR290     -0.2715
     67  CB       -10.9410   13.1150  -12.6100 C.3   290  TYR290      0.0574
     68  CG        -9.8170   12.2120  -12.1840 C.ar  290  TYR290     -0.0198
     69  CD1       -8.8340   11.8210  -13.0850 C.ar  290  TYR290     -0.0009
     70  CD2       -9.6980   11.7930  -10.8620 C.ar  290  TYR290     -0.0009
     71  CE1       -7.7700   11.0160  -12.6890 C.ar  290  TYR290      0.0417
     72  CE2       -8.6410   10.9870  -10.4530 C.ar  290  TYR290      0.0417
     73  CZ        -7.6840   10.5910  -11.3720 C.ar  290  TYR290      0.1957
     74  OH        -6.6450    9.7820  -10.9770 O.3   290  TYR290     -0.2866
     75  N        -12.8160   10.3150  -12.0580 N.am  291  ALA291     -0.1977
     76  CA       -13.5250    9.4290  -11.1350 C.3   291  ALA291      0.1597
     77  C        -12.6240    8.2700  -10.6790 C.2   291  ALA291      0.2287
     78  O        -12.1160    7.5360  -11.5160 O.2   291  ALA291     -0.2864
     79  CB       -14.7740    8.8850  -11.8230 C.3   291  ALA291      0.0319
     80  N        -12.4980    4.8600   -8.1130 N.3   293  PRO293     -0.2116
     81  CA       -13.1960    4.0080   -7.1400 C.3   293  PRO293      0.1372
     82  C        -12.3770    3.7910   -5.8700 C.2   293  PRO293      0.2244
     83  O        -12.9340    3.4640   -4.8330 O.2   293  PRO293     -0.2868
     84  CB       -13.4280    2.7010   -7.8920 C.3   293  PRO293      0.0268
     85  CG       -12.4370    2.6950   -8.9940 C.3   293  PRO293      0.0207
     86  CD       -11.9250    4.0790   -9.2330 C.3   293  PRO293      0.0892
     87  N         -3.5980    5.8770  -11.6100 N.3   298  SER298     -0.1202
     88  CA        -2.9260    4.8250  -12.3780 C.3   298  SER298      0.2020
     89  C         -2.6320    3.6370  -11.4550 C.2   298  SER298      0.2618
     90  O         -2.1960    3.8250  -10.3090 O.2   298  SER298     -0.2717
     91  CB        -1.6200    5.3360  -12.9840 C.3   298  SER298      0.2103
     92  OG        -1.8620    6.2880  -14.0070 O.3   298  SER298     -0.2182
     93  N         -2.9240    2.4220  -11.9290 N.am  299  ARG299     -0.1979
     94  CA        -2.7520    1.2100  -11.1200 C.3   299  ARG299      0.1597
     95  C         -2.0740    0.0950  -11.9120 C.2   299  ARG299      0.2287
     96  O         -2.2470    0.0480  -13.1400 O.2   299  ARG299     -0.2864
     97  CB        -4.1230    0.7130  -10.5680 C.3   299  ARG299      0.0334
     98  CG        -4.9270    1.7790   -9.8120 C.3   299  ARG299      0.0492
     99  CD        -6.0030    1.2580   -8.8610 C.3   299  ARG299      0.2205
    100  NE        -6.8800    0.2490   -9.4540 N.pl3 299  ARG299     -0.0865
    101  CZ        -7.9090    0.5010  -10.2580 C.cat 299  ARG299      0.5346
    102  NH1       -8.2040    1.7490  -10.6040 N.pl3 299  ARG299      0.1354
    103  NH2       -8.6450   -0.4920  -10.7300 N.pl3 299  ARG299      0.1354
@<TRIPOS>BOND
     1    29    28    2
     2    28    27    1
     3    22    24   ar
     4    22    21   ar
     5    19    18    2
     6    20    21    1
     7    20    17    1
     8    24    25   ar
     9    21    23   ar
    10    18    17    1
    11    18    26   am
    12    27    26    1
    13    27    30    1
    14    17    16    1
    15    26    32    1
    16    25    23   ar
    17    30    31    1
    18    31    32    1
    19    50    49    2
    20    52    51    1
    21    52    53    1
    22    16    10   am
    23    49    51   am
    24    49    48    1
    25    62    60    1
    26    48    47    1
    27    11    10    2
    28    10     9    1
    29    55    53   am
    30    55    56    1
    31    53    54    2
    32    60    59    1
    33    59    56    1
    34    59    61    1
    35    58    57    2
    36    56    57    1
    37    36    35    2
    38     4     3    2
    39     1     2    1
    40     1     7    1
    41    15    13    1
    42     9     8    1
    43     9    12    1
    44     3     2    1
    45     3     8   am
    46     2     5    1
    47    13    12    1
    48    13    14    1
    49    57    63   am
    50    35    34    1
    51    46    45   ar
    52    46    44   ar
    53    45    43   ar
    54     7     6    1
    55    92    91    1
    56    44    42   ar
    57     5     6    1
    58    43    40   ar
    59    63    64    1
    60    42    40   ar
    61    42    41   ar
    62    40    38   ar
    63    34    33    1
    64    34    37    1
    65    64    67    1
    66    64    65    1
    67    96    95    2
    68    69    71   ar
    69    69    68   ar
    70    41    39   ar
    71    38    37    1
    72    38    39   ar
    73    91    88    1
    74    71    73   ar
    75    67    68    1
    76    88    87    1
    77    88    89    1
    78    68    70   ar
    79    65    75   am
    80    65    66    2
    81    75    76    1
    82    93    89   am
    83    93    94    1
    84    95    94    1
    85    79    76    1
    86    78    77    2
    87    89    90    2
    88    73    74    1
    89    73    72   ar
    90    76    77    1
    91    94    97    1
    92    70    72   ar
    93   103   101    1
    94   102   101    1
    95    97    98    1
    96   101   100    2
    97    98    99    1
    98   100    99    1
    99    86    85    1
   100    86    80    1
   101    85    84    1
   102    80    81    1
   103    84    81    1
   104    81    82    1
   105    82    83    2
