@<TRIPOS>MOLECULE
tmp/5eudA00.pdb
 120 113 0 0 0
SMALL
GASTEIGER

@<TRIPOS>ATOM
      1  N         -6.2610   -4.9100   13.3170 N.3   147  HIS147     -0.1241
      2  CA        -5.1310   -4.4430   12.5230 C.3   147  HIS147      0.1621
      3  C         -4.7370   -2.9950   12.7920 C.2   147  HIS147      0.2264
      4  O         -5.6100   -2.1260   12.9290 O.2   147  HIS147     -0.2867
      5  CB        -5.3970   -4.6790   11.0270 C.3   147  HIS147      0.0745
      6  CG        -4.1470   -4.6840   10.1980 C.ar  147  HIS147      0.0817
      7  ND1       -3.5430   -3.5070    9.7990 N.ar  147  HIS147     -0.2268
      8  CD2       -3.3690   -5.7170    9.8070 C.ar  147  HIS147      0.1154
      9  CE1       -2.4550   -3.8530    9.1410 C.ar  147  HIS147      0.1986
     10  NE2       -2.3110   -5.1690    9.1040 N.ar  147  HIS147     -0.2212
     11  N         -4.7820  -10.7240   13.1610 N.3   195  PHE195     -0.1241
     12  CA        -3.3860  -11.0970   12.8940 C.3   195  PHE195      0.1605
     13  C         -2.6420  -11.5520   14.1460 C.2   195  PHE195      0.2264
     14  O         -1.8990  -12.5060   14.0210 O.2   195  PHE195     -0.2867
     15  CB        -2.5990   -9.9430   12.2290 C.3   195  PHE195      0.0534
     16  CG        -1.0930  -10.1240   12.0760 C.ar  195  PHE195     -0.0203
     17  CD1       -0.5610  -10.7880   10.9710 C.ar  195  PHE195     -0.0042
     18  CD2       -0.2090   -9.5920   13.0150 C.ar  195  PHE195     -0.0042
     19  CE1        0.8260  -10.9090   10.8080 C.ar  195  PHE195     -0.0003
     20  CE2        1.1820   -9.7230   12.8540 C.ar  195  PHE195     -0.0003
     21  CZ         1.6840  -10.3520   11.7390 C.ar  195  PHE195     -0.0000
     22  N         -7.0770  -11.8790    6.2530 N.3   223  LEU223     -0.1245
     23  CA        -6.3570  -13.1350    6.4870 C.3   223  LEU223      0.1561
     24  C         -7.2350  -14.4040    6.2690 C.2   223  LEU223      0.2260
     25  O         -6.7590  -15.3720    5.6790 O.2   223  LEU223     -0.2867
     26  CB        -5.8420  -13.0900    7.9490 C.3   223  LEU223      0.0270
     27  CG        -4.5850  -13.8230    8.3940 C.3   223  LEU223      0.0019
     28  CD1       -3.4350  -13.7020    7.4050 C.3   223  LEU223      0.0001
     29  CD2       -4.1450  -13.3090    9.7540 C.3   223  LEU223      0.0001
     30  N          7.0820  -13.7680   13.4030 N.3   377  ASN377     -0.1225
     31  CA         6.5670  -12.4540   13.7620 C.3   377  ASN377      0.1785
     32  C          6.6300  -12.2640   15.2900 C.2   377  ASN377      0.2597
     33  O          6.1020  -13.0860   16.0370 O.2   377  ASN377     -0.2718
     34  CB         5.1400  -12.2790   13.2280 C.3   377  ASN377      0.1169
     35  CG         5.0220  -12.4620   11.7270 C.2   377  ASN377      0.2627
     36  OD1        4.7550  -13.5350   11.2200 O.2   377  ASN377     -0.2716
     37  ND2        5.1590  -11.4220   10.9720 N.am  377  ASN377     -0.0877
     38  N          7.3220  -11.2140   15.7320 N.am  378  GLY378     -0.1957
     39  CA         7.4560  -10.8880   17.1480 C.3   378  GLY378      0.1869
     40  C          6.2920  -10.0370   17.6100 C.2   378  GLY378      0.2309
     41  O          5.9750   -9.0280   16.9770 O.2   378  GLY378     -0.2863
     42  N         18.4620  -10.0900   18.7900 N.3   423  MET423     -0.1245
     43  CA        17.2500   -9.2830   18.6960 C.3   423  MET423      0.1570
     44  C         16.3680   -9.3110   19.9350 C.2   423  MET423      0.2261
     45  O         15.5310   -8.4190   20.0870 O.2   423  MET423     -0.2867
     46  CB        16.4450   -9.6680   17.4500 C.3   423  MET423      0.0387
     47  CG        15.9300   -8.4800   16.6930 C.3   423  MET423      0.0595
     48  SD        17.2340   -7.4080   16.0790 S.3   423  MET423     -0.1393
     49  CE        16.3210   -5.8910   15.8860 C.3   423  MET423      0.0692
     50  N         16.1820   -6.0830   22.0860 N.3   426  VAL426     -0.1231
     51  CA        15.5000   -5.0430   21.3050 C.3   426  VAL426      0.1692
     52  C         13.9980   -5.1900   21.5040 C.2   426  VAL426      0.2592
     53  O         13.3230   -4.2080   21.8030 O.2   426  VAL426     -0.2718
     54  CB        15.8690   -5.0580   19.7960 C.3   426  VAL426      0.0266
     55  CG1       15.5820   -3.7020   19.1520 C.3   426  VAL426      0.0020
     56  CG2       17.3240   -5.4700   19.5740 C.3   426  VAL426      0.0020
     57  N         13.4890   -6.4300   21.3560 N.am  427  TYR427     -0.1976
     58  CA        12.0850   -6.7880   21.5490 C.3   427  TYR427      0.1639
     59  C         11.6650   -6.5640   23.0040 C.2   427  TYR427      0.2290
     60  O         10.5710   -6.0450   23.2450 O.2   427  TYR427     -0.2864
     61  CB        11.8420   -8.2410   21.1090 C.3   427  TYR427      0.0560
     62  CG        11.6330   -8.3980   19.6160 C.ar  427  TYR427     -0.0198
     63  CD1       12.7100   -8.5790   18.7580 C.ar  427  TYR427     -0.0009
     64  CD2       10.3570   -8.3640   19.0630 C.ar  427  TYR427     -0.0009
     65  CE1       12.5250   -8.7140   17.3840 C.ar  427  TYR427      0.0417
     66  CE2       10.1600   -8.4930   17.6890 C.ar  427  TYR427      0.0417
     67  CZ        11.2480   -8.6780   16.8530 C.ar  427  TYR427      0.1957
     68  OH        11.0690   -8.8160   15.4950 O.3   427  TYR427     -0.2866
     69  N         11.5590   -2.7660   23.4670 N.3   430  ALA430     -0.1245
     70  CA        10.3740   -2.3260   22.7200 C.3   430  ALA430      0.1562
     71  C          9.0480   -2.5430   23.4640 C.2   430  ALA430      0.2260
     72  O          8.2080   -1.6350   23.4910 O.2   430  ALA430     -0.2867
     73  CB        10.3370   -3.0220   21.3690 C.3   430  ALA430      0.0290
     74  N          9.7070    4.3040   21.1500 N.3   438  VAL438     -0.1245
     75  CA         9.2630    3.4100   20.0760 C.3   438  VAL438      0.1561
     76  C          9.1540    4.2000   18.7450 C.2   438  VAL438      0.2260
     77  O          9.6320    3.7240   17.7140 O.2   438  VAL438     -0.2867
     78  CB         7.9140    2.7260   20.4420 C.3   438  VAL438      0.0252
     79  CG1        7.3690    1.9140   19.2730 C.3   438  VAL438      0.0019
     80  CG2        8.0560    1.8440   21.6750 C.3   438  VAL438      0.0019
     81  N         12.7620    5.1900   17.5660 N.3   441  VAL441     -0.1231
     82  CA        13.5110    4.0240   17.0740 C.3   441  VAL441      0.1692
     83  C         12.9530    3.5300   15.7030 C.2   441  VAL441      0.2592
     84  O         13.7430    3.1820   14.8120 O.2   441  VAL441     -0.2718
     85  CB        13.6130    2.9040   18.1600 C.3   441  VAL441      0.0266
     86  CG1       14.4380    1.7230   17.6710 C.3   441  VAL441      0.0020
     87  CG2       14.2430    3.4540   19.4330 C.3   441  VAL441      0.0020
     88  N         11.6090    3.5580   15.5310 N.am  442  SER442     -0.1952
     89  CA        10.9250    3.1400   14.2920 C.3   442  SER442      0.1924
     90  C         11.2400    4.0910   13.1240 C.2   442  SER442      0.2314
     91  O         11.4760    3.6360   12.0090 O.2   442  SER442     -0.2863
     92  CB         9.4210    3.0400   14.5180 C.3   442  SER442      0.2116
     93  OG         9.1370    2.0000   15.4390 O.3   442  SER442     -0.2180
     94  N         14.7180    3.3340   12.0090 N.3   445  PHE445     -0.1227
     95  CA        14.7720    2.0610   11.2890 C.3   445  PHE445      0.1736
     96  C         14.3630    2.2540    9.8290 C.2   445  PHE445      0.2595
     97  O         15.0110    1.6940    8.9350 O.2   445  PHE445     -0.2718
     98  CB        13.9120    0.9910   11.9870 C.3   445  PHE445      0.0547
     99  CG        13.6790   -0.2810   11.1970 C.ar  445  PHE445     -0.0202
    100  CD1       14.6780   -1.2370   11.0740 C.ar  445  PHE445     -0.0042
    101  CD2       12.4470   -0.5370   10.6070 C.ar  445  PHE445     -0.0042
    102  CE1       14.4530   -2.4230   10.3620 C.ar  445  PHE445     -0.0003
    103  CE2       12.2240   -1.7260    9.8980 C.ar  445  PHE445     -0.0003
    104  CZ        13.2340   -2.6540    9.7710 C.ar  445  PHE445     -0.0000
    105  N         13.2890    3.0400    9.5920 N.am  446  ILE446     -0.1980
    106  CA        12.7960    3.3530    8.2360 C.3   446  ILE446      0.1595
    107  C         13.8630    4.1570    7.4770 C.2   446  ILE446      0.2287
    108  O         14.1490    3.8210    6.3230 O.2   446  ILE446     -0.2864
    109  CB        11.4030    4.0450    8.2200 C.3   446  ILE446      0.0276
    110  CG1       10.3150    3.1580    8.8970 C.3   446  ILE446      0.0022
    111  CG2       11.0070    4.3950    6.7800 C.3   446  ILE446      0.0022
    112  CD1        8.8840    3.8650    9.0890 C.3   446  ILE446      0.0001
    113  N         16.5620    1.9720    6.1840 N.3   449  LEU449     -0.1245
    114  CA        16.1490    1.2620    4.9690 C.3   449  LEU449      0.1561
    115  C         16.4310    2.0520    3.6870 C.2   449  LEU449      0.2260
    116  O         16.8420    1.4510    2.6910 O.2   449  LEU449     -0.2867
    117  CB        14.6690    0.8300    5.0430 C.3   449  LEU449      0.0270
    118  CG        14.3560   -0.2930    6.0130 C.3   449  LEU449      0.0019
    119  CD1       12.8630   -0.5220    6.1000 C.3   449  LEU449      0.0001
    120  CD2       15.0640   -1.5730    5.6210 C.3   449  LEU449      0.0001
@<TRIPOS>BOND
     1   116   115    2
     2   115   114    1
     3   114   117    1
     4   114   113    1
     5   117   118    1
     6   120   118    1
     7    25    24    2
     8   118   119    1
     9    22    23    1
    10    24    23    1
    11   108   107    2
    12    23    26    1
    13   111   109    1
    14    28    27    1
    15   107   106    1
    16    26    27    1
    17   109   106    1
    18   109   110    1
    19   106   105    1
    20    27    29    1
    21   110   112    1
    22    97    96    2
    23    10     9   ar
    24    10     8   ar
    25     9     7   ar
    26   105    96   am
    27   104   103   ar
    28   104   102   ar
    29     7     6   ar
    30     8     6   ar
    31    96    95    1
    32   103   101   ar
    33     6     5    1
    34   102   100   ar
    35   101    99   ar
    36    19    17   ar
    37    19    21   ar
    38    17    16   ar
    39    37    35   am
    40     5     2    1
    41   100    99   ar
    42    99    98    1
    43    36    35    2
    44    95    98    1
    45    95    94    1
    46    35    34    1
    47    21    20   ar
    48    91    90    2
    49    16    15    1
    50    16    18   ar
    51    15    12    1
    52     2     3    1
    53     2     1    1
    54     3     4    2
    55    20    18   ar
    56    12    11    1
    57    12    13    1
    58    90    89    1
    59    34    31    1
    60    30    31    1
    61    31    32    1
    62    14    13    2
    63    89    92    1
    64    89    88    1
    65    92    93    1
    66    84    83    2
    67    32    38   am
    68    32    33    2
    69    68    67    1
    70    88    83   am
    71    83    82    1
    72    38    39    1
    73    49    48    1
    74    48    47    1
    75    47    46    1
    76    67    65   ar
    77    67    66   ar
    78    41    40    2
    79    82    81    1
    80    82    85    1
    81    39    40    1
    82    65    63   ar
    83    46    43    1
    84    86    85    1
    85    66    64   ar
    86    77    76    2
    87    85    87    1
    88    43    42    1
    89    43    44    1
    90    76    75    1
    91    63    62   ar
    92    64    62   ar
    93    55    54    1
    94    79    78    1
    95    56    54    1
    96    62    61    1
    97    54    51    1
    98    44    45    2
    99    75    78    1
   100    75    74    1
   101    78    80    1
   102    61    58    1
   103    51    52    1
   104    51    50    1
   105    57    52   am
   106    57    58    1
   107    73    70    1
   108    52    53    2
   109    58    59    1
   110    70    71    1
   111    70    69    1
   112    59    60    2
   113    71    72    2
