@<TRIPOS>MOLECULE
tmp/5eueB01.pdb
 111 114 0 0 0
SMALL
GASTEIGER

@<TRIPOS>ATOM
      1  N         -5.4470    0.4060    8.1760 N.3    68  PRO68      -0.2102
      2  CA        -4.5510    1.1960    9.0330 C.3    68  PRO68       0.1504
      3  C         -4.3570    2.6710    8.6770 C.2    68  PRO68       0.2576
      4  O         -3.7830    3.3980    9.4860 O.2    68  PRO68      -0.2718
      5  CB        -3.2330    0.4220    8.9440 C.3    68  PRO68       0.0282
      6  CG        -3.6340   -0.9680    8.6590 C.3    68  PRO68       0.0208
      7  CD        -4.7480   -0.7900    7.6700 C.3    68  PRO68       0.0893
      8  N         -4.8360    3.1180    7.5020 N.am   69  LEU69      -0.1966
      9  CA        -4.7530    4.5160    7.0610 C.3    69  LEU69       0.1728
     10  C         -5.6450    5.4040    7.9590 C.2    69  LEU69       0.2616
     11  O         -5.4310    6.6210    8.0570 O.2    69  LEU69      -0.2715
     12  CB        -5.1810    4.6150    5.5800 C.3    69  LEU69       0.0311
     13  CG        -5.1980    5.9910    4.9040 C.3    69  LEU69       0.0022
     14  CD1       -3.8050    6.6130    4.8550 C.3    69  LEU69       0.0001
     15  CD2       -5.7870    5.8960    3.5170 C.3    69  LEU69       0.0001
     16  N         -6.6280    4.7620    8.6230 N.am   70  HIS70      -0.1960
     17  CA        -7.5990    5.3440    9.5440 C.3    70  HIS70       0.1772
     18  C         -7.3360    4.7650   10.9560 C.2    70  HIS70       0.2462
     19  O         -8.1400    3.9400   11.4320 O.2    70  HIS70      -0.2730
     20  CB        -9.0140    4.9920    9.0800 C.3    70  HIS70       0.0785
     21  CG        -9.2920    5.4030    7.6740 C.ar   70  HIS70       0.0821
     22  ND1       -9.7780    6.6650    7.3720 N.ar   70  HIS70      -0.2267
     23  CD2       -9.1370    4.7050    6.5260 C.ar   70  HIS70       0.1154
     24  CE1       -9.9000    6.6920    6.0560 C.ar   70  HIS70       0.1986
     25  NE2       -9.5270    5.5350    5.5050 N.ar   70  HIS70      -0.2212
     26  N         -6.2120    5.1640   11.6370 N.am   71  PRO71      -0.2716
     27  CA        -5.9240    4.6030   12.9700 C.3    71  PRO71       0.1536
     28  C         -6.9720    4.9640   14.0070 C.2    71  PRO71       0.2598
     29  O         -7.1500    4.2310   14.9690 O.2    71  PRO71      -0.2715
     30  CB        -4.5510    5.1900   13.3150 C.3    71  PRO71       0.0310
     31  CG        -4.4030    6.3700   12.4760 C.3    71  PRO71       0.0237
     32  CD        -5.1530    6.1150   11.2290 C.3    71  PRO71       0.0939
     33  N         -7.6740    6.0920   13.7800 N.am   72  ASP72      -0.1972
     34  CA        -8.7510    6.6490   14.5860 C.3    72  ASP72       0.1709
     35  C         -9.9440    5.7080   14.6030 C.2    72  ASP72       0.2293
     36  O        -10.6900    5.7030   15.5870 O.2    72  ASP72      -0.2864
     37  CB        -9.1590    8.0260   14.0250 C.3    72  ASP72       0.1436
     38  CG        -9.2360    8.0630   12.5080 C.2    72  ASP72       0.3671
     39  OD1       -8.1560    8.0950   11.8530 O.co2  72  ASP72      -0.2456
     40  OD2      -10.3730    8.0140   11.9680 O.co2  72  ASP72      -0.2456
     41  N         -2.0210   19.5690   -0.1600 N.3   280  TRP280     -0.1241
     42  CA        -3.0640   18.8430   -0.8850 C.3   280  TRP280      0.1605
     43  C         -4.4890   19.2170   -0.4180 C.2   280  TRP280      0.2264
     44  O         -4.8250   18.9930    0.7410 O.2   280  TRP280     -0.2867
     45  CB        -2.8080   17.3160   -0.8560 C.3   280  TRP280      0.0550
     46  CG        -3.8020   16.5080   -1.6380 C.ar  280  TRP280      0.0003
     47  CD1       -4.2530   16.7580   -2.9030 C.ar  280  TRP280      0.0946
     48  CD2       -4.4890   15.3290   -1.1910 C.ar  280  TRP280      0.0152
     49  NE1       -5.2110   15.8360   -3.2570 N.ar  280  TRP280     -0.2442
     50  CE2       -5.3480   14.9210   -2.2400 C.ar  280  TRP280      0.0810
     51  CE3       -4.4950   14.5960    0.0120 C.ar  280  TRP280      0.0012
     52  CZ2       -6.1570   13.7770   -2.1460 C.ar  280  TRP280      0.0191
     53  CZ3       -5.3120   13.4760    0.1070 C.ar  280  TRP280      0.0001
     54  CH2       -6.1310   13.0790   -0.9620 C.ar  280  TRP280      0.0015
     55  N         -7.1180   17.7770   -0.2610 N.3   282  GLY282     -0.1210
     56  CA        -7.6910   16.6260    0.4370 C.3   282  GLY282      0.1956
     57  C         -7.2610   16.4790    1.8850 C.2   282  GLY282      0.2612
     58  O         -7.6060   15.5000    2.5560 O.2   282  GLY282     -0.2717
     59  N         -6.5260   17.4660    2.3730 N.am  283  GLY283     -0.1942
     60  CA        -6.0140   17.4990    3.7390 C.3   283  GLY283      0.2014
     61  C         -4.5510   17.1190    3.8380 C.2   283  GLY283      0.2639
     62  O         -3.8530   17.0050    2.8260 O.2   283  GLY283     -0.2714
     63  N         -4.0800   16.9460    5.0760 N.am  284  ILE284     -0.1963
     64  CA        -2.7070   16.5360    5.3590 C.3   284  ILE284      0.1727
     65  C         -2.6480   15.0240    5.1960 C.2   284  ILE284      0.2616
     66  O         -3.4350   14.3020    5.7970 O.2   284  ILE284     -0.2715
     67  CB        -2.2370   17.0270    6.7510 C.3   284  ILE284      0.0290
     68  CG1       -2.1900   18.5660    6.7820 C.3   284  ILE284      0.0022
     69  CG2       -0.8760   16.4230    7.1400 C.3   284  ILE284      0.0023
     70  CD1       -2.2780   19.1560    8.1550 C.3   284  ILE284      0.0001
     71  N         -1.7520   14.5640    4.3330 N.am  285  TYR285     -0.1960
     72  CA        -1.5720   13.1520    4.0480 C.3   285  TYR285      0.1771
     73  C         -0.1810   12.7420    4.4260 C.2   285  TYR285      0.2619
     74  O          0.7930   13.3960    4.0560 O.2   285  TYR285     -0.2715
     75  CB        -1.8050   12.8770    2.5610 C.3   285  TYR285      0.0574
     76  CG        -2.1350   11.4390    2.2270 C.ar  285  TYR285     -0.0198
     77  CD1       -3.3910   10.9100    2.5040 C.ar  285  TYR285     -0.0009
     78  CD2       -1.2300   10.6400    1.5330 C.ar  285  TYR285     -0.0009
     79  CE1       -3.7280    9.6110    2.1310 C.ar  285  TYR285      0.0417
     80  CE2       -1.5640    9.3470    1.1340 C.ar  285  TYR285      0.0417
     81  CZ        -2.8130    8.8330    1.4410 C.ar  285  TYR285      0.1957
     82  OH        -3.1570    7.5530    1.0660 O.3   285  TYR285     -0.2866
     83  N         -0.1050   11.6580    5.1770 N.am  286  ALA286     -0.1963
     84  CA         1.1190   11.0380    5.6460 C.3   286  ALA286      0.1728
     85  C          1.0080    9.5420    5.4040 C.2   286  ALA286      0.2617
     86  O         -0.0850    8.9790    5.5610 O.2   286  ALA286     -0.2715
     87  CB         1.2850   11.3030    7.1280 C.3   286  ALA286      0.0334
     88  N          2.1120    8.8930    5.0020 N.am  287  SER287     -0.1936
     89  CA         2.1150    7.4350    4.8250 C.3   287  SER287      0.2040
     90  C          3.4540    6.8380    5.1730 C.2   287  SER287      0.2485
     91  O          4.4640    7.2230    4.5870 O.2   287  SER287     -0.2729
     92  CB         1.6230    6.9980    3.4500 C.3   287  SER287      0.2129
     93  OG         2.3880    7.6200    2.4450 O.3   287  SER287     -0.2179
     94  N          3.4850    5.9410    6.1810 N.am  288  PRO288     -0.2726
     95  CA         4.7670    5.3400    6.6020 C.3   288  PRO288      0.1402
     96  C          5.4780    4.4980    5.5410 C.2   288  PRO288      0.2269
     97  O          6.7070    4.4550    5.5220 O.2   288  PRO288     -0.2865
     98  CB         4.3770    4.4740    7.8070 C.3   288  PRO288      0.0296
     99  CG         2.9330    4.1970    7.6290 C.3   288  PRO288      0.0237
    100  CD         2.3580    5.4240    6.9850 C.3   288  PRO288      0.0939
    101  N         -4.5260   -0.1970    3.3560 N.3   294  ARG294     -0.1245
    102  CA        -3.8290   -1.4630    3.5070 C.3   294  ARG294      0.1563
    103  C         -4.8260   -2.4480    4.0740 C.2   294  ARG294      0.2260
    104  O         -5.7700   -2.0060    4.7490 O.2   294  ARG294     -0.2867
    105  CB        -2.6330   -1.3140    4.4900 C.3   294  ARG294      0.0307
    106  CG        -1.4740   -0.4320    4.0040 C.3   294  ARG294      0.0489
    107  CD        -0.2090   -0.5180    4.8710 C.3   294  ARG294      0.2205
    108  NE        -0.3590    0.0560    6.2160 N.pl3 294  ARG294     -0.0865
    109  CZ        -0.4470    1.3620    6.4770 C.cat 294  ARG294      0.5346
    110  NH1       -0.4190    2.2520    5.4860 N.pl3 294  ARG294      0.1354
    111  NH2       -0.5780    1.7880    7.7280 N.pl3 294  ARG294      0.1354
@<TRIPOS>BOND
     1    49    47   ar
     2    49    50   ar
     3    47    46   ar
     4    50    52   ar
     5    50    48   ar
     6    52    54   ar
     7    46    48   ar
     8    46    45    1
     9    48    51   ar
    10    54    53   ar
    11    42    45    1
    12    42    43    1
    13    42    41    1
    14    43    44    2
    15    55    56    1
    16    51    53   ar
    17    56    57    1
    18    82    81    1
    19    80    81   ar
    20    80    78   ar
    21    81    79   ar
    22    78    76   ar
    23    57    59   am
    24    57    58    2
    25    79    77   ar
    26    76    77   ar
    27    76    75    1
    28    59    60    1
    29    93    92    1
    30    75    72    1
    31    62    61    2
    32   101   102    1
    33    92    89    1
    34   102   103    1
    35   102   105    1
    36    15    13    1
    37    60    61    1
    38    61    63   am
    39   106   105    1
    40   106   107    1
    41    72    71    1
    42    72    73    1
    43    74    73    2
    44   103   104    2
    45    71    65   am
    46    73    83   am
    47    91    90    2
    48    89    88    1
    49    89    90    1
    50    14    13    1
    51   107   108    1
    52    13    12    1
    53    88    85   am
    54    63    64    1
    55    90    94   am
    56    83    84    1
    57    65    64    1
    58    65    66    2
    59    64    67    1
    60    85    86    2
    61    85    84    1
    62   110   109    1
    63    25    24   ar
    64    25    23   ar
    65    97    96    2
    66    96    95    1
    67    12     9    1
    68    84    87    1
    69    24    22   ar
    70    94    95    1
    71    94   100    1
    72   108   109    2
    73   109   111    1
    74    23    21   ar
    75    95    98    1
    76    67    68    1
    77    67    69    1
    78    68    70    1
    79   100    99    1
    80     9     8    1
    81     9    10    1
    82    22    21   ar
    83     8     3   am
    84    99    98    1
    85     7     1    1
    86     7     6    1
    87    21    20    1
    88    10    11    2
    89    10    16   am
    90     1     2    1
    91    16    17    1
    92     6     5    1
    93     3     2    1
    94     3     4    2
    95     5     2    1
    96    20    17    1
    97    17    18    1
    98    18    19    2
    99    18    26   am
   100    32    26    1
   101    32    31    1
   102    26    27    1
   103    39    38   ar
   104    40    38   ar
   105    31    30    1
   106    38    37    1
   107    27    30    1
   108    27    28    1
   109    33    28   am
   110    33    34    1
   111    28    29    2
   112    37    34    1
   113    34    35    1
   114    35    36    2
