@<TRIPOS>MOLECULE
tmp/5eueB00.pdb
 112 106 0 0 0
SMALL
GASTEIGER

@<TRIPOS>ATOM
      1  N         18.8250  -10.6760   -3.4310 N.3   142  HIS142     -0.1241
      2  CA        17.5240  -10.7030   -4.1020 C.3   142  HIS142      0.1621
      3  C         17.3510   -9.7600   -5.2870 C.2   142  HIS142      0.2264
      4  O         17.8020   -8.6130   -5.2520 O.2   142  HIS142     -0.2867
      5  CB        16.3820  -10.4570   -3.0960 C.3   142  HIS142      0.0745
      6  CG        15.0730  -11.0120   -3.5650 C.ar  142  HIS142      0.0817
      7  ND1       14.1940  -10.2510   -4.3110 N.ar  142  HIS142     -0.2268
      8  CD2       14.5690  -12.2620   -3.4360 C.ar  142  HIS142      0.1154
      9  CE1       13.1610  -11.0370   -4.5600 C.ar  142  HIS142      0.1986
     10  NE2       13.3400  -12.2570   -4.0440 N.ar  142  HIS142     -0.2212
     11  N         18.1940  -16.0510   -0.9070 N.3   190  PHE190     -0.1241
     12  CA        17.2090  -16.9160   -1.5130 C.3   190  PHE190      0.1605
     13  C         17.8790  -18.0310   -2.3800 C.2   190  PHE190      0.2264
     14  O         17.4690  -19.1870   -2.2260 O.2   190  PHE190     -0.2867
     15  CB        16.1930  -16.0840   -2.3510 C.3   190  PHE190      0.0534
     16  CG        15.2700  -16.9280   -3.2110 C.ar  190  PHE190     -0.0203
     17  CD1       14.0580  -17.3960   -2.7100 C.ar  190  PHE190     -0.0042
     18  CD2       15.6490  -17.3210   -4.4960 C.ar  190  PHE190     -0.0042
     19  CE1       13.2260  -18.2070   -3.4940 C.ar  190  PHE190     -0.0003
     20  CE2       14.8190  -18.1450   -5.2680 C.ar  190  PHE190     -0.0003
     21  CZ        13.6130  -18.5740   -4.7640 C.ar  190  PHE190     -0.0000
     22  N         12.3660  -24.9760   -7.0480 N.3   372  ASN372     -0.1225
     23  CA        12.7330  -23.7500   -7.7430 C.3   372  ASN372      0.1785
     24  C         13.8940  -23.9360   -8.7100 C.2   372  ASN372      0.2597
     25  O         14.9350  -24.4850   -8.3460 O.2   372  ASN372     -0.2718
     26  CB        13.0550  -22.6540   -6.7550 C.3   372  ASN372      0.1169
     27  CG        11.8760  -21.8020   -6.4390 C.2   372  ASN372      0.2627
     28  OD1       11.1610  -22.0580   -5.4690 O.2   372  ASN372     -0.2716
     29  ND2       11.6580  -20.7630   -7.2460 N.am  372  ASN372     -0.0877
     30  N         13.7070  -23.4610   -9.9320 N.am  373  GLY373     -0.1957
     31  CA        14.7560  -23.4880  -10.9340 C.3   373  GLY373      0.1869
     32  C         15.7080  -22.3410  -10.6790 C.2   373  GLY373      0.2309
     33  O         15.2690  -21.2260  -10.3810 O.2   373  GLY373     -0.2863
     34  N          9.7190  -29.5210  -18.7740 N.3   418  MET418     -0.1245
     35  CA        10.2470  -28.1740  -18.5990 C.3   418  MET418      0.1570
     36  C         11.7860  -28.0890  -18.6500 C.2   418  MET418      0.2261
     37  O         12.3000  -26.9910  -18.8510 O.2   418  MET418     -0.2867
     38  CB         9.6930  -27.5290  -17.3240 C.3   418  MET418      0.0387
     39  CG         9.3350  -26.0680  -17.5070 C.3   418  MET418      0.0595
     40  SD         8.0070  -25.7610  -18.7030 S.3   418  MET418     -0.1393
     41  CE         7.8850  -24.0370  -18.5730 C.3   418  MET418      0.0692
     42  N         13.3300  -25.9720  -21.4140 N.3   421  VAL421     -0.1231
     43  CA        12.8470  -24.5940  -21.2490 C.3   421  VAL421      0.1692
     44  C         13.8440  -23.8250  -20.3470 C.2   421  VAL421      0.2592
     45  O         14.2810  -22.7320  -20.7200 O.2   421  VAL421     -0.2718
     46  CB        11.3840  -24.5480  -20.7210 C.3   421  VAL421      0.0266
     47  CG1       10.9260  -23.1210  -20.4450 C.3   421  VAL421      0.0020
     48  CG2       10.4290  -25.2320  -21.6910 C.3   421  VAL421      0.0020
     49  N         14.2290  -24.4360  -19.1910 N.am  422  TYR422     -0.1976
     50  CA        15.2170  -23.9310  -18.2240 C.3   422  TYR422      0.1639
     51  C         16.5960  -23.8950  -18.8760 C.2   422  TYR422      0.2290
     52  O         17.2990  -22.8880  -18.7760 O.2   422  TYR422     -0.2864
     53  CB        15.2580  -24.8060  -16.9620 C.3   422  TYR422      0.0560
     54  CG        14.0370  -24.6740  -16.0790 C.ar  422  TYR422     -0.0198
     55  CD1       13.8870  -23.5890  -15.2190 C.ar  422  TYR422     -0.0009
     56  CD2       13.0530  -25.6550  -16.0670 C.ar  422  TYR422     -0.0009
     57  CE1       12.7610  -23.4610  -14.4070 C.ar  422  TYR422      0.0417
     58  CE2       11.9320  -25.5450  -15.2470 C.ar  422  TYR422      0.0417
     59  CZ        11.7860  -24.4450  -14.4210 C.ar  422  TYR422      0.1957
     60  OH        10.6670  -24.3290  -13.6280 O.3   422  TYR422     -0.2866
     61  N         16.7350  -20.9090  -21.2530 N.3   425  ALA425     -0.1245
     62  CA        16.7640  -19.7070  -20.4010 C.3   425  ALA425      0.1562
     63  C         18.1210  -19.4030  -19.7190 C.2   425  ALA425      0.2260
     64  O         18.4590  -18.2270  -19.5200 O.2   425  ALA425     -0.2867
     65  CB        15.6620  -19.7910  -19.3600 C.3   425  ALA425      0.0290
     66  N         15.3350  -13.2520  -22.8780 N.3   433  VAL433     -0.1245
     67  CA        14.7990  -13.5800  -21.5420 C.3   433  VAL433      0.1561
     68  C         13.7200  -12.5440  -21.1720 C.2   433  VAL433      0.2260
     69  O         12.6450  -12.9210  -20.6990 O.2   433  VAL433     -0.2867
     70  CB        15.8850  -13.7310  -20.4360 C.3   433  VAL433      0.0252
     71  CG1       15.2710  -14.2350  -19.1350 C.3   433  VAL433      0.0019
     72  CG2       17.0160  -14.6620  -20.8820 C.3   433  VAL433      0.0019
     73  N         10.4870  -13.3380  -23.4890 N.3   436  VAL436     -0.1231
     74  CA         9.7680  -14.5660  -23.0790 C.3   436  VAL436      0.1692
     75  C          9.0380  -14.3560  -21.7260 C.2   436  VAL436      0.2592
     76  O          7.9230  -14.8610  -21.5170 O.2   436  VAL436     -0.2718
     77  CB        10.7310  -15.7990  -23.0850 C.3   436  VAL436      0.0266
     78  CG1       10.0830  -17.0560  -22.4900 C.3   436  VAL436      0.0020
     79  CG2       11.2470  -16.0770  -24.4970 C.3   436  VAL436      0.0020
     80  N          9.6710  -13.5860  -20.8240 N.am  437  SER437     -0.1952
     81  CA         9.0930  -13.2800  -19.5180 C.3   437  SER437      0.1924
     82  C          7.9040  -12.3210  -19.6440 C.2   437  SER437      0.2314
     83  O          6.9130  -12.5010  -18.9430 O.2   437  SER437     -0.2863
     84  CB        10.1460  -12.7050  -18.5820 C.3   437  SER437      0.2116
     85  OG        11.2700  -13.5590  -18.4850 O.3   437  SER437     -0.2180
     86  N          4.9560  -14.1930  -20.8170 N.3   440  PHE440     -0.1227
     87  CA         4.4960  -15.0320  -19.7140 C.3   440  PHE440      0.1736
     88  C          3.5600  -14.2260  -18.7980 C.2   440  PHE440      0.2595
     89  O          2.5340  -14.7540  -18.3610 O.2   440  PHE440     -0.2718
     90  CB         5.6920  -15.6240  -18.9300 C.3   440  PHE440      0.0547
     91  CG         5.2460  -16.4620  -17.7540 C.ar  440  PHE440     -0.0202
     92  CD1        4.4250  -17.5800  -17.9410 C.ar  440  PHE440     -0.0042
     93  CD2        5.5750  -16.0930  -16.4520 C.ar  440  PHE440     -0.0042
     94  CE1        3.9560  -18.3170  -16.8480 C.ar  440  PHE440     -0.0003
     95  CE2        5.1260  -16.8470  -15.3580 C.ar  440  PHE440     -0.0003
     96  CZ         4.3050  -17.9410  -15.5630 C.ar  440  PHE440     -0.0000
     97  N          3.9080  -12.9370  -18.5290 N.am  441  ILE441     -0.1980
     98  CA         3.0810  -12.0320  -17.7310 C.3   441  ILE441      0.1595
     99  C          1.7880  -11.7670  -18.4960 C.2   441  ILE441      0.2287
    100  O          0.7060  -11.8780  -17.9090 O.2   441  ILE441     -0.2864
    101  CB         3.8080  -10.7510  -17.2350 C.3   441  ILE441      0.0276
    102  CG1        5.1880  -11.0860  -16.6140 C.3   441  ILE441      0.0022
    103  CG2        2.9440  -10.0290  -16.1960 C.3   441  ILE441      0.0022
    104  CD1        6.1150   -9.8670  -16.3870 C.3   441  ILE441      0.0001
    105  N         -0.3330  -14.9830  -18.3880 N.3   444  LEU444     -0.1245
    106  CA        -0.9770  -15.0020  -17.0780 C.3   444  LEU444      0.1561
    107  C         -2.2670  -14.1700  -17.0310 C.2   444  LEU444      0.2260
    108  O         -3.2020  -14.5570  -16.3250 O.2   444  LEU444     -0.2867
    109  CB         0.0040  -14.4880  -16.0200 C.3   444  LEU444      0.0270
    110  CG         0.9440  -15.5000  -15.4030 C.3   444  LEU444      0.0019
    111  CD1        2.1420  -14.8070  -14.7880 C.3   444  LEU444      0.0001
    112  CD2        0.2350  -16.3250  -14.3600 C.3   444  LEU444      0.0001
@<TRIPOS>BOND
     1    79    77    1
     2    73    74    1
     3    77    74    1
     4    77    78    1
     5    74    75    1
     6    66    67    1
     7    75    76    2
     8    75    80   am
     9    48    46    1
    10    67    68    1
    11    67    70    1
    12    42    43    1
    13    61    62    1
    14    43    46    1
    15    43    44    1
    16    68    69    2
    17    72    70    1
    18    80    81    1
    19    86    87    1
    20    46    47    1
    21    45    44    2
    22    70    71    1
    23    62    63    1
    24    62    65    1
    25    44    49   am
    26    63    64    2
    27    87    90    1
    28    87    88    1
    29    82    81    1
    30    82    83    2
    31    81    84    1
    32    49    50    1
    33    90    91    1
    34    51    52    2
    35    51    50    1
    36    37    36    2
    37    88    97   am
    38    88    89    2
    39    34    35    1
    40    40    41    1
    41    40    39    1
    42    36    35    1
    43    35    38    1
    44    84    85    1
    45    97    98    1
    46    99   100    2
    47    99    98    1
    48   105   106    1
    49    50    53    1
    50    92    91   ar
    51    92    94   ar
    52    91    93   ar
    53    98   101    1
    54    39    38    1
    55   101   102    1
    56   101   103    1
    57   106   107    1
    58   106   109    1
    59   107   108    2
    60    53    54    1
    61    94    96   ar
    62   102   104    1
    63    93    95   ar
    64    54    56   ar
    65    54    55   ar
    66    56    58   ar
    67   109   110    1
    68    96    95   ar
    69   110   111    1
    70   110   112    1
    71    58    59   ar
    72    55    57   ar
    73    59    57   ar
    74    59    60    1
    75    31    32    1
    76    31    30    1
    77    32    33    2
    78    30    24   am
    79    24    25    2
    80    24    23    1
    81    23    22    1
    82    23    26    1
    83    29    27   am
    84    26    27    1
    85    27    28    2
    86     3     4    2
    87     3     2    1
    88    20    21   ar
    89    20    18   ar
    90    21    19   ar
    91     9     7   ar
    92     9    10   ar
    93    18    16   ar
    94     7     6   ar
    95     2     1    1
    96     2     5    1
    97    10     8   ar
    98     6     8   ar
    99     6     5    1
   100    19    17   ar
   101    16    17   ar
   102    16    15    1
   103    13    14    2
   104    13    12    1
   105    15    12    1
   106    12    11    1
