@<TRIPOS>MOLECULE
tmp/5euhA00.pdb
 104 98 0 0 0
SMALL
GASTEIGER

@<TRIPOS>ATOM
      1  N         72.7010  -20.2840   17.7760 N.3    69  ASN69      -0.1225
      2  CA        74.1020  -20.1400   18.1280 C.3    69  ASN69       0.1785
      3  C         74.9610  -21.2720   17.6030 C.2    69  ASN69       0.2597
      4  O         76.1770  -21.2480   17.8020 O.2    69  ASN69      -0.2718
      5  CB        74.2550  -20.0400   19.6430 C.3    69  ASN69       0.1169
      6  CG        73.6750  -18.7620   20.1950 C.2    69  ASN69       0.2627
      7  OD1       74.3640  -17.7550   20.3000 O.2    69  ASN69      -0.2716
      8  ND2       72.4020  -18.7940   20.5510 N.am   69  ASN69      -0.0877
      9  N         74.3670  -22.2530   16.9330 N.am   70  VAL70      -0.1966
     10  CA        75.0790  -23.4010   16.3840 C.3    70  VAL70       0.1727
     11  C         74.6660  -23.5180   14.9240 C.2    70  VAL70       0.2616
     12  O         73.5390  -23.9340   14.6280 O.2    70  VAL70      -0.2715
     13  CB        74.7620  -24.6880   17.1580 C.3    70  VAL70       0.0290
     14  CG1       75.2810  -25.9000   16.4260 C.3    70  VAL70       0.0023
     15  CG2       75.3610  -24.6120   18.5460 C.3    70  VAL70       0.0023
     16  N         75.5730  -23.1630   14.0070 N.am   71  ARG71      -0.1963
     17  CA        75.1740  -22.8900   12.6350 C.3    71  ARG71       0.1729
     18  C         76.0660  -23.4920   11.5590 C.2    71  ARG71       0.2616
     19  O         75.7410  -23.3470   10.3790 O.2    71  ARG71      -0.2715
     20  CB        75.1030  -21.3730   12.4170 C.3    71  ARG71       0.0348
     21  CG        74.0900  -20.6650   13.2950 C.3    71  ARG71       0.0492
     22  CD        74.5220  -19.2480   13.5970 C.3    71  ARG71       0.2205
     23  NE        75.7550  -19.2090   14.3740 N.pl3  71  ARG71      -0.0865
     24  CZ        76.1400  -18.1650   15.0940 C.cat  71  ARG71       0.5346
     25  NH1       75.3800  -17.0850   15.1410 N.pl3  71  ARG71       0.1354
     26  NH2       77.2750  -18.2040   15.7700 N.pl3  71  ARG71       0.1354
     27  N         77.1530  -24.1550   11.9040 N.am   72  ARG72      -0.1977
     28  CA        78.0910  -24.5990   10.8840 C.3    72  ARG72       0.1597
     29  C         77.7360  -25.9950   10.3820 C.2    72  ARG72       0.2287
     30  O         76.9930  -26.7320   11.0370 O.2    72  ARG72      -0.2864
     31  CB        79.5100  -24.5630   11.4450 C.3    72  ARG72       0.0334
     32  CG        79.9720  -23.1560   11.7780 C.3    72  ARG72       0.0492
     33  CD        81.3940  -23.1150   12.2980 C.3    72  ARG72       0.2205
     34  NE        81.7730  -21.7590   12.6830 N.pl3  72  ARG72      -0.0865
     35  CZ        82.9440  -21.4280   13.2150 C.cat  72  ARG72       0.5346
     36  NH1       83.8650  -22.3550   13.4320 N.pl3  72  ARG72       0.1354
     37  NH2       83.1910  -20.1650   13.5320 N.pl3  72  ARG72       0.1354
     38  N         78.2030  -29.1880   12.6010 N.3    75  ASP75      -0.1239
     39  CA        77.5490  -29.1340   13.8960 C.3    75  ASP75       0.1674
     40  C         76.2010  -29.8370   13.8330 C.2    75  ASP75       0.2266
     41  O         75.5250  -29.8330   12.8020 O.2    75  ASP75      -0.2867
     42  CB        77.3490  -27.6900   14.3470 C.3    75  ASP75       0.1410
     43  CG        78.6330  -26.8930   14.3400 C.2    75  ASP75       0.3668
     44  OD1       79.7130  -27.4960   14.1850 O.co2  75  ASP75      -0.2456
     45  OD2       78.5640  -25.6590   14.4960 O.co2  75  ASP75      -0.2456
     46  N         80.0230  -30.1540   18.2130 N.3    89  LEU89      -0.1231
     47  CA        80.7770  -29.0180   17.6950 C.3    89  LEU89       0.1693
     48  C         82.0600  -29.5750   17.1000 C.2    89  LEU89       0.2591
     49  O         83.1180  -29.5380   17.7270 O.2    89  LEU89      -0.2718
     50  CB        81.0590  -28.0020   18.7840 C.3    89  LEU89       0.0284
     51  CG        79.8490  -27.3970   19.4930 C.3    89  LEU89       0.0019
     52  CD1       80.3070  -26.5140   20.6360 C.3    89  LEU89       0.0001
     53  CD2       78.9970  -26.6110   18.5150 C.3    89  LEU89       0.0001
     54  N         81.9580  -30.1050   15.8870 N.am   90  ALA90      -0.1980
     55  CA        83.1320  -30.6430   15.2190 C.3    90  ALA90       0.1597
     56  C         84.0810  -29.5190   14.8360 C.2    90  ALA90       0.2287
     57  O         83.6560  -28.4070   14.5100 O.2    90  ALA90      -0.2864
     58  CB        82.7280  -31.4340   13.9810 C.3    90  ALA90       0.0319
     59  N         85.9260  -27.7110   16.6020 N.3    92  THR92      -0.1203
     60  CA        85.7980  -26.5920   17.5250 C.3    92  THR92       0.1994
     61  C         86.5690  -26.9210   18.7930 C.2    92  THR92       0.2617
     62  O         86.3600  -27.9820   19.3870 O.2    92  THR92      -0.2717
     63  CB        84.3300  -26.3120   17.8580 C.3    92  THR92       0.1784
     64  OG1       83.6100  -26.0230   16.6540 O.3    92  THR92      -0.2211
     65  CG2       84.2140  -25.1330   18.8060 C.3    92  THR92       0.0376
     66  N         87.4610  -26.0220   19.2010 N.am   93  ASP93      -0.1973
     67  CA        88.2640  -26.2520   20.3920 C.3    93  ASP93       0.1709
     68  C         87.4700  -25.8760   21.6420 C.2    93  ASP93       0.2293
     69  O         86.3370  -25.3920   21.5700 O.2    93  ASP93      -0.2864
     70  CB        89.5790  -25.4790   20.3090 C.3    93  ASP93       0.1436
     71  CG        89.3850  -23.9780   20.3880 C.2    93  ASP93       0.3671
     72  OD1       88.2620  -23.4990   20.1310 O.co2  93  ASP93      -0.2456
     73  OD2       90.3660  -23.2720   20.7020 O.co2  93  ASP93      -0.2456
     74  N         86.4310  -21.9910   22.0240 N.3    96  GLY96      -0.1225
     75  CA        85.2870  -21.5950   21.2240 C.3    96  GLY96       0.1811
     76  C         83.9950  -22.2430   21.6710 C.2    96  GLY96       0.2280
     77  O         82.9230  -21.6430   21.5510 O.2    96  GLY96      -0.2866
     78  N         82.4390  -20.1360   24.4400 N.3    99  GLN99      -0.1231
     79  CA        81.7840  -18.9260   23.9560 C.3    99  GLN99       0.1698
     80  C         80.3910  -19.2310   23.4240 C.2    99  GLN99       0.2592
     81  O         79.4550  -18.4520   23.6340 O.2    99  GLN99      -0.2718
     82  CB        82.6340  -18.2670   22.8730 C.3    99  GLN99       0.0381
     83  CG        84.0900  -18.0860   23.2450 C.3    99  GLN99       0.0905
     84  CD        84.8410  -17.2570   22.2290 C.2    99  GLN99       0.2608
     85  OE1       84.6500  -16.0460   22.1400 O.2    99  GLN99      -0.2717
     86  NE2       85.6960  -17.9070   21.4480 N.am   99  GLN99      -0.0878
     87  N         80.2390  -20.3540   22.7200 N.am  100  ILE100     -0.1980
     88  CA        78.9170  -20.7720   22.2630 C.3   100  ILE100      0.1595
     89  C         78.0080  -21.0270   23.4530 C.2   100  ILE100      0.2287
     90  O         76.8300  -20.6510   23.4500 O.2   100  ILE100     -0.2864
     91  CB        79.0290  -22.0270   21.3770 C.3   100  ILE100      0.0276
     92  CG1       79.9570  -21.7810   20.1890 C.3   100  ILE100      0.0022
     93  CG2       77.6510  -22.4710   20.9090 C.3   100  ILE100      0.0022
     94  CD1       80.3410  -23.0460   19.4730 C.3   100  ILE100      0.0001
     95  N         76.8650  -17.7730   25.1450 N.3   103  HIS103     -0.1241
     96  CA        75.8230  -17.1460   24.3380 C.3   103  HIS103      0.1621
     97  C         74.4810  -17.8350   24.5490 C.2   103  HIS103      0.2264
     98  O         73.4440  -17.1750   24.6850 O.2   103  HIS103     -0.2867
     99  CB        76.2080  -17.1800   22.8590 C.3   103  HIS103      0.0745
    100  CG        77.2730  -16.1970   22.4830 C.ar  103  HIS103      0.0817
    101  ND1       77.5150  -15.0490   23.2010 N.ar  103  HIS103     -0.2268
    102  CD2       78.1530  -16.1930   21.4530 C.ar  103  HIS103      0.1154
    103  CE1       78.5050  -14.3790   22.6330 C.ar  103  HIS103      0.1986
    104  NE2       78.9080  -15.0520   21.5730 N.ar  103  HIS103     -0.2212
@<TRIPOS>BOND
     1    19    18    2
     2    29    28    1
     3    29    30    2
     4    28    31    1
     5    28    27    1
     6    31    32    1
     7    18    27   am
     8    18    17    1
     9    32    33    1
    10    33    34    1
    11    20    17    1
    12    20    21    1
    13    38    39    1
    14    17    16    1
    15    34    35    2
    16    41    40    2
    17    35    36    1
    18    35    37    1
    19    21    22    1
    20    22    23    1
    21    40    39    1
    22    39    42    1
    23    58    55    1
    24    16    11   am
    25    44    43   ar
    26    43    42    1
    27    43    45   ar
    28    23    24    2
    29    57    56    2
    30    12    11    2
    31    56    55    1
    32    11    10    1
    33    24    25    1
    34    24    26    1
    35    55    54    1
    36    54    48   am
    37    10     9    1
    38    10    13    1
    39    14    13    1
    40    59    60    1
    41    64    63    1
    42     9     3   am
    43    48    47    1
    44    48    49    2
    45    13    15    1
    46    60    63    1
    47    60    61    1
    48     3     4    2
    49     3     2    1
    50    47    46    1
    51    47    50    1
    52     1     2    1
    53    63    65    1
    54     2     5    1
    55    53    51    1
    56    50    51    1
    57    61    66   am
    58    61    62    2
    59    66    67    1
    60    94    92    1
    61    51    52    1
    62     5     6    1
    63    72    71   ar
    64    92    91    1
    65     6     7    2
    66     6     8   am
    67    70    71    1
    68    70    67    1
    69    71    73   ar
    70    67    68    1
    71    93    91    1
    72    75    76    1
    73    75    74    1
    74    91    88    1
    75    86    84   am
    76   102   104   ar
    77   102   100   ar
    78    77    76    2
    79    69    68    2
    80   104   103   ar
    81    85    84    2
    82    84    83    1
    83    88    87    1
    84    88    89    1
    85   100    99    1
    86   100   101   ar
    87   103   101   ar
    88    87    80   am
    89    99    96    1
    90    82    83    1
    91    82    79    1
    92    80    81    2
    93    80    79    1
    94    90    89    2
    95    79    78    1
    96    96    97    1
    97    96    95    1
    98    97    98    2
