@<TRIPOS>MOLECULE
tmp/5euqB01.pdb
 195 183 0 0 0
SMALL
GASTEIGER

@<TRIPOS>ATOM
      1  N       -224.8870  213.4510  422.8330 N.3   174  LEU174     -0.1231
      2  CA      -224.9400  214.9100  422.7590 C.3   174  LEU174      0.1693
      3  C       -226.1470  215.5360  423.4500 C.2   174  LEU174      0.2592
      4  O       -226.1350  216.7260  423.7650 O.2   174  LEU174     -0.2718
      5  CB      -224.9110  215.3560  421.3000 C.3   174  LEU174      0.0284
      6  CG      -223.7140  214.8770  420.4790 C.3   174  LEU174      0.0019
      7  CD1     -223.7250  215.5270  419.1050 C.3   174  LEU174      0.0001
      8  CD2     -222.4040  215.1560  421.2100 C.3   174  LEU174      0.0001
      9  N       -227.1970  214.7560  423.6710 N.am  175  ASN175     -0.1974
     10  CA      -228.3030  215.2420  424.4860 C.3   175  ASN175      0.1688
     11  C       -229.1000  214.1030  425.1040 C.2   175  ASN175      0.2292
     12  O       -228.7710  212.9280  424.9300 O.2   175  ASN175     -0.2864
     13  CB      -229.2200  216.1690  423.6720 C.3   175  ASN175      0.1181
     14  CG      -229.8570  215.4840  422.4740 C.2   175  ASN175      0.2629
     15  OD1     -230.3810  214.3770  422.5770 O.2   175  ASN175     -0.2716
     16  ND2     -229.8240  216.1560  421.3260 N.am  175  ASN175     -0.0877
     17  N       -228.3920  211.8160  419.4070 N.3   181  PRO181     -0.2116
     18  CA      -227.2520  211.5180  418.5370 C.3   181  PRO181      0.1372
     19  C       -225.9320  211.5130  419.2960 C.2   181  PRO181      0.2244
     20  O       -225.6600  212.4190  420.0940 O.2   181  PRO181     -0.2868
     21  CB      -227.2870  212.6620  417.5240 C.3   181  PRO181      0.0268
     22  CG      -227.9380  213.8160  418.2920 C.3   181  PRO181      0.0207
     23  CD      -228.6050  213.2670  419.5250 C.3   181  PRO181      0.0892
     24  N       -221.6590  211.3110  419.3900 N.3   183  LEU183     -0.1245
     25  CA      -220.4700  211.7080  418.6540 C.3   183  LEU183      0.1561
     26  C       -219.3760  210.6870  418.8930 C.2   183  LEU183      0.2260
     27  O       -219.0420  210.4030  420.0430 O.2   183  LEU183     -0.2867
     28  CB      -220.0080  213.1000  419.0910 C.3   183  LEU183      0.0270
     29  CG      -218.6940  213.6450  418.5270 C.3   183  LEU183      0.0019
     30  CD1     -218.6620  215.1490  418.7050 C.3   183  LEU183      0.0001
     31  CD2     -217.5000  213.0130  419.2190 C.3   183  LEU183      0.0001
     32  N       -220.9510  212.5680  413.7590 N.3   239  ILE239     -0.1245
     33  CA      -222.1300  212.5490  414.6160 C.3   239  ILE239      0.1561
     34  C       -223.1470  211.5640  414.0720 C.2   239  ILE239      0.2260
     35  O       -223.5180  211.6360  412.9020 O.2   239  ILE239     -0.2867
     36  CB      -222.7830  213.9300  414.7190 C.3   239  ILE239      0.0252
     37  CG1     -221.9240  214.8620  415.5720 C.3   239  ILE239      0.0019
     38  CG2     -224.1770  213.8050  415.2960 C.3   239  ILE239      0.0019
     39  CD1     -222.4990  216.2500  415.7170 C.3   239  ILE239      0.0001
     40  N       -226.8130  210.3990  414.3020 N.3   241  LYS241     -0.1245
     41  CA      -228.2000  210.4710  414.7260 C.3   241  LYS241      0.1561
     42  C       -229.0090  209.4140  413.9890 C.2   241  LYS241      0.2260
     43  O       -228.9910  209.3400  412.7630 O.2   241  LYS241     -0.2867
     44  CB      -228.7720  211.8590  414.4850 C.3   241  LYS241      0.0271
     45  CG      -228.6520  212.3470  413.0650 C.3   241  LYS241      0.0035
     46  CD      -229.2500  213.7250  412.9430 C.3   241  LYS241      0.0206
     47  CE      -228.5750  214.6650  413.9170 C.3   241  LYS241      0.1093
     48  NZ      -229.2550  215.9880  414.0230 N.3   241  LYS241     -0.1314
     49  N       -233.1120  211.2740  412.9550 N.3   244  ASP244     -0.1239
     50  CA      -233.3790  212.6030  412.4170 C.3   244  ASP244      0.1674
     51  C       -233.2390  212.6460  410.8990 C.2   244  ASP244      0.2266
     52  O       -232.3270  212.0480  410.3280 O.2   244  ASP244     -0.2867
     53  CB      -232.4550  213.6370  413.0640 C.3   244  ASP244      0.1410
     54  CG      -232.8570  213.9600  414.4890 C.2   244  ASP244      0.3668
     55  OD1     -234.0280  213.7060  414.8450 O.co2 244  ASP244     -0.2456
     56  OD2     -232.0080  214.4700  415.2520 O.co2 244  ASP244     -0.2456
     57  N       -232.1540  214.1730  407.6250 N.3   246  LEU246     -0.1245
     58  CA      -231.0500  215.0620  407.2870 C.3   246  LEU246      0.1561
     59  C       -231.1610  215.6500  405.8870 C.2   246  LEU246      0.2260
     60  O       -230.2550  216.3440  405.4290 O.2   246  LEU246     -0.2867
     61  CB      -229.7260  214.3160  407.4180 C.3   246  LEU246      0.0270
     62  CG      -229.5380  213.6000  408.7530 C.3   246  LEU246      0.0019
     63  CD1     -228.0990  213.1400  408.9150 C.3   246  LEU246      0.0001
     64  CD2     -229.9540  214.5100  409.8970 C.3   246  LEU246      0.0001
     65  N       -231.2040  219.1760  405.8040 N.3   249  GLU249     -0.1245
     66  CA      -229.8710  219.5490  406.2630 C.3   249  GLU249      0.1567
     67  C       -228.8930  219.5600  405.0890 C.2   249  GLU249      0.2260
     68  O       -228.0860  220.4810  404.9360 O.2   249  GLU249     -0.2867
     69  CB      -229.3960  218.5870  407.3560 C.3   249  GLU249      0.0388
     70  CG      -228.3400  219.1700  408.2780 C.3   249  GLU249      0.1160
     71  CD      -228.9120  220.1780  409.2600 C.2   249  GLU249      0.3649
     72  OE1     -230.1050  220.0580  409.6160 O.co2 249  GLU249     -0.2457
     73  OE2     -228.1660  221.0880  409.6790 O.co2 249  GLU249     -0.2457
     74  N       -221.2130  222.1790  407.2050 N.3   275  TYR275     -0.1241
     75  CA      -220.6860  220.9030  407.6800 C.3   275  TYR275      0.1605
     76  C       -221.1630  219.7420  406.8150 C.2   275  TYR275      0.2264
     77  O       -222.3230  219.7000  406.3930 O.2   275  TYR275     -0.2867
     78  CB      -221.0720  220.6660  409.1470 C.3   275  TYR275      0.0534
     79  CG      -222.4540  221.1580  409.5110 C.ar  275  TYR275     -0.0201
     80  CD1     -223.5680  220.3450  409.3500 C.ar  275  TYR275     -0.0009
     81  CD2     -222.6430  222.4370  410.0150 C.ar  275  TYR275     -0.0009
     82  CE1     -224.8310  220.7940  409.6780 C.ar  275  TYR275      0.0417
     83  CE2     -223.8990  222.8940  410.3450 C.ar  275  TYR275      0.0417
     84  CZ      -224.9900  222.0690  410.1760 C.ar  275  TYR275      0.1957
     85  OH      -226.2460  222.5210  410.5070 O.3   275  TYR275     -0.2866
     86  N       -223.3750  213.4170  410.6580 N.3   287  ILE287     -0.1245
     87  CA      -222.8070  214.7350  410.4240 C.3   287  ILE287      0.1561
     88  C       -221.3090  214.7150  410.6960 C.2   287  ILE287      0.2260
     89  O       -220.8600  214.0690  411.6410 O.2   287  ILE287     -0.2867
     90  CB      -223.4730  215.8020  411.3150 C.3   287  ILE287      0.0252
     91  CG1     -224.9130  216.0450  410.8670 C.3   287  ILE287      0.0019
     92  CG2     -222.6750  217.0910  411.2880 C.3   287  ILE287      0.0019
     93  CD1     -225.5720  217.2060  411.5600 C.3   287  ILE287      0.0001
     94  N       -218.9160  216.8170  412.2870 N.3   289  PRO289     -0.2102
     95  CA      -218.9770  217.9390  413.2280 C.3   289  PRO289      0.1504
     96  C       -217.7940  218.8920  413.1190 C.2   289  PRO289      0.2576
     97  O       -216.6850  218.4750  412.7930 O.2   289  PRO289     -0.2718
     98  CB      -218.9750  217.2420  414.5880 C.3   289  PRO289      0.0282
     99  CG      -218.2240  215.9850  414.3440 C.3   289  PRO289      0.0208
    100  CD      -218.6300  215.5450  412.9710 C.3   289  PRO289      0.0893
    101  N       -218.0460  220.1640  413.3990 N.am  290  VAL290     -0.1966
    102  CA      -217.0070  221.1800  413.4510 C.3   290  VAL290      0.1727
    103  C       -216.2930  221.1450  414.8000 C.2   290  VAL290      0.2616
    104  O       -216.8260  221.6150  415.8050 O.2   290  VAL290     -0.2715
    105  CB      -217.5860  222.5870  413.2240 C.3   290  VAL290      0.0290
    106  CG1     -216.4840  223.6330  413.3090 C.3   290  VAL290      0.0023
    107  CG2     -218.2960  222.6640  411.8830 C.3   290  VAL290      0.0023
    108  N       -215.0860  220.5900  414.8190 N.am  291  VAL291     -0.1963
    109  CA      -214.3040  220.5010  416.0480 C.3   291  VAL291      0.1727
    110  C       -213.8570  221.8850  416.5190 C.2   291  VAL291      0.2616
    111  O       -213.7850  222.8280  415.7260 O.2   291  VAL291     -0.2715
    112  CB      -213.0700  219.6030  415.8640 C.3   291  VAL291      0.0290
    113  CG1     -213.4980  218.1900  415.4840 C.3   291  VAL291      0.0023
    114  CG2     -212.1360  220.1870  414.8170 C.3   291  VAL291      0.0023
    115  N       -213.5590  221.9970  417.8110 N.am  292  ASN292     -0.1958
    116  CA      -213.1590  223.2650  418.4220 C.3   292  ASN292      0.1819
    117  C       -214.2280  224.3480  418.2940 C.2   292  ASN292      0.2621
    118  O       -213.9300  225.5030  417.9920 O.2   292  ASN292     -0.2715
    119  CB      -211.8420  223.7600  417.8190 C.3   292  ASN292      0.1195
    120  CG      -210.6660  222.8640  418.1740 C.2   292  ASN292      0.2630
    121  OD1     -210.8460  221.6980  418.5260 O.2   292  ASN292     -0.2716
    122  ND2     -209.4560  223.4080  418.0840 N.am  292  ASN292     -0.0877
    123  N       -215.4730  223.9600  418.5460 N.am  293  ALA293     -0.1963
    124  CA      -216.6000  224.8840  418.5230 C.3   293  ALA293      0.1728
    125  C       -217.7540  224.3130  419.3420 C.2   293  ALA293      0.2616
    126  O       -218.0800  223.1360  419.2170 O.2   293  ALA293     -0.2715
    127  CB      -217.0370  225.1510  417.0960 C.3   293  ALA293      0.0334
    128  N       -218.3620  225.1390  420.1890 N.am  294  VAL294     -0.1963
    129  CA      -219.5040  224.6950  420.9880 C.3   294  VAL294      0.1727
    130  C       -220.5730  225.7760  421.0700 C.2   294  VAL294      0.2616
    131  O       -220.2880  226.9550  420.8520 O.2   294  VAL294     -0.2715
    132  CB      -219.0820  224.2910  422.4130 C.3   294  VAL294      0.0290
    133  CG1     -218.1460  223.0950  422.3620 C.3   294  VAL294      0.0023
    134  CG2     -218.4330  225.4660  423.1310 C.3   294  VAL294      0.0023
    135  N       -221.8010  225.3660  421.3810 N.am  295  SER295     -0.1950
    136  CA      -222.9320  226.2860  421.3990 C.3   295  SER295      0.1924
    137  C       -222.6740  227.4380  422.3550 C.2   295  SER295      0.2314
    138  O       -221.9590  227.2860  423.3420 O.2   295  SER295     -0.2863
    139  CB      -224.2230  225.5530  421.7770 C.3   295  SER295      0.2116
    140  OG      -224.0510  224.7470  422.9290 O.3   295  SER295     -0.2180
    141  N       -223.6190  226.4990  425.8300 N.3   298  GLN298     -0.1245
    142  CA      -222.6330  225.7040  426.5530 C.3   298  GLN298      0.1566
    143  C       -221.3840  226.5190  426.8630 C.2   298  GLN298      0.2260
    144  O       -220.5290  226.0990  427.6430 O.2   298  GLN298     -0.2867
    145  CB      -222.2460  224.4660  425.7480 C.3   298  GLN298      0.0367
    146  CG      -221.4940  223.4210  426.5560 C.3   298  GLN298      0.0905
    147  CD      -222.3850  222.7470  427.5760 C.2   298  GLN298      0.2608
    148  OE1     -223.6080  222.8860  427.5320 O.2   298  GLN298     -0.2717
    149  NE2     -221.7790  222.0120  428.5030 N.am  298  GLN298     -0.0878
    150  N       -231.5650  230.1770  418.2290 N.3   350  HIS350     -0.1241
    151  CA      -231.1700  230.5080  419.5980 C.3   350  HIS350      0.1621
    152  C       -229.7160  230.1020  419.8330 C.2   350  HIS350      0.2264
    153  O       -229.0890  229.5120  418.9550 O.2   350  HIS350     -0.2867
    154  CB      -232.0920  229.8240  420.6110 C.3   350  HIS350      0.0745
    155  CG      -232.2760  228.3560  420.3740 C.ar  350  HIS350      0.0817
    156  ND1     -231.2800  227.4320  420.6050 N.ar  350  HIS350     -0.2268
    157  CD2     -233.3470  227.6520  419.9380 C.ar  350  HIS350      0.1154
    158  CE1     -231.7270  226.2220  420.3160 C.ar  350  HIS350      0.1986
    159  NE2     -232.9790  226.3290  419.9090 N.ar  350  HIS350     -0.2212
    160  N       -228.4680  227.8080  421.2320 N.3   352  GLY352     -0.1210
    161  CA      -228.2710  226.3710  421.2520 C.3   352  GLY352      0.1956
    162  C       -227.9000  225.8420  419.8780 C.2   352  GLY352      0.2611
    163  O       -227.2320  224.8170  419.7560 O.2   352  GLY352     -0.2717
    164  N       -228.3340  226.5530  418.8410 N.am  353  ASN353     -0.1974
    165  CA      -228.0660  226.1530  417.4660 C.3   353  ASN353      0.1688
    166  C       -226.9810  227.0030  416.8130 C.2   353  ASN353      0.2292
    167  O       -226.8060  226.9780  415.5910 O.2   353  ASN353     -0.2864
    168  CB      -229.3470  226.2280  416.6370 C.3   353  ASN353      0.1181
    169  CG      -230.3880  225.2220  417.0810 C.2   353  ASN353      0.2629
    170  OD1     -230.0580  224.1490  417.5870 O.2   353  ASN353     -0.2716
    171  ND2     -231.6570  225.5620  416.8880 N.am  353  ASN353     -0.0877
    172  N       -222.9290  227.6700  417.1390 N.3   355  LEU355     -0.1245
    173  CA      -221.6300  227.3340  417.7050 C.3   355  LEU355      0.1561
    174  C       -220.7070  228.5420  417.7620 C.2   355  LEU355      0.2260
    175  O       -220.9890  229.5880  417.1730 O.2   355  LEU355     -0.2867
    176  CB      -220.9580  226.2250  416.8960 C.3   355  LEU355      0.0270
    177  CG      -221.4290  224.7880  417.1030 C.3   355  LEU355      0.0019
    178  CD1     -222.9400  224.6900  416.9700 C.3   355  LEU355      0.0001
    179  CD2     -220.7400  223.8700  416.1030 C.3   355  LEU355      0.0001
    180  N       -226.2890  225.8750  413.2080 N.3   365  ILE365     -0.1231
    181  CA      -226.5410  224.4640  412.9400 C.3   365  ILE365      0.1692
    182  C       -228.0150  224.1080  413.1290 C.2   365  ILE365      0.2592
    183  O       -228.8000  224.9210  413.6290 O.2   365  ILE365     -0.2718
    184  CB      -225.6620  223.5550  413.8310 C.3   365  ILE365      0.0266
    185  CG1     -225.9700  223.7730  415.3120 C.3   365  ILE365      0.0019
    186  CG2     -224.1880  223.7940  413.5490 C.3   365  ILE365      0.0020
    187  CD1     -227.0820  222.8960  415.8530 C.3   365  ILE365      0.0001
    188  N       -228.3740  222.8930  412.7160 N.am  366  ASP366     -0.1974
    189  CA      -229.7550  222.4180  412.7680 C.3   366  ASP366      0.1709
    190  C       -230.6480  223.2500  411.8400 C.2   366  ASP366      0.2293
    191  O       -231.2010  224.2690  412.2510 O.2   366  ASP366     -0.2864
    192  CB      -230.2800  222.4620  414.2060 C.3   366  ASP366      0.1436
    193  CG      -231.6310  221.7920  414.3560 C.2   366  ASP366      0.3671
    194  OD1     -232.0630  221.1030  413.4070 O.co2 366  ASP366     -0.2456
    195  OD2     -232.2550  221.9440  415.4290 O.co2 366  ASP366     -0.2456
@<TRIPOS>BOND
     1    68    67    2
     2    67    66    1
     3    60    59    2
     4    65    66    1
     5    59    58    1
     6    66    69    1
     7    77    76    2
     8    76    75    1
     9    74    75    1
    10    58    61    1
    11    58    57    1
    12    69    70    1
    13    61    62    1
    14    75    78    1
    15    70    71    1
    16    62    63    1
    17    62    64    1
    18    78    79    1
    19    71    72   ar
    20    71    73   ar
    21    80    79   ar
    22    80    82   ar
    23    79    81   ar
    24    82    84   ar
    25    81    83   ar
    26    84    83   ar
    27    84    85    1
    28    52    51    2
    29    87    86    1
    30    87    88    1
    31    87    90    1
    32    88    89    2
    33    91    90    1
    34    91    93    1
    35    51    50    1
    36    92    90    1
    37   190   191    2
    38   190   189    1
    39   107   105    1
    40    94   100    1
    41    94    95    1
    42    50    49    1
    43    50    53    1
    44   188   189    1
    45   188   182   am
    46    43    42    2
    47   189   192    1
    48    97    96    2
    49    35    34    2
    50   181   182    1
    51   181   180    1
    52   181   184    1
    53    46    45    1
    54    46    47    1
    55   100    99    1
    56    53    54    1
    57    45    44    1
    58    96    95    1
    59    96   101   am
    60   182   183    2
    61   105   106    1
    62   105   102    1
    63    95    98    1
    64   101   102    1
    65   194   193   ar
    66   102   103    1
    67   186   184    1
    68    32    33    1
    69   184   185    1
    70    47    48    1
    71    42    41    1
    72    34    33    1
    73   192   193    1
    74    40    41    1
    75    99    98    1
    76   193   195   ar
    77    44    41    1
    78    54    55   ar
    79    54    56   ar
    80    33    36    1
    81    36    38    1
    82    36    37    1
    83   103   108   am
    84   103   104    2
    85   114   112    1
    86   108   109    1
    87   185   187    1
    88   113   112    1
    89    37    39    1
    90   167   166    2
    91   111   110    2
    92   112   109    1
    93   109   110    1
    94   179   177    1
    95   110   115   am
    96   168   169    1
    97   168   165    1
    98   166   165    1
    99   171   169   am
   100   176   177    1
   101   176   173    1
   102   178   177    1
   103   169   170    2
   104   127   124    1
   105   172   173    1
   106   175   174    2
   107   165   164    1
   108    21    22    1
   109    21    18    1
   110   173   174    1
   111   115   116    1
   112   119   120    1
   113   119   116    1
   114   118   117    2
   115   122   120   am
   116   120   121    2
   117   150   151    1
   118    22    23    1
   119   117   116    1
   120   117   123   am
   121   124   123    1
   122   124   125    1
   123    29    30    1
   124    29    28    1
   125    29    31    1
   126    18    19    1
   127    18    17    1
   128    25    26    1
   129    25    28    1
   130    25    24    1
   131   164   162   am
   132    26    27    2
   133   153   152    2
   134     7     6    1
   135   126   125    2
   136    19    20    2
   137   125   128   am
   138    17    23    1
   139   151   152    1
   140   151   154    1
   141   163   162    2
   142   162   161    1
   143   159   157   ar
   144   159   158   ar
   145   157   155   ar
   146   128   129    1
   147   158   156   ar
   148   155   156   ar
   149   155   154    1
   150     6     8    1
   151     6     5    1
   152   131   130    2
   153   129   130    1
   154   129   132    1
   155   130   135   am
   156   160   161    1
   157     5     2    1
   158    16    14   am
   159   135   136    1
   160   136   139    1
   161   136   137    1
   162   139   140    1
   163   137   138    2
   164   133   132    1
   165   132   134    1
   166    14    15    2
   167    14    13    1
   168     2     1    1
   169     2     3    1
   170     3     9   am
   171     3     4    2
   172     9    10    1
   173    13    10    1
   174    10    11    1
   175    12    11    2
   176   145   142    1
   177   145   146    1
   178   141   142    1
   179   142   143    1
   180   146   147    1
   181   143   144    2
   182   148   147    2
   183   147   149   am
