@<TRIPOS>MOLECULE
tmp/5eusA00.pdb
 95 90 0 0 0
SMALL
GASTEIGER

@<TRIPOS>ATOM
      1  N         28.4580  -11.3160   11.0210 N.3    75  VAL75      -0.1231
      2  CA        28.3660  -12.5800   10.2790 C.3    75  VAL75       0.1692
      3  C         28.3170  -13.7590   11.2420 C.2    75  VAL75       0.2591
      4  O         27.5560  -14.7120   11.0570 O.2    75  VAL75      -0.2718
      5  CB        29.5630  -12.7260    9.3340 C.3    75  VAL75       0.0266
      6  CG1       29.6870  -14.1270    8.7800 C.3    75  VAL75       0.0020
      7  CG2       29.4550  -11.6980    8.2100 C.3    75  VAL75       0.0020
      8  N         29.1480  -13.7010   12.2760 N.am   76  LYS76      -0.1980
      9  CA        29.2190  -14.8120   13.2150 C.3    76  LYS76       0.1596
     10  C         27.8990  -14.9430   13.9800 C.2    76  LYS76       0.2287
     11  O         27.3630  -16.0630   14.1690 O.2    76  LYS76      -0.2864
     12  CB        30.3970  -14.6320   14.2040 C.3    76  LYS76       0.0298
     13  CG        30.3880  -15.7270   15.3040 C.3    76  LYS76       0.0038
     14  CD        31.6030  -15.6810   16.1980 C.3    76  LYS76       0.0206
     15  CE        31.5070  -16.7610   17.2870 C.3    76  LYS76       0.1093
     16  NZ        30.2710  -16.6060   18.1140 N.3    76  LYS76      -0.1314
     17  N         25.0300  -16.0970   11.9440 N.3    79  GLY79      -0.1225
     18  CA        25.3780  -17.4770   11.6030 C.3    79  GLY79       0.1811
     19  C         25.0430  -18.4390   12.7210 C.2    79  GLY79       0.2280
     20  O         24.5640  -19.5680   12.4980 O.2    79  GLY79      -0.2866
     21  N         21.7630  -19.5840   12.4500 N.3    82  GLY82      -0.1210
     22  CA        21.4340  -20.1990   11.1840 C.3    82  GLY82       0.1956
     23  C         21.0960  -19.2210   10.0690 C.2    82  GLY82       0.2612
     24  O         20.6660  -19.6370    8.9920 O.2    82  GLY82      -0.2717
     25  N         21.3290  -17.9330   10.3020 N.am   83  ILE83      -0.1965
     26  CA        21.0460  -16.9220    9.2770 C.3    83  ILE83       0.1727
     27  C         22.3330  -16.5290    8.5530 C.2    83  ILE83       0.2616
     28  O         23.2990  -16.1430    9.1870 O.2    83  ILE83      -0.2715
     29  CB        20.4030  -15.6760    9.8910 C.3    83  ILE83       0.0290
     30  CG1       19.0270  -16.0390   10.4720 C.3    83  ILE83       0.0022
     31  CG2       20.2700  -14.5590    8.8300 C.3    83  ILE83       0.0023
     32  CD1       18.3000  -14.8740   11.1560 C.3    83  ILE83       0.0001
     33  N         22.3500  -16.6660    7.2240 N.am   84  TYR84      -0.1960
     34  CA        23.5090  -16.2750    6.4310 C.3    84  TYR84       0.1771
     35  C         23.5180  -14.7750    6.1470 C.2    84  TYR84       0.2619
     36  O         22.5000  -14.2080    5.7610 O.2    84  TYR84      -0.2715
     37  CB        23.5130  -17.0150    5.0890 C.3    84  TYR84       0.0574
     38  CG        23.9530  -18.4570    5.0900 C.ar   84  TYR84      -0.0198
     39  CD1       25.1420  -18.8070    4.4730 C.ar   84  TYR84      -0.0009
     40  CD2       23.1360  -19.4830    5.5830 C.ar   84  TYR84      -0.0009
     41  CE1       25.5620  -20.1380    4.3910 C.ar   84  TYR84       0.0417
     42  CE2       23.5610  -20.8380    5.5160 C.ar   84  TYR84       0.0417
     43  CZ        24.7730  -21.1340    4.9030 C.ar   84  TYR84       0.1957
     44  OH        25.2280  -22.4080    4.7950 O.3    84  TYR84      -0.2866
     45  N         24.6910  -14.1590    6.2940 N.am   85  VAL85      -0.1977
     46  CA        24.9090  -12.7700    5.9250 C.3    85  VAL85       0.1596
     47  C         25.7600  -12.7990    4.6490 C.2    85  VAL85       0.2287
     48  O         26.8840  -13.2990    4.6620 O.2    85  VAL85      -0.2864
     49  CB        25.6290  -11.9840    7.0270 C.3    85  VAL85       0.0276
     50  CG1       25.9880  -10.5470    6.5380 C.3    85  VAL85       0.0022
     51  CG2       24.8010  -12.0080    8.3300 C.3    85  VAL85       0.0022
     52  N         36.0140  -20.7990    4.1510 N.3   108  ALA108     -0.1231
     53  CA        34.5950  -20.9730    3.9050 C.3   108  ALA108      0.1694
     54  C         33.8530  -19.6370    3.7880 C.2   108  ALA108      0.2591
     55  O         32.8030  -19.5870    3.1430 O.2   108  ALA108     -0.2718
     56  CB        33.9700  -21.8030    5.0180 C.3   108  ALA108      0.0304
     57  N         34.3650  -18.5760    4.4170 N.am  109  LEU109     -0.1980
     58  CA        33.6320  -17.3030    4.4290 C.3   109  LEU109      0.1596
     59  C         33.6770  -16.6670    3.0220 C.2   109  LEU109      0.2287
     60  O         32.9140  -15.7440    2.7250 O.2   109  LEU109     -0.2864
     61  CB        34.1890  -16.3300    5.4590 C.3   109  LEU109      0.0297
     62  CG        33.4940  -16.3770    6.8510 C.3   109  LEU109      0.0022
     63  CD1       33.8030  -17.6920    7.5280 C.3   109  LEU109      0.0001
     64  CD2       33.8890  -15.2270    7.7440 C.3   109  LEU109      0.0001
     65  N         32.5210  -18.0430    0.6170 N.3   111  GLU111     -0.1231
     66  CA        31.2380  -18.3770    0.0260 C.3   111  GLU111      0.1699
     67  C         30.1370  -17.3260    0.3180 C.2   111  GLU111      0.2592
     68  O         29.0410  -17.3960   -0.2650 O.2   111  GLU111     -0.2718
     69  CB        30.8180  -19.7780    0.4900 C.3   111  GLU111      0.0402
     70  CG        31.8480  -20.8350   -0.0070 C.3   111  GLU111      0.1161
     71  CD        31.6090  -22.2300    0.5410 C.2   111  GLU111      0.3649
     72  OE1       30.5170  -22.4570    1.1010 O.co2 111  GLU111     -0.2457
     73  OE2       32.5180  -23.0970    0.4100 O.co2 111  GLU111     -0.2457
     74  N         30.4160  -16.3500    1.1710 N.am  112  LEU112     -0.1980
     75  CA        29.4380  -15.2880    1.4260 C.3   112  LEU112      0.1596
     76  C         29.4840  -14.1730    0.4360 C.2   112  LEU112      0.2287
     77  O         28.6330  -13.2880    0.4930 O.2   112  LEU112     -0.2864
     78  CB        29.6140  -14.6800    2.8230 C.3   112  LEU112      0.0297
     79  CG        29.5370  -15.7140    3.9690 C.3   112  LEU112      0.0022
     80  CD1       29.8460  -15.0330    5.3240 C.3   112  LEU112      0.0001
     81  CD2       28.2060  -16.4440    4.0100 C.3   112  LEU112      0.0001
     82  N         23.5020  -25.2600    2.1170 N.3   128  GLU128     -0.1231
     83  CA        23.6260  -26.0650    3.3270 C.3   128  GLU128      0.1699
     84  C         22.9790  -25.3310    4.5010 C.2   128  GLU128      0.2592
     85  O         23.2150  -24.1290    4.7130 O.2   128  GLU128     -0.2718
     86  CB        25.0950  -26.3710    3.6050 C.3   128  GLU128      0.0402
     87  CG        25.2910  -27.5070    4.5880 C.3   128  GLU128      0.1161
     88  CD        26.7510  -27.8580    4.7730 C.2   128  GLU128      0.3649
     89  OE1       27.5470  -27.6130    3.8360 O.co2 128  GLU128     -0.2457
     90  OE2       27.1030  -28.3700    5.8560 O.co2 128  GLU128     -0.2457
     91  N         22.1390  -26.0570    5.2400 N.am  129  ALA129     -0.1980
     92  CA        21.2700  -25.4860    6.2730 C.3   129  ALA129      0.1597
     93  C         21.8740  -25.5350    7.6770 C.2   129  ALA129      0.2287
     94  O         21.4620  -24.7830    8.5640 O.2   129  ALA129     -0.2864
     95  CB        19.9190  -26.2240    6.2810 C.3   129  ALA129      0.0319
@<TRIPOS>BOND
     1    68    67    2
     2    70    69    1
     3    70    71    1
     4    66    67    1
     5    66    69    1
     6    66    65    1
     7    67    74   am
     8    73    71   ar
     9    76    77    2
    10    76    75    1
    11    71    72   ar
    12    74    75    1
    13    75    78    1
    14    82    83    1
    15    60    59    2
    16    78    79    1
    17    59    58    1
    18    55    54    2
    19    83    86    1
    20    83    84    1
    21    86    87    1
    22    54    53    1
    23    54    57   am
    24    89    88   ar
    25    53    52    1
    26    53    56    1
    27    79    81    1
    28    79    80    1
    29    41    39   ar
    30    41    43   ar
    31    57    58    1
    32    58    61    1
    33    39    38   ar
    34    84    85    2
    35    84    91   am
    36    87    88    1
    37    47    48    2
    38    47    46    1
    39    88    90   ar
    40    44    43    1
    41    43    42   ar
    42    37    38    1
    43    37    34    1
    44    38    40   ar
    45    91    92    1
    46    61    62    1
    47    42    40   ar
    48    36    35    2
    49    46    45    1
    50    46    49    1
    51    35    45   am
    52    35    34    1
    53    92    95    1
    54    92    93    1
    55    34    33    1
    56    50    49    1
    57    62    63    1
    58    62    64    1
    59    49    51    1
    60    33    27   am
    61    93    94    2
    62     7     5    1
    63    27    28    2
    64    27    26    1
    65     6     5    1
    66    31    29    1
    67    24    23    2
    68    26    29    1
    69    26    25    1
    70     5     2    1
    71    29    30    1
    72    23    25   am
    73    23    22    1
    74     2     1    1
    75     2     3    1
    76    30    32    1
    77     4     3    2
    78    22    21    1
    79     3     8   am
    80    18    17    1
    81    18    19    1
    82     8     9    1
    83    20    19    2
    84     9    10    1
    85     9    12    1
    86    10    11    2
    87    12    13    1
    88    13    14    1
    89    14    15    1
    90    15    16    1
