@<TRIPOS>MOLECULE
tmp/5euvA01.pdb
 110 111 0 0 0
SMALL
GASTEIGER

@<TRIPOS>ATOM
      1  N         44.2070   58.4620   54.2270 N.3   545  ARG545     -0.1245
      2  CA        44.1740   57.0150   54.1940 C.3   545  ARG545      0.1563
      3  C         44.7830   56.3860   55.4130 C.2   545  ARG545      0.2260
      4  O         44.2660   55.3810   55.9300 O.2   545  ARG545     -0.2867
      5  CB        44.9440   56.5400   52.9640 C.3   545  ARG545      0.0307
      6  CG        45.6680   55.2040   53.0690 C.3   545  ARG545      0.0489
      7  CD        44.7620   54.1970   52.4790 C.3   545  ARG545      0.2205
      8  NE        45.4540   52.9320   52.4460 N.pl3 545  ARG545     -0.0865
      9  CZ        46.3820   52.5780   51.5690 C.cat 545  ARG545      0.5346
     10  NH1       46.8270   53.4490   50.6360 N.pl3 545  ARG545      0.1354
     11  NH2       46.8780   51.3260   51.6380 N.pl3 545  ARG545      0.1354
     12  N         41.7500   54.1040   56.3690 N.3   552  GLY552     -0.1210
     13  CA        40.3400   54.2340   56.1550 C.3   552  GLY552      0.1956
     14  C         39.7280   55.2380   57.0540 C.2   552  GLY552      0.2611
     15  O         40.3630   55.7690   57.9420 O.2   552  GLY552     -0.2717
     16  N         38.4730   55.5390   56.7640 N.am  553  VAL553     -0.1979
     17  CA        37.7070   56.5170   57.5380 C.3   553  VAL553      0.1595
     18  C         36.4330   55.8930   58.1550 C.2   553  VAL553      0.2287
     19  O         35.5770   56.6120   58.6380 O.2   553  VAL553     -0.2864
     20  CB        37.3330   57.7220   56.6480 C.3   553  VAL553      0.0276
     21  CG1       38.5690   58.5460   56.3880 C.3   553  VAL553      0.0022
     22  CG2       36.7300   57.2460   55.3310 C.3   553  VAL553      0.0022
     23  N         32.1170   57.1610   47.6660 N.3   569  CYS569     -0.1221
     24  CA        33.5540   57.0500   47.4870 C.3   569  CYS569      0.1808
     25  C         33.8840   55.9460   46.5310 C.2   569  CYS569      0.2601
     26  O         33.2830   54.8750   46.6360 O.2   569  CYS569     -0.2717
     27  CB        34.2030   56.6730   48.8050 C.3   569  CYS569      0.0970
     28  SG        35.9910   56.6690   48.6570 S.3   569  CYS569     -0.0800
     29  N         34.8600   56.1570   45.6440 N.am  570  ALA570     -0.1979
     30  CA        35.3950   55.0340   44.8380 C.3   570  ALA570      0.1597
     31  C         34.2710   54.2510   44.1650 C.2   570  ALA570      0.2287
     32  O         34.2110   53.0230   44.2700 O.2   570  ALA570     -0.2864
     33  CB        36.1880   54.0760   45.7290 C.3   570  ALA570      0.0319
     34  N         34.7270   49.1200   48.9220 N.3   603  LEU603     -0.1231
     35  CA        35.5690   50.3090   48.7630 C.3   603  LEU603      0.1693
     36  C         37.0180   50.0060   48.3890 C.2   603  LEU603      0.2593
     37  O         37.8930   50.8390   48.5980 O.2   603  LEU603     -0.2718
     38  CB        35.5440   51.0970   50.0630 C.3   603  LEU603      0.0284
     39  CG        34.1790   51.6330   50.4770 C.3   603  LEU603      0.0019
     40  CD1       34.3210   52.2130   51.8740 C.3   603  LEU603      0.0001
     41  CD2       33.6170   52.6710   49.5030 C.3   603  LEU603      0.0001
     42  N         37.2560   48.8250   47.8050 N.am  604  GLY604     -0.1942
     43  CA        38.5920   48.2730   47.6010 C.3   604  GLY604      0.2014
     44  C         39.4100   48.3870   48.8550 C.2   604  GLY604      0.2639
     45  O         40.5680   48.7720   48.7850 O.2   604  GLY604     -0.2714
     46  N         38.7940   48.0700   49.9970 N.am  605  GLN605     -0.1963
     47  CA        39.3090   48.5030   51.3030 C.3   605  GLN605      0.1733
     48  C         40.7090   47.9320   51.5040 C.2   605  GLN605      0.2616
     49  O         40.9090   46.7200   51.4340 O.2   605  GLN605     -0.2715
     50  CB        38.3630   48.1020   52.4490 C.3   605  GLN605      0.0408
     51  CG        38.6380   48.6950   53.8340 C.3   605  GLN605      0.0908
     52  CD        37.8370   49.9530   54.1830 C.2   605  GLN605      0.2608
     53  OE1       37.2610   50.6140   53.3160 O.2   605  GLN605     -0.2717
     54  NE2       37.8220   50.2950   55.4750 N.am  605  GLN605     -0.0878
     55  N         41.6530   48.8410   51.7520 N.am  606  TRP606     -0.1960
     56  CA        43.1140   48.5860   51.7340 C.3   606  TRP606      0.1771
     57  C         43.6360   47.9270   50.3890 C.2   606  TRP606      0.2620
     58  O         44.5290   47.0680   50.4050 O.2   606  TRP606     -0.2715
     59  CB        43.5430   47.9020   53.0760 C.3   606  TRP606      0.0590
     60  CG        42.7070   48.4590   54.2830 C.ar  606  TRP606      0.0006
     61  CD1       42.6970   49.7590   54.7490 C.ar  606  TRP606      0.0946
     62  CD2       41.7230   47.7460   55.0800 C.ar  606  TRP606      0.0152
     63  NE1       41.7910   49.8900   55.7820 N.ar  606  TRP606     -0.2442
     64  CE2       41.1850   48.6780   56.0130 C.ar  606  TRP606      0.0810
     65  CE3       41.2470   46.4130   55.0990 C.ar  606  TRP606      0.0012
     66  CZ2       40.1960   48.3180   56.9550 C.ar  606  TRP606      0.0191
     67  CZ3       40.2640   46.0580   56.0380 C.ar  606  TRP606      0.0001
     68  CH2       39.7530   47.0100   56.9500 C.ar  606  TRP606      0.0015
     69  N         43.0580   48.3740   49.2500 N.am  607  GLY607     -0.1940
     70  CA        43.5420   48.1340   47.8600 C.3   607  GLY607      0.2014
     71  C         44.1680   49.4220   47.2910 C.2   607  GLY607      0.2639
     72  O         43.7910   49.9380   46.2410 O.2   607  GLY607     -0.2714
     73  N         45.0690   49.9830   48.0840 N.am  608  MET608     -0.1963
     74  CA        46.1010   50.9720   47.7170 C.3   608  MET608      0.1736
     75  C         45.8100   52.4200   47.2710 C.2   608  MET608      0.2617
     76  O         46.3750   53.3160   47.8730 O.2   608  MET608     -0.2715
     77  CB        47.2220   50.2990   46.9180 C.3   608  MET608      0.0427
     78  CG        48.3910   49.8450   47.8070 C.3   608  MET608      0.0599
     79  SD        48.1490   49.3930   49.5790 S.3   608  MET608     -0.1393
     80  CE        47.4150   47.7440   49.5110 C.3   608  MET608      0.0692
     81  N         44.9850   52.6950   46.2810 N.am  609  SER609     -0.1936
     82  CA        44.7220   54.1110   45.9540 C.3   609  SER609      0.2055
     83  C         43.6790   54.8000   46.8390 C.2   609  SER609      0.2643
     84  O         42.5660   54.3090   46.9740 O.2   609  SER609     -0.2714
     85  CB        44.3170   54.2980   44.5170 C.3   609  SER609      0.2130
     86  OG        45.4580   54.7340   43.8300 O.3   609  SER609     -0.2179
     87  N         44.0380   55.9660   47.3760 N.am  610  TRP610     -0.1959
     88  CA        43.1190   56.8010   48.1330 C.3   610  TRP610      0.1771
     89  C         42.2640   57.6530   47.1860 C.2   610  TRP610      0.2619
     90  O         42.7790   58.3300   46.3060 O.2   610  TRP610     -0.2715
     91  CB        43.9030   57.6920   49.1280 C.3   610  TRP610      0.0590
     92  CG        43.0690   58.3500   50.1790 C.ar  610  TRP610      0.0006
     93  CD1       43.0460   59.6470   50.5090 C.ar  610  TRP610      0.0946
     94  CD2       42.1470   57.6970   51.0220 C.ar  610  TRP610      0.0152
     95  NE1       42.1390   59.8700   51.5010 N.ar  610  TRP610     -0.2442
     96  CE2       41.5660   58.6780   51.8340 C.ar  610  TRP610      0.0810
     97  CE3       41.7340   56.3540   51.1590 C.ar  610  TRP610      0.0012
     98  CZ2       40.5960   58.3650   52.8020 C.ar  610  TRP610      0.0191
     99  CZ3       40.7670   56.0280   52.0940 C.ar  610  TRP610      0.0001
    100  CH2       40.2100   57.0340   52.9200 C.ar  610  TRP610      0.0015
    101  N         40.9560   57.6450   47.3790 N.am  611  HIS611     -0.1973
    102  CA        40.0400   58.3790   46.5230 C.3   611  HIS611      0.1656
    103  C         39.4000   59.5710   47.2020 C.2   611  HIS611      0.2291
    104  O         39.2700   59.6430   48.3900 O.2   611  HIS611     -0.2864
    105  CB        38.9800   57.4060   46.0310 C.3   611  HIS611      0.0771
    106  CG        39.5730   56.1910   45.3950 C.ar  611  HIS611      0.0820
    107  ND1       40.1690   56.2170   44.1450 N.ar  611  HIS611     -0.2267
    108  CD2       39.7600   54.9410   45.8790 C.ar  611  HIS611      0.1154
    109  CE1       40.6640   55.0260   43.8760 C.ar  611  HIS611      0.1986
    110  NE2       40.4220   54.2320   44.9120 N.ar  611  HIS611     -0.2212
@<TRIPOS>BOND
     1    86    85    1
     2   109   107   ar
     3   109   110   ar
     4   107   106   ar
     5    31    32    2
     6    31    30    1
     7    85    82    1
     8    30    29    1
     9    30    33    1
    10   110   108   ar
    11   106   108   ar
    12   106   105    1
    13    29    25   am
    14    82    81    1
    15    82    83    1
    16   105   102    1
    17    72    71    2
    18    81    75   am
    19    90    89    2
    20   102   103    1
    21   102   101    1
    22    25    26    2
    23    25    24    1
    24    83    84    2
    25    83    87   am
    26    77    74    1
    27    77    78    1
    28    89   101   am
    29    89    88    1
    30   103   104    2
    31    75    74    1
    32    75    76    2
    33    71    70    1
    34    71    73   am
    35    87    88    1
    36    24    23    1
    37    24    27    1
    38    43    42    1
    39    43    44    1
    40    74    73    1
    41    42    36   am
    42    78    79    1
    43    70    69    1
    44    88    91    1
    45    36    37    2
    46    36    35    1
    47    28    27    1
    48    35    34    1
    49    35    38    1
    50    45    44    2
    51    44    46   am
    52    91    92    1
    53    69    57   am
    54    41    39    1
    55    80    79    1
    56    46    47    1
    57    38    39    1
    58    92    93   ar
    59    92    94   ar
    60    57    58    2
    61    57    56    1
    62    39    40    1
    63    93    95   ar
    64    10     9    1
    65    94    97   ar
    66    94    96   ar
    67    97    99   ar
    68    47    48    1
    69    47    50    1
    70    49    48    2
    71    95    96   ar
    72    48    55   am
    73     9    11    1
    74     9     8    2
    75    56    55    1
    76    56    59    1
    77    96    98   ar
    78    99   100   ar
    79     8     7    1
    80    50    51    1
    81     7     6    1
    82    98   100   ar
    83     5     6    1
    84     5     2    1
    85    59    60    1
    86    53    52    2
    87    51    52    1
    88    52    54   am
    89     2     1    1
    90     2     3    1
    91    60    61   ar
    92    60    62   ar
    93    61    63   ar
    94    62    65   ar
    95    62    64   ar
    96    65    67   ar
    97    22    20    1
    98     3     4    2
    99    63    64   ar
   100    64    66   ar
   101    67    68   ar
   102    13    12    1
   103    13    14    1
   104    21    20    1
   105    20    17    1
   106    16    14   am
   107    16    17    1
   108    68    66   ar
   109    14    15    2
   110    17    18    1
   111    18    19    2
