@<TRIPOS>MOLECULE
tmp/5euvA00.pdb
 77 75 0 0 0
SMALL
GASTEIGER

@<TRIPOS>ATOM
      1  N         29.5340   58.7570   49.1730 N.3   568  GLU568     -0.1231
      2  CA        30.0360   58.3680   47.8520 C.3   568  GLU568      0.1699
      3  C         31.5440   58.3180   47.9180 C.2   568  GLU568      0.2592
      4  O         32.1790   59.3230   48.1870 O.2   568  GLU568     -0.2718
      5  CB        29.6260   59.3340   46.7100 C.3   568  GLU568      0.0402
      6  CG        28.1410   59.4280   46.3680 C.3   568  GLU568      0.1161
      7  CD        27.7350   60.8190   45.8220 C.2   568  GLU568      0.3649
      8  OE1       26.8340   61.4880   46.4220 O.co2 568  GLU568     -0.2457
      9  OE2       28.3490   61.2680   44.8050 O.co2 568  GLU568     -0.2457
     10  N         32.1170   57.1610   47.6660 N.am  569  CYS569     -0.1956
     11  CA        33.5540   57.0500   47.4870 C.3   569  CYS569      0.1843
     12  C         33.8840   55.9460   46.5310 C.2   569  CYS569      0.2625
     13  O         33.2830   54.8750   46.6360 O.2   569  CYS569     -0.2714
     14  CB        34.2030   56.6730   48.8050 C.3   569  CYS569      0.0997
     15  SG        35.9910   56.6690   48.6570 S.3   569  CYS569     -0.0797
     16  N         34.8600   56.1570   45.6440 N.am  570  ALA570     -0.1977
     17  CA        35.3950   55.0340   44.8380 C.3   570  ALA570      0.1597
     18  C         34.2710   54.2510   44.1650 C.2   570  ALA570      0.2287
     19  O         34.2110   53.0230   44.2700 O.2   570  ALA570     -0.2864
     20  CB        36.1880   54.0760   45.7290 C.3   570  ALA570      0.0319
     21  N         39.0020   60.5410   46.4290 N.3   612  PRO612     -0.2102
     22  CA        38.1160   61.5030   47.0630 C.3   612  PRO612      0.1504
     23  C         36.7590   60.9240   47.5020 C.2   612  PRO612      0.2576
     24  O         36.3740   59.7650   47.2030 O.2   612  PRO612     -0.2718
     25  CB        37.9110   62.5630   45.9860 C.3   612  PRO612      0.0282
     26  CG        38.2220   61.8420   44.7120 C.3   612  PRO612      0.0208
     27  CD        39.2940   60.8480   45.0240 C.3   612  PRO612      0.0893
     28  N         36.0570   61.7810   48.2340 N.am  613  GLY613     -0.1943
     29  CA        34.7890   61.4490   48.8260 C.3   613  GLY613      0.2014
     30  C         33.8150   62.5850   48.7750 C.2   613  GLY613      0.2638
     31  O         34.1700   63.7830   48.7060 O.2   613  GLY613     -0.2714
     32  N         32.5610   62.1870   48.8330 N.am  614  ARG614     -0.1977
     33  CA        31.4600   63.1280   48.8700 C.3   614  ARG614      0.1597
     34  C         30.4370   62.5540   49.7880 C.2   614  ARG614      0.2287
     35  O         30.0930   61.3650   49.7000 O.2   614  ARG614     -0.2864
     36  CB        30.8130   63.2840   47.5110 C.3   614  ARG614      0.0334
     37  CG        29.8300   64.4320   47.4830 C.3   614  ARG614      0.0492
     38  CD        28.9750   64.5330   46.1990 C.3   614  ARG614      0.2205
     39  NE        29.6720   65.3510   45.2200 N.pl3 614  ARG614     -0.0865
     40  CZ        30.1280   64.9220   44.0530 C.cat 614  ARG614      0.5346
     41  NH1       29.9000   63.6710   43.6240 N.pl3 614  ARG614      0.1354
     42  NH2       30.8000   65.7840   43.2890 N.pl3 614  ARG614      0.1354
     43  N         32.6080   67.8190   50.3380 N.3   628  GLU628     -0.1231
     44  CA        33.6730   67.1330   49.5880 C.3   628  GLU628      0.1699
     45  C         35.0230   67.0820   50.3410 C.2   628  GLU628      0.2592
     46  O         35.3320   67.9530   51.1650 O.2   628  GLU628     -0.2718
     47  CB        33.8350   67.7570   48.2080 C.3   628  GLU628      0.0402
     48  CG        32.7240   67.2640   47.2820 C.3   628  GLU628      0.1161
     49  CD        32.5430   68.0940   46.0090 C.2   628  GLU628      0.3649
     50  OE1       33.3570   69.0480   45.7740 O.co2 628  GLU628     -0.2457
     51  OE2       31.5910   67.7400   45.2660 O.co2 628  GLU628     -0.2457
     52  N         35.7550   66.0010   50.0430 N.am  629  TYR629     -0.1962
     53  CA        37.0890   65.7060   50.5230 C.3   629  TYR629      0.1771
     54  C         37.9240   65.2340   49.3240 C.2   629  TYR629      0.2619
     55  O         37.5670   64.2740   48.5750 O.2   629  TYR629     -0.2715
     56  CB        37.0880   64.5810   51.5970 C.3   629  TYR629      0.0574
     57  CG        36.3410   64.9650   52.8700 C.ar  629  TYR629     -0.0198
     58  CD1       36.9100   65.8630   53.8110 C.ar  629  TYR629     -0.0009
     59  CD2       35.0890   64.4630   53.1360 C.ar  629  TYR629     -0.0009
     60  CE1       36.2410   66.2340   54.9750 C.ar  629  TYR629      0.0417
     61  CE2       34.4160   64.8490   54.2830 C.ar  629  TYR629      0.0417
     62  CZ        35.0150   65.7290   55.1800 C.ar  629  TYR629      0.1957
     63  OH        34.3190   66.1050   56.2180 O.3   629  TYR629     -0.2866
     64  N         39.0570   65.8730   49.1490 N.am  630  VAL630     -0.1977
     65  CA        40.0010   65.4050   48.1410 C.3   630  VAL630      0.1596
     66  C         40.9880   64.4030   48.7410 C.2   630  VAL630      0.2287
     67  O         41.2860   64.4760   49.9100 O.2   630  VAL630     -0.2864
     68  CB        40.7450   66.5890   47.5100 C.3   630  VAL630      0.0276
     69  CG1       39.7730   67.4870   46.7620 C.3   630  VAL630      0.0022
     70  CG2       41.5180   67.3810   48.5680 C.3   630  VAL630      0.0022
     71  N         39.0530   72.1210   48.1690 N.3   665  VAL665     -0.1245
     72  CA        37.6260   72.1830   48.4200 C.3   665  VAL665      0.1561
     73  C         37.3100   72.7970   49.7800 C.2   665  VAL665      0.2260
     74  O         36.2480   72.5450   50.3130 O.2   665  VAL665     -0.2867
     75  CB        36.9840   70.8080   48.2750 C.3   665  VAL665      0.0252
     76  CG1       37.1150   70.3570   46.8420 C.3   665  VAL665      0.0019
     77  CG2       37.6330   69.7700   49.2010 C.3   665  VAL665      0.0019
@<TRIPOS>BOND
     1    42    40    1
     2    41    40    1
     3    40    39    2
     4    18    19    2
     5    18    17    1
     6    26    27    1
     7    26    25    1
     8     9     7   ar
     9    17    16    1
    10    17    20    1
    11    27    21    1
    12    39    38    1
    13    51    49   ar
    14    16    12   am
    15    50    49   ar
    16     7     6    1
    17     7     8   ar
    18    25    22    1
    19    49    48    1
    20    38    37    1
    21     6     5    1
    22    21    22    1
    23    12    13    2
    24    12    11    1
    25     5     2    1
    26    69    68    1
    27    76    75    1
    28    22    23    1
    29    24    23    2
    30    48    47    1
    31    37    36    1
    32    11    10    1
    33    11    14    1
    34    23    28   am
    35    68    65    1
    36    68    70    1
    37    36    33    1
    38    10     3   am
    39     2     3    1
    40     2     1    1
    41     3     4    2
    42    65    66    1
    43    65    64    1
    44    71    72    1
    45    47    44    1
    46    28    29    1
    47    75    72    1
    48    75    77    1
    49    72    73    1
    50    55    54    2
    51    15    14    1
    52    31    30    2
    53    66    67    2
    54    30    29    1
    55    30    32   am
    56    32    33    1
    57    33    34    1
    58    64    54   am
    59    54    53    1
    60    44    43    1
    61    44    45    1
    62    35    34    2
    63    73    74    2
    64    52    45   am
    65    52    53    1
    66    45    46    2
    67    53    56    1
    68    56    57    1
    69    57    59   ar
    70    57    58   ar
    71    59    61   ar
    72    58    60   ar
    73    61    62   ar
    74    60    62   ar
    75    62    63    1
