@<TRIPOS>MOLECULE
tmp/5euzA00.pdb
 94 88 0 0 0
SMALL
GASTEIGER

@<TRIPOS>ATOM
      1  N          2.1450   64.7750   77.6750 N.3    75  VAL75      -0.1245
      2  CA         2.2380   66.0100   76.9060 C.3    75  VAL75       0.1561
      3  C          2.3710   67.2240   77.8210 C.2    75  VAL75       0.2260
      4  O          3.1800   68.1190   77.5720 O.2    75  VAL75      -0.2867
      5  CB         1.0010   66.2000   76.0000 C.3    75  VAL75       0.0252
      6  CG1        0.9100   67.6370   75.5070 C.3    75  VAL75       0.0019
      7  CG2        1.0390   65.2270   74.8310 C.3    75  VAL75       0.0019
      8  N          5.5430   69.6170   78.6770 N.3    79  GLY79      -0.1225
      9  CA         5.2930   70.9730   78.2340 C.3    79  GLY79       0.1811
     10  C          5.5100   71.9980   79.3260 C.2    79  GLY79       0.2280
     11  O          5.8100   73.1590   79.0480 O.2    79  GLY79      -0.2866
     12  N          8.8800   73.2580   78.9210 N.3    82  GLY82      -0.1210
     13  CA         9.2090   73.8020   77.6160 C.3    82  GLY82       0.1956
     14  C          9.4840   72.7830   76.5240 C.2    82  GLY82       0.2612
     15  O          9.9330   73.1530   75.4380 O.2    82  GLY82      -0.2717
     16  N          9.2110   71.5090   76.7990 N.am   83  ILE83      -0.1965
     17  CA         9.4330   70.4510   75.8150 C.3    83  ILE83       0.1727
     18  C          8.1320   70.0630   75.1130 C.2    83  ILE83       0.2616
     19  O          7.1400   69.7250   75.7580 O.2    83  ILE83      -0.2715
     20  CB        10.0650   69.2020   76.4660 C.3    83  ILE83       0.0290
     21  CG1       11.4030   69.5860   77.1150 C.3    83  ILE83       0.0022
     22  CG2       10.2450   68.0910   75.4270 C.3    83  ILE83       0.0023
     23  CD1       12.3020   68.4170   77.4970 C.3    83  ILE83       0.0001
     24  N          8.1560   70.1190   73.7830 N.am   84  TYR84      -0.1960
     25  CA         7.0110   69.7460   72.9550 C.3    84  TYR84       0.1771
     26  C          6.9560   68.2460   72.6960 C.2    84  TYR84       0.2619
     27  O          7.9390   67.6550   72.2460 O.2    84  TYR84      -0.2715
     28  CB         7.0620   70.4730   71.6110 C.3    84  TYR84       0.0574
     29  CG         6.5750   71.9020   71.6300 C.ar   84  TYR84      -0.0198
     30  CD1        5.3230   72.2330   71.1310 C.ar   84  TYR84      -0.0009
     31  CD2        7.3700   72.9230   72.1310 C.ar   84  TYR84      -0.0009
     32  CE1        4.8760   73.5380   71.1320 C.ar   84  TYR84       0.0417
     33  CE2        6.9330   74.2300   72.1340 C.ar   84  TYR84       0.0417
     34  CZ         5.6830   74.5340   71.6370 C.ar   84  TYR84       0.1957
     35  OH         5.2340   75.8350   71.6430 O.3    84  TYR84      -0.2866
     36  N          5.8060   67.6390   72.9760 N.am   85  VAL85      -0.1977
     37  CA         5.5430   66.2630   72.5700 C.3    85  VAL85       0.1596
     38  C          4.6880   66.2550   71.3070 C.2    85  VAL85       0.2287
     39  O          3.5080   66.6010   71.3500 O.2    85  VAL85      -0.2864
     40  CB         4.8260   65.4560   73.6660 C.3    85  VAL85       0.0276
     41  CG1        4.5080   64.0500   73.1610 C.3    85  VAL85       0.0022
     42  CG2        5.6730   65.3920   74.9300 C.3    85  VAL85       0.0022
     43  N         -8.5490   71.6500   74.5740 N.3   106  ASN106     -0.1240
     44  CA        -7.8240   72.8440   74.1890 C.3   106  ASN106      0.1653
     45  C         -7.4560   72.7460   72.7060 C.2   106  ASN106      0.2266
     46  O         -6.5650   71.9750   72.3480 O.2   106  ASN106     -0.2867
     47  CB        -6.5720   73.0010   75.0470 C.3   106  ASN106      0.1155
     48  CG        -5.8500   74.3100   74.7990 C.2   106  ASN106      0.2627
     49  OD1       -6.2820   75.1360   73.9960 O.2   106  ASN106     -0.2716
     50  ND2       -4.7440   74.5080   75.5020 N.am  106  ASN106     -0.0877
     51  N         -5.6370   74.2190   70.9020 N.3   108  ALA108     -0.1231
     52  CA        -4.2230   74.4660   70.6540 C.3   108  ALA108      0.1694
     53  C         -3.4250   73.1690   70.5010 C.2   108  ALA108      0.2591
     54  O         -2.3920   73.1440   69.8310 O.2   108  ALA108     -0.2718
     55  CB        -3.6420   75.3040   71.7760 C.3   108  ALA108      0.0304
     56  N         -3.9000   72.0970   71.1280 N.am  109  LEU109     -0.1980
     57  CA        -3.2100   70.8090   71.0720 C.3   109  LEU109      0.1596
     58  C         -3.2580   70.1810   69.6730 C.2   109  LEU109      0.2287
     59  O         -2.5500   69.2100   69.4040 O.2   109  LEU109     -0.2864
     60  CB        -3.8060   69.8410   72.1030 C.3   109  LEU109      0.0297
     61  CG        -3.0020   69.6530   73.3970 C.3   109  LEU109      0.0022
     62  CD1       -2.8350   70.9710   74.1480 C.3   109  LEU109      0.0001
     63  CD2       -3.6450   68.5990   74.2950 C.3   109  LEU109      0.0001
     64  N         -2.0500   71.4610   67.2030 N.3   111  GLU111     -0.1231
     65  CA        -0.7860   71.8270   66.5820 C.3   111  GLU111      0.1699
     66  C          0.3200   70.8080   66.8650 C.2   111  GLU111      0.2592
     67  O          1.4100   70.9070   66.3080 O.2   111  GLU111     -0.2718
     68  CB        -0.3500   73.2140   67.0580 C.3   111  GLU111      0.0402
     69  CG        -1.3560   74.3180   66.7550 C.3   111  GLU111      0.1161
     70  CD        -0.8150   75.6990   67.0750 C.2   111  GLU111      0.3649
     71  OE1        0.3510   75.9810   66.7150 O.co2 111  GLU111     -0.2457
     72  OE2       -1.5510   76.4980   67.6940 O.co2 111  GLU111     -0.2457
     73  N          0.0380   69.8280   67.7200 N.am  112  LEU112     -0.1980
     74  CA         1.0030   68.7730   68.0190 C.3   112  LEU112      0.1596
     75  C          0.8740   67.6020   67.0420 C.2   112  LEU112      0.2287
     76  O          1.6950   66.6870   67.0560 O.2   112  LEU112     -0.2864
     77  CB         0.8230   68.2710   69.4530 C.3   112  LEU112      0.0297
     78  CG         0.9480   69.3000   70.5830 C.3   112  LEU112      0.0022
     79  CD1        0.4820   68.6690   71.8890 C.3   112  LEU112      0.0001
     80  CD2        2.3760   69.8420   70.7140 C.3   112  LEU112      0.0001
     81  N          7.2010   78.9360   68.4190 N.3   128  GLU128     -0.1231
     82  CA         7.0770   79.7870   69.5930 C.3   128  GLU128      0.1699
     83  C          7.6640   79.0980   70.8240 C.2   128  GLU128      0.2592
     84  O          7.4370   77.9100   71.0530 O.2   128  GLU128     -0.2718
     85  CB         5.6100   80.1450   69.8280 C.3   128  GLU128      0.0402
     86  CG         5.3920   81.3580   70.7070 C.3   128  GLU128      0.1161
     87  CD         3.9260   81.5840   71.0150 C.2   128  GLU128      0.3649
     88  OE1        3.0790   80.9180   70.3810 O.co2 128  GLU128     -0.2457
     89  OE2        3.6190   82.4210   71.8900 O.co2 128  GLU128     -0.2457
     90  N          8.4230   79.8560   71.6080 N.am  129  ALA129     -0.1980
     91  CA         9.1140   79.3160   72.7730 C.3   129  ALA129      0.1597
     92  C          8.1310   78.9760   73.8880 C.2   129  ALA129      0.2287
     93  O          8.5290   78.5260   74.9620 O.2   129  ALA129     -0.2864
     94  CB        10.1560   80.3040   73.2730 C.3   129  ALA129      0.0319
@<TRIPOS>BOND
     1    67    66    2
     2    65    66    1
     3    65    68    1
     4    65    64    1
     5    71    70   ar
     6    69    68    1
     7    69    70    1
     8    66    73   am
     9    75    76    2
    10    75    74    1
    11    70    72   ar
    12    73    74    1
    13    74    77    1
    14    81    82    1
    15    59    58    2
    16    77    78    1
    17    82    85    1
    18    82    83    1
    19    58    57    1
    20    85    86    1
    21    54    53    2
    22    88    87   ar
    23    53    52    1
    24    53    56   am
    25    78    80    1
    26    78    79    1
    27    52    51    1
    28    52    55    1
    29    86    87    1
    30    83    84    2
    31    83    90   am
    32    87    89   ar
    33    57    56    1
    34    57    60    1
    35    30    32   ar
    36    30    29   ar
    37    32    34   ar
    38    38    39    2
    39    38    37    1
    40    90    91    1
    41    28    29    1
    42    28    25    1
    43    29    31   ar
    44    34    35    1
    45    34    33   ar
    46    60    61    1
    47    31    33   ar
    48    27    26    2
    49    46    45    2
    50    37    36    1
    51    37    40    1
    52    26    25    1
    53    26    36   am
    54    45    44    1
    55    91    94    1
    56    91    92    1
    57    25    24    1
    58    41    40    1
    59    61    62    1
    60    61    63    1
    61    40    42    1
    62    24    18   am
    63    92    93    2
    64    49    48    2
    65    44    43    1
    66    44    47    1
    67    48    47    1
    68    48    50   am
    69     7     5    1
    70    18    19    2
    71    18    17    1
    72    22    20    1
    73    15    14    2
    74     6     5    1
    75    17    20    1
    76    17    16    1
    77     5     2    1
    78    20    21    1
    79    14    16   am
    80    14    13    1
    81     2     1    1
    82     2     3    1
    83    21    23    1
    84     4     3    2
    85    13    12    1
    86     9     8    1
    87     9    10    1
    88    11    10    2
