@<TRIPOS>MOLECULE
tmp/5ev1A00.pdb
 73 70 0 0 0
SMALL
GASTEIGER

@<TRIPOS>ATOM
      1  N        -60.3750  -87.3570   -1.3960 N.3    30  GLN30      -0.1245
      2  CA       -60.6850  -88.6640   -1.9790 C.3    30  GLN30       0.1566
      3  C        -61.3590  -89.6040   -0.9690 C.2    30  GLN30       0.2260
      4  O        -62.2740  -90.3480   -1.3260 O.2    30  GLN30      -0.2867
      5  CB       -59.4060  -89.2970   -2.5340 C.3    30  GLN30       0.0367
      6  CG       -58.8030  -88.4860   -3.6590 C.3    30  GLN30       0.0905
      7  CD       -59.8050  -88.3150   -4.7920 C.2    30  GLN30       0.2608
      8  OE1      -60.4790  -89.2770   -5.1780 O.2    30  GLN30      -0.2717
      9  NE2      -59.9460  -87.0910   -5.2930 N.am   30  GLN30      -0.0878
     10  N        -65.0360  -88.1330   -0.6950 N.3    33  LEU33      -0.1231
     11  CA       -65.7430  -88.4320   -1.9420 C.3    33  LEU33       0.1693
     12  C        -65.9210  -89.9170   -2.1440 C.2    33  LEU33       0.2592
     13  O        -66.9500  -90.3430   -2.6680 O.2    33  LEU33      -0.2718
     14  CB       -64.9820  -87.8370   -3.1100 C.3    33  LEU33       0.0284
     15  CG       -64.9840  -86.3100   -3.0580 C.3    33  LEU33       0.0019
     16  CD1      -64.0820  -85.7790   -4.2420 C.3    33  LEU33       0.0001
     17  CD2      -66.3580  -85.7690   -3.2060 C.3    33  LEU33       0.0001
     18  N        -64.9470  -90.7210   -1.7120 N.am   34  GLY34      -0.1957
     19  CA       -65.0460  -92.1540   -1.8080 C.3    34  GLY34       0.1869
     20  C        -65.9050  -92.7880   -0.7430 C.2    34  GLY34       0.2309
     21  O        -66.1210  -93.9950   -0.7670 O.2    34  GLY34      -0.2863
     22  N        -57.0130  -97.6190   -0.7320 N.3    72  PHE72      -0.1241
     23  CA       -56.4460  -96.7550   -1.7500 C.3    72  PHE72       0.1605
     24  C        -55.0560  -97.2080   -2.2390 C.2    72  PHE72       0.2264
     25  O        -54.4410  -96.4970   -3.0370 O.2    72  PHE72      -0.2867
     26  CB       -56.3590  -95.3120   -1.2340 C.3    72  PHE72       0.0534
     27  CG       -57.6630  -94.5300   -1.3290 C.ar   72  PHE72      -0.0203
     28  CD1      -58.7750  -95.0180   -2.0250 C.ar   72  PHE72      -0.0042
     29  CD2      -57.7410  -93.2820   -0.7620 C.ar   72  PHE72      -0.0042
     30  CE1      -59.9390  -94.2900   -2.1070 C.ar   72  PHE72      -0.0003
     31  CE2      -58.9120  -92.5320   -0.8480 C.ar   72  PHE72      -0.0003
     32  CZ       -60.0190  -93.0540   -1.5260 C.ar   72  PHE72      -0.0000
     33  N        -53.9230  -96.1900   -5.8040 N.3    75  ILE75      -0.1231
     34  CA       -54.5480  -94.9850   -6.3460 C.3    75  ILE75       0.1692
     35  C        -53.5090  -94.1480   -7.0840 C.2    75  ILE75       0.2591
     36  O        -52.3490  -94.0580   -6.6740 O.2    75  ILE75      -0.2718
     37  CB       -55.2300  -94.1960   -5.2090 C.3    75  ILE75       0.0266
     38  CG1      -56.1420  -93.1210   -5.7810 C.3    75  ILE75       0.0019
     39  CG2      -54.2300  -93.5190   -4.2320 C.3    75  ILE75       0.0020
     40  CD1      -57.1150  -92.4780   -4.7130 C.3    75  ILE75       0.0001
     41  N        -53.9200  -93.5370   -8.1850 N.am   76  ILE76      -0.1980
     42  CA       -53.0090  -92.7510   -9.0040 C.3    76  ILE76       0.1595
     43  C        -53.0570  -91.3100   -8.5070 C.2    76  ILE76       0.2287
     44  O        -54.1370  -90.7500   -8.3360 O.2    76  ILE76      -0.2864
     45  CB       -53.3890  -92.8330  -10.4890 C.3    76  ILE76       0.0276
     46  CG1      -53.3350  -94.2820  -11.0160 C.3    76  ILE76       0.0022
     47  CG2      -52.4950  -91.9010  -11.2760 C.3    76  ILE76       0.0022
     48  CD1      -51.9560  -94.7820  -11.3660 C.3    76  ILE76       0.0001
     49  N        -62.6240  -99.9910   -3.5710 N.3   104  VAL104     -0.1231
     50  CA       -62.8870  -98.7190   -4.2850 C.3   104  VAL104      0.1678
     51  C        -62.7680  -99.0170   -5.7860 C.2   104  VAL104      0.2434
     52  O        -61.6530  -99.2440   -6.2640 O.2   104  VAL104     -0.2733
     53  CB       -61.9320  -97.6100   -3.8420 C.3   104  VAL104      0.0265
     54  CG1      -62.0960  -96.3730   -4.7080 C.3   104  VAL104      0.0020
     55  CG2      -62.2280  -97.2950   -2.3530 C.3   104  VAL104      0.0020
     56  N        -63.8860  -99.0290   -6.5220 N.am  105  PRO105     -0.2718
     57  CA       -63.8230  -99.3100   -7.9650 C.3   105  PRO105      0.1535
     58  C        -62.7530  -98.4980   -8.6640 C.2   105  PRO105      0.2599
     59  O        -62.6090  -97.2950   -8.4470 O.2   105  PRO105     -0.2715
     60  CB       -65.2250  -98.9250   -8.4530 C.3   105  PRO105      0.0310
     61  CG       -66.1020  -99.2200   -7.2660 C.3   105  PRO105      0.0237
     62  CD       -65.2670  -99.0160   -6.0280 C.3   105  PRO105      0.0939
     63  N        -61.9770  -99.1710   -9.4980 N.am  106  GLY106     -0.1941
     64  CA       -60.9900  -98.4890  -10.2900 C.3   106  GLY106      0.2014
     65  C        -59.6150  -98.4120   -9.6680 C.2   106  GLY106      0.2638
     66  O        -58.6720  -98.0840  -10.3760 O.2   106  GLY106     -0.2714
     67  N        -59.4640  -98.6750   -8.3650 N.am  107  VAL107     -0.1977
     68  CA       -58.1250  -98.7120   -7.7640 C.3   107  VAL107      0.1596
     69  C        -57.5350 -100.1010   -7.9930 C.2   107  VAL107      0.2287
     70  O        -58.1940 -101.1170   -7.7420 O.2   107  VAL107     -0.2864
     71  CB       -58.1560  -98.3480   -6.2650 C.3   107  VAL107      0.0276
     72  CG1      -56.7820  -98.4950   -5.6670 C.3   107  VAL107      0.0022
     73  CG2      -58.6960  -96.8860   -6.0750 C.3   107  VAL107      0.0022
@<TRIPOS>BOND
     1    48    46    1
     2    47    45    1
     3    46    45    1
     4    45    42    1
     5    66    65    2
     6    64    65    1
     7    64    63    1
     8    65    67   am
     9    63    58   am
    10    42    43    1
    11    42    41    1
    12    58    59    2
    13    58    57    1
    14    43    44    2
    15    60    57    1
    16    60    61    1
    17    67    68    1
    18    41    35   am
    19    69    68    1
    20    69    70    2
    21    57    56    1
    22    68    71    1
    23    61    62    1
    24    35    36    2
    25    35    34    1
    26    56    62    1
    27    56    51   am
    28    34    33    1
    29    34    37    1
    30    71    73    1
    31    71    72    1
    32    52    51    2
    33    51    50    1
    34    38    37    1
    35    38    40    1
    36     9     7   am
    37    37    39    1
    38     8     7    2
    39     7     6    1
    40    54    53    1
    41    50    53    1
    42    50    49    1
    43    16    15    1
    44    53    55    1
    45     6     5    1
    46    17    15    1
    47    14    15    1
    48    14    11    1
    49    25    24    2
    50    13    12    2
    51     5     2    1
    52    24    23    1
    53    12    11    1
    54    12    18   am
    55    30    28   ar
    56    30    32   ar
    57    28    27   ar
    58     2     1    1
    59     2     3    1
    60    11    10    1
    61    19    18    1
    62    19    20    1
    63    23    26    1
    64    23    22    1
    65    32    31   ar
    66    27    26    1
    67    27    29   ar
    68     4     3    2
    69    31    29   ar
    70    21    20    2
