@<TRIPOS>MOLECULE
tmp/5ev8C01.pdb
 106 99 0 0 0
SMALL
GASTEIGER

@<TRIPOS>ATOM
      1  N        -10.5450  -33.0880   21.4730 N.3    21  GLU21      -0.1245
      2  CA       -11.3140  -31.8910   21.8190 C.3    21  GLU21       0.1567
      3  C        -11.1150  -30.8040   20.7720 C.2    21  GLU21       0.2260
      4  O        -10.0630  -30.7360   20.1210 O.2    21  GLU21      -0.2867
      5  CB       -10.9230  -31.3680   23.2030 C.3    21  GLU21       0.0388
      6  CG        -9.6270  -30.5370   23.2010 C.3    21  GLU21       0.1160
      7  CD        -9.1450  -30.0970   24.5970 C.2    21  GLU21       0.3649
      8  OE1       -7.9920  -30.4320   24.9630 O.co2  21  GLU21      -0.2457
      9  OE2       -9.9010  -29.4020   25.3160 O.co2  21  GLU21      -0.2457
     10  N        -10.3830  -27.0890   19.9590 N.3    23  VAL23      -0.1245
     11  CA        -9.8410  -25.8990   20.5760 C.3    23  VAL23       0.1561
     12  C        -10.0500  -24.7770   19.5930 C.2    23  VAL23       0.2260
     13  O         -9.6670  -24.8960   18.4280 O.2    23  VAL23      -0.2867
     14  CB        -8.3480  -26.0360   20.9140 C.3    23  VAL23       0.0252
     15  CG1       -7.8510  -24.7660   21.6370 C.3    23  VAL23       0.0019
     16  CG2       -8.1120  -27.2890   21.7480 C.3    23  VAL23       0.0019
     17  N         -7.7370  -31.2980   18.7010 N.3    29  VAL29      -0.1245
     18  CA        -6.4880  -31.5440   19.4130 C.3    29  VAL29       0.1561
     19  C         -6.6000  -32.8330   20.2230 C.2    29  VAL29       0.2260
     20  O         -7.6050  -33.0500   20.9100 O.2    29  VAL29      -0.2867
     21  CB        -6.1110  -30.3520   20.3200 C.3    29  VAL29       0.0252
     22  CG1       -4.7780  -30.6080   21.0460 C.3    29  VAL29       0.0019
     23  CG2       -6.0150  -29.0880   19.4770 C.3    29  VAL29       0.0019
     24  N         -2.5100  -33.2800   36.5220 N.3    75  HIS75      -0.1241
     25  CA        -2.7520  -31.9230   37.0190 C.3    75  HIS75       0.1621
     26  C         -4.2550  -31.6900   37.0350 C.2    75  HIS75       0.2264
     27  O         -5.0030  -32.5770   36.6440 O.2    75  HIS75      -0.2867
     28  CB        -2.0400  -30.8520   36.1730 C.3    75  HIS75       0.0745
     29  CG        -2.5490  -30.7230   34.7630 C.ar   75  HIS75       0.0817
     30  ND1       -2.6510  -31.7950   33.8950 N.ar   75  HIS75      -0.2268
     31  CD2       -2.9650  -29.6320   34.0630 C.ar   75  HIS75       0.1154
     32  CE1       -3.1030  -31.3680   32.7200 C.ar   75  HIS75       0.1986
     33  NE2       -3.3040  -30.0660   32.8020 N.ar   75  HIS75      -0.2212
     34  N         -6.4930  -29.7130   35.4170 N.3    77  HIS77      -0.1241
     35  CA        -7.3470  -29.4820   34.2450 C.3    77  HIS77       0.1621
     36  C         -8.2060  -30.7010   33.9350 C.2    77  HIS77       0.2264
     37  O         -7.8350  -31.8300   34.2800 O.2    77  HIS77      -0.2867
     38  CB        -6.5200  -29.1160   33.0130 C.3    77  HIS77       0.0745
     39  CG        -5.8760  -27.7670   33.0950 C.ar   77  HIS77       0.0817
     40  ND1       -4.7690  -27.4210   32.3540 N.ar   77  HIS77      -0.2268
     41  CD2       -6.1950  -26.6690   33.8310 C.ar   77  HIS77       0.1154
     42  CE1       -4.4350  -26.1690   32.6180 C.ar   77  HIS77       0.1986
     43  NE2       -5.2810  -25.6910   33.5130 N.ar   77  HIS77      -0.2212
     44  N         -8.8990  -32.0680   31.1390 N.3    79  ASP79      -0.1239
     45  CA        -8.1810  -32.9760   30.2550 C.3    79  ASP79       0.1674
     46  C         -7.4470  -34.0890   31.0020 C.2    79  ASP79       0.2266
     47  O         -7.0740  -35.0780   30.4000 O.2    79  ASP79      -0.2867
     48  CB        -7.1890  -32.1960   29.4040 C.3    79  ASP79       0.1410
     49  CG        -7.7970  -31.7290   28.1020 C.2    79  ASP79       0.3668
     50  OD1       -9.0400  -31.8480   27.9630 O.co2  79  ASP79      -0.2456
     51  OD2       -7.0400  -31.2600   27.2160 O.co2  79  ASP79      -0.2456
     52  N          3.3100  -25.8000   33.3440 N.3   137  HIS137     -0.1241
     53  CA         1.9940  -25.6930   32.7160 C.3   137  HIS137      0.1621
     54  C          0.9240  -25.3130   33.7410 C.2   137  HIS137      0.2264
     55  O          0.0250  -24.5230   33.4490 O.2   137  HIS137     -0.2867
     56  CB         1.6330  -27.0140   32.0340 C.3   137  HIS137      0.0745
     57  CG         0.2080  -27.0910   31.5960 C.ar  137  HIS137      0.0817
     58  ND1       -0.2880  -26.3370   30.5500 N.ar  137  HIS137     -0.2268
     59  CD2       -0.8310  -27.8210   32.0600 C.ar  137  HIS137      0.1154
     60  CE1       -1.5660  -26.6180   30.3790 C.ar  137  HIS137      0.1986
     61  NE2       -1.9180  -27.5180   31.2790 N.ar  137  HIS137     -0.2212
     62  N          0.9810  -32.4250   30.2030 N.3   156  CYS156     -0.1235
     63  CA         1.0420  -31.0860   29.5860 C.3   156  CYS156      0.1677
     64  C          2.2740  -30.3050   30.0090 C.2   156  CYS156      0.2270
     65  O          2.4580  -29.1630   29.5900 O.2   156  CYS156     -0.2867
     66  CB        -0.2210  -30.2830   29.9140 C.3   156  CYS156      0.0956
     67  SG        -1.7260  -31.1690   29.4310 S.3   156  CYS156     -0.0801
     68  N          6.2690  -29.9670   26.4340 N.3   159  LYS159     -0.1245
     69  CA         5.7830  -29.0850   25.3800 C.3   159  LYS159      0.1561
     70  C          6.9240  -28.7850   24.4390 C.2   159  LYS159      0.2260
     71  O          7.5060  -27.7080   24.4990 O.2   159  LYS159     -0.2867
     72  CB         5.2130  -27.7970   25.9730 C.3   159  LYS159      0.0271
     73  CG         3.8810  -28.0010   26.6880 C.3   159  LYS159      0.0035
     74  CD         2.7460  -28.2130   25.6670 C.3   159  LYS159      0.0206
     75  CE         1.4520  -28.5720   26.3830 C.3   159  LYS159      0.1093
     76  NZ         1.0750  -27.5370   27.3590 N.3   159  LYS159     -0.1314
     77  N          4.6200  -23.9110   24.2520 N.3   163  LEU163     -0.1231
     78  CA         4.0940  -24.1340   25.5940 C.3   163  LEU163      0.1693
     79  C          2.5750  -24.2860   25.6540 C.2   163  LEU163      0.2593
     80  O          2.0320  -24.7250   26.6820 O.2   163  LEU163     -0.2718
     81  CB         4.5330  -22.9790   26.5170 C.3   163  LEU163      0.0284
     82  CG         6.0480  -22.8520   26.7360 C.3   163  LEU163      0.0019
     83  CD1        6.3770  -21.7010   27.6620 C.3   163  LEU163      0.0001
     84  CD2        6.6230  -24.1760   27.2920 C.3   163  LEU163      0.0001
     85  N          1.8870  -23.9480   24.5620 N.am  164  GLY164     -0.1942
     86  CA         0.4320  -24.0160   24.5490 C.3   164  GLY164      0.2014
     87  C         -0.2260  -22.9480   25.4100 C.2   164  GLY164      0.2638
     88  O          0.2530  -21.8080   25.4830 O.2   164  GLY164     -0.2714
     89  N         -1.3470  -23.2960   26.0340 N.am  165  ASN165     -0.1972
     90  CA        -2.1310  -22.3600   26.8490 C.3   165  ASN165      0.1688
     91  C         -1.4730  -22.0010   28.2020 C.2   165  ASN165      0.2292
     92  O         -1.3800  -22.8450   29.0950 O.2   165  ASN165     -0.2864
     93  CB        -3.5220  -22.9690   27.0670 C.3   165  ASN165      0.1181
     94  CG        -4.5360  -21.9880   27.6360 C.2   165  ASN165      0.2629
     95  OD1       -4.1980  -21.0000   28.2900 O.2   165  ASN165     -0.2716
     96  ND2       -5.8090  -22.2750   27.3900 N.am  165  ASN165     -0.0877
     97  N         -0.2510  -33.5750   24.1090 N.3   195  HIS195     -0.1241
     98  CA        -0.8990  -33.0450   22.9020 C.3   195  HIS195      0.1621
     99  C         -0.0700  -33.1920   21.6060 C.2   195  HIS195      0.2264
    100  O         -0.3540  -32.5400   20.6030 O.2   195  HIS195     -0.2867
    101  CB        -1.2480  -31.5610   23.1120 C.3   195  HIS195      0.0745
    102  CG        -2.1070  -31.2960   24.3160 C.ar  195  HIS195      0.0817
    103  ND1       -3.3560  -31.8530   24.4930 N.ar  195  HIS195     -0.2268
    104  CD2       -1.8910  -30.5170   25.4060 C.ar  195  HIS195      0.1154
    105  CE1       -3.8740  -31.4270   25.6330 C.ar  195  HIS195      0.1986
    106  NE2       -3.0050  -30.6110   26.2020 N.ar  195  HIS195     -0.2212
@<TRIPOS>BOND
     1    13    12    2
     2    17    18    1
     3    18    19    1
     4    18    21    1
     5    23    21    1
     6    12    11    1
     7    10    11    1
     8     4     3    2
     9    19    20    2
    10    21    22    1
    11    11    14    1
    12   100    99    2
    13     3     2    1
    14    14    15    1
    15    14    16    1
    16     1     2    1
    17    99    98    1
    18     2     5    1
    19    98   101    1
    20    98    97    1
    21   101   102    1
    22     6     5    1
    23     6     7    1
    24    77    78    1
    25   102   103   ar
    26   102   104   ar
    27    70    71    2
    28    70    69    1
    29   103   105   ar
    30    86    85    1
    31    86    87    1
    32    85    79   am
    33     7     8   ar
    34     7     9   ar
    35    69    72    1
    36    69    68    1
    37   104   106   ar
    38    87    88    2
    39    87    89   am
    40    78    79    1
    41    78    81    1
    42   105   106   ar
    43    79    80    2
    44    74    75    1
    45    74    73    1
    46    72    73    1
    47    89    90    1
    48    75    76    1
    49    81    82    1
    50    82    84    1
    51    82    83    1
    52    90    93    1
    53    90    91    1
    54    93    94    1
    55    51    49   ar
    56    96    94   am
    57    94    95    2
    58    50    49   ar
    59    49    48    1
    60    91    92    2
    61    48    45    1
    62    67    66    1
    63    63    66    1
    64    63    64    1
    65    63    62    1
    66    65    64    2
    67    45    46    1
    68    45    44    1
    69    60    58   ar
    70    60    61   ar
    71    47    46    2
    72    58    57   ar
    73    61    59   ar
    74    57    56    1
    75    57    59   ar
    76    56    53    1
    77    40    42   ar
    78    40    39   ar
    79    42    43   ar
    80    53    52    1
    81    53    54    1
    82    32    33   ar
    83    32    30   ar
    84    33    31   ar
    85    38    39    1
    86    38    35    1
    87    39    41   ar
    88    55    54    2
    89    43    41   ar
    90    30    29   ar
    91    36    35    1
    92    36    37    2
    93    31    29   ar
    94    35    34    1
    95    29    28    1
    96    28    25    1
    97    24    25    1
    98    27    26    2
    99    25    26    1
