@<TRIPOS>MOLECULE
tmp/5ev9A00.pdb
 98 96 0 0 0
SMALL
GASTEIGER

@<TRIPOS>ATOM
      1  N        -15.7000   12.8740   68.6130 N.3    25  ILE25      -0.1231
      2  CA       -14.2980   12.7810   68.2340 C.3    25  ILE25       0.1692
      3  C        -13.6380   14.1450   68.3200 C.2    25  ILE25       0.2592
      4  O        -12.4320   14.2460   68.5760 O.2    25  ILE25      -0.2718
      5  CB       -14.1980   12.1700   66.8240 C.3    25  ILE25       0.0266
      6  CG1      -14.7690   10.7580   66.8420 C.3    25  ILE25       0.0019
      7  CG2      -12.7700   12.1570   66.3190 C.3    25  ILE25       0.0020
      8  CD1      -14.6930   10.0560   65.5260 C.3    25  ILE25       0.0001
      9  N        -14.4170   15.2120   68.1410 N.am   26  PHE26      -0.1976
     10  CA       -13.8710   16.5560   68.0190 C.3    26  PHE26       0.1639
     11  C        -14.3100   17.4770   69.1490 C.2    26  PHE26       0.2290
     12  O        -14.0930   18.6880   69.0630 O.2    26  PHE26      -0.2864
     13  CB       -14.2700   17.1340   66.6590 C.3    26  PHE26       0.0560
     14  CG       -13.9300   16.2380   65.4980 C.ar   26  PHE26      -0.0200
     15  CD1      -12.6080   16.0510   65.1140 C.ar   26  PHE26      -0.0042
     16  CD2      -14.9260   15.5750   64.7970 C.ar   26  PHE26      -0.0042
     17  CE1      -12.2890   15.2410   64.0530 C.ar   26  PHE26      -0.0003
     18  CE2      -14.6110   14.7440   63.7360 C.ar   26  PHE26      -0.0003
     19  CZ       -13.2870   14.5720   63.3620 C.ar   26  PHE26      -0.0000
     20  N         -7.3210   16.9590   71.0440 N.3    30  VAL30      -0.1231
     21  CA        -6.6780   15.6560   70.9070 C.3    30  VAL30       0.1678
     22  C         -5.7660   15.4740   72.1130 C.2    30  VAL30       0.2434
     23  O         -4.8750   16.3050   72.3360 O.2    30  VAL30      -0.2733
     24  CB        -5.9020   15.5530   69.5860 C.3    30  VAL30       0.0265
     25  CG1       -5.1530   14.2300   69.5170 C.3    30  VAL30       0.0020
     26  CG2       -6.8550   15.6850   68.4040 C.3    30  VAL30       0.0020
     27  N         -5.9650   14.4310   72.9250 N.am   31  PRO31      -0.2729
     28  CA        -5.1450   14.2660   74.1360 C.3    31  PRO31       0.1401
     29  C         -3.6780   14.0140   73.8220 C.2    31  PRO31       0.2269
     30  O         -3.3100   12.9220   73.3810 O.2    31  PRO31      -0.2865
     31  CB        -5.7890   13.0640   74.8410 C.3    31  PRO31       0.0296
     32  CG        -6.4890   12.3150   73.7600 C.3    31  PRO31       0.0237
     33  CD        -6.9550   13.3520   72.7710 C.3    31  PRO31       0.0939
     34  N         -2.0090   10.7560   74.9950 N.3    34  GLU34      -0.1231
     35  CA        -2.2430    9.5110   74.2750 C.3    34  GLU34       0.1699
     36  C         -1.7850    9.5720   72.8280 C.2    34  GLU34       0.2592
     37  O         -1.6310    8.5210   72.1940 O.2    34  GLU34      -0.2718
     38  CB        -3.7260    9.1440   74.3280 C.3    34  GLU34       0.0402
     39  CG        -4.3660    9.4510   75.6660 C.3    34  GLU34       0.1161
     40  CD        -5.6680    8.7130   75.8720 C.2    34  GLU34       0.3649
     41  OE1       -6.1090    8.6120   77.0360 O.co2  34  GLU34      -0.2457
     42  OE2       -6.2440    8.2290   74.8740 O.co2  34  GLU34      -0.2457
     43  N         -1.5730   10.7700   72.2960 N.am   35  VAL35      -0.1980
     44  CA        -1.0360   10.9610   70.9530 C.3    35  VAL35       0.1595
     45  C          0.2250   11.8060   71.0980 C.2    35  VAL35       0.2287
     46  O          0.2030   13.0100   70.8010 O.2    35  VAL35      -0.2864
     47  CB        -2.0750   11.6170   70.0300 C.3    35  VAL35       0.0276
     48  CG1       -1.6390   11.5180   68.5900 C.3    35  VAL35       0.0022
     49  CG2       -3.4370   10.9620   70.2150 C.3    35  VAL35       0.0022
     50  N          1.5220   14.0730   68.1710 N.3    38  TYR38      -0.1241
     51  CA         0.5090   14.8540   67.4630 C.3    38  TYR38       0.1605
     52  C          1.0380   16.2260   67.0650 C.2    38  TYR38       0.2264
     53  O          0.9200   16.6380   65.9050 O.2    38  TYR38      -0.2867
     54  CB        -0.7440   14.9960   68.3220 C.3    38  TYR38       0.0534
     55  CG        -1.9220   15.5730   67.5630 C.ar   38  TYR38      -0.0201
     56  CD1       -2.6140   14.8020   66.6370 C.ar   38  TYR38      -0.0009
     57  CD2       -2.3440   16.8820   67.7700 C.ar   38  TYR38      -0.0009
     58  CE1       -3.6900   15.3190   65.9380 C.ar   38  TYR38       0.0417
     59  CE2       -3.4300   17.4090   67.0710 C.ar   38  TYR38       0.0417
     60  CZ        -4.0930   16.6200   66.1550 C.ar   38  TYR38       0.1957
     61  OH        -5.1780   17.1270   65.4560 O.3    38  TYR38      -0.2866
     62  N         -7.4410   16.4360   61.1700 N.3    77  CYS77      -0.1235
     63  CA        -7.7830   15.0290   61.3110 C.3    77  CYS77       0.1677
     64  C         -7.5090   14.2580   60.0210 C.2    77  CYS77       0.2270
     65  O         -7.0220   13.1160   60.0590 O.2    77  CYS77      -0.2867
     66  CB        -9.2460   14.9400   61.7370 C.3    77  CYS77       0.0956
     67  SG        -9.8080   13.3040   62.1920 S.3    77  CYS77      -0.0801
     68  N         -3.5690   13.9440   60.0180 N.3    80  TYR80      -0.1227
     69  CA        -2.8810   13.0970   60.9870 C.3    80  TYR80       0.1736
     70  C         -3.1980   11.6200   60.7950 C.2    80  TYR80       0.2595
     71  O         -2.3350   10.7650   61.0250 O.2    80  TYR80      -0.2718
     72  CB        -3.1830   13.5300   62.4230 C.3    80  TYR80       0.0548
     73  CG        -2.4360   12.6830   63.4140 C.ar   80  TYR80      -0.0200
     74  CD1       -1.0840   12.8960   63.6430 C.ar   80  TYR80      -0.0009
     75  CD2       -3.0560   11.6300   64.0790 C.ar   80  TYR80      -0.0009
     76  CE1       -0.3730   12.1060   64.5270 C.ar   80  TYR80       0.0417
     77  CE2       -2.3520   10.8350   64.9680 C.ar   80  TYR80       0.0417
     78  CZ        -1.0110   11.0800   65.1850 C.ar   80  TYR80       0.1957
     79  OH        -0.3100   10.2900   66.0700 O.3    80  TYR80      -0.2866
     80  N         -4.4100   11.2930   60.3580 N.am   81  ASN81      -0.1974
     81  CA        -4.9000    9.9210   60.3960 C.3    81  ASN81       0.1688
     82  C         -4.9000    9.2960   59.0070 C.2    81  ASN81       0.2292
     83  O         -5.1780    9.9760   58.0150 O.2    81  ASN81      -0.2864
     84  CB        -6.3040    9.8930   61.0020 C.3    81  ASN81       0.1181
     85  CG        -6.3200   10.4030   62.4290 C.2    81  ASN81       0.2629
     86  OD1       -5.9140    9.6960   63.3510 O.2    81  ASN81      -0.2716
     87  ND2       -6.7990   11.6270   62.6210 N.am   81  ASN81      -0.0877
     88  N        -11.1730    7.6920   62.3660 N.3    87  PHE87      -0.1241
     89  CA       -10.9150    9.1200   62.5370 C.3    87  PHE87       0.1605
     90  C        -10.9530    9.8540   61.2000 C.2    87  PHE87       0.2264
     91  O        -11.5810   10.9130   61.0770 O.2    87  PHE87      -0.2867
     92  CB        -9.5640    9.3500   63.2290 C.3    87  PHE87       0.0534
     93  CG        -9.5580    9.0080   64.6910 C.ar   87  PHE87      -0.0203
     94  CD1      -10.4210    9.6350   65.5710 C.ar   87  PHE87      -0.0042
     95  CD2       -8.6740    8.0690   65.1870 C.ar   87  PHE87      -0.0042
     96  CE1      -10.4080    9.3260   66.9180 C.ar   87  PHE87      -0.0003
     97  CE2       -8.6520    7.7570   66.5300 C.ar   87  PHE87      -0.0003
     98  CZ        -9.5230    8.3810   67.3970 C.ar   87  PHE87      -0.0000
@<TRIPOS>BOND
     1    83    82    2
     2    82    81    1
     3    68    69    1
     4    64    65    2
     5    64    63    1
     6    80    81    1
     7    80    70   am
     8    81    84    1
     9    70    69    1
    10    70    71    2
    11    69    72    1
    12    84    85    1
    13    91    90    2
    14    62    63    1
    15    90    89    1
    16    63    66    1
    17    66    67    1
    18    88    89    1
    19    72    73    1
    20    85    87   am
    21    85    86    2
    22    89    92    1
    23    92    93    1
    24    19    18   ar
    25    19    17   ar
    26    73    74   ar
    27    73    75   ar
    28    74    76   ar
    29    18    16   ar
    30    17    15   ar
    31    75    77   ar
    32    76    78   ar
    33    93    95   ar
    34    93    94   ar
    35    16    14   ar
    36    77    78   ar
    37    15    14   ar
    38    78    79    1
    39    95    97   ar
    40    61    60    1
    41    14    13    1
    42     8     6    1
    43    94    96   ar
    44    53    52    2
    45    58    60   ar
    46    58    56   ar
    47    60    59   ar
    48     7     5    1
    49    97    98   ar
    50    56    55   ar
    51    13    10    1
    52     5     6    1
    53     5     2    1
    54    96    98   ar
    55    52    51    1
    56    59    57   ar
    57    51    50    1
    58    51    54    1
    59    55    57   ar
    60    55    54    1
    61    10     9    1
    62    10    11    1
    63     9     3   am
    64     2     3    1
    65     2     1    1
    66     3     4    2
    67    26    24    1
    68    48    47    1
    69    12    11    2
    70    25    24    1
    71    24    21    1
    72    47    49    1
    73    47    44    1
    74    46    45    2
    75    21    20    1
    76    21    22    1
    77    44    45    1
    78    44    43    1
    79    22    23    2
    80    22    27   am
    81    37    36    2
    82    43    36   am
    83    33    27    1
    84    33    32    1
    85    36    35    1
    86    27    28    1
    87    30    29    2
    88    32    31    1
    89    29    28    1
    90    28    31    1
    91    35    38    1
    92    35    34    1
    93    38    39    1
    94    42    40   ar
    95    39    40    1
    96    40    41   ar
