@<TRIPOS>MOLECULE
tmp/5evaA00.pdb
 105 104 0 0 0
SMALL
GASTEIGER

@<TRIPOS>ATOM
      1  N         15.2940  -12.7210    5.3370 N.3    26  ILE26      -0.1231
      2  CA        13.8480  -12.6350    5.1500 C.3    26  ILE26       0.1692
      3  C         13.2080  -14.0050    5.0450 C.2    26  ILE26       0.2592
      4  O         11.9900  -14.1200    5.2300 O.2    26  ILE26      -0.2718
      5  CB        13.4110  -11.6390    4.0590 C.3    26  ILE26       0.0266
      6  CG1       13.6390  -12.2030    2.6740 C.3    26  ILE26       0.0019
      7  CG2       14.1750  -10.3340    4.1930 C.3    26  ILE26       0.0020
      8  CD1       12.9840  -11.3730    1.6000 C.3    26  ILE26       0.0001
      9  N         14.0000  -15.0470    4.7950 N.am   27  PHE27      -0.1976
     10  CA        13.4950  -16.4070    4.6420 C.3    27  PHE27       0.1639
     11  C         13.9400  -17.3230    5.7720 C.2    27  PHE27       0.2290
     12  O         13.7550  -18.5440    5.6780 O.2    27  PHE27      -0.2864
     13  CB        13.9550  -16.9690    3.2990 C.3    27  PHE27       0.0560
     14  CG        13.6300  -16.0750    2.1310 C.ar   27  PHE27      -0.0200
     15  CD1       12.3170  -15.8380    1.7660 C.ar   27  PHE27      -0.0042
     16  CD2       14.6430  -15.4780    1.3990 C.ar   27  PHE27      -0.0042
     17  CE1       12.0190  -15.0220    0.6950 C.ar   27  PHE27      -0.0003
     18  CE2       14.3550  -14.6400    0.3280 C.ar   27  PHE27      -0.0003
     19  CZ        13.0370  -14.4160   -0.0260 C.ar   27  PHE27      -0.0000
     20  N          9.3800  -18.6550    9.4060 N.3    30  PRO30      -0.2102
     21  CA         8.1010  -18.5320    8.6990 C.3    30  PRO30       0.1504
     22  C          7.6600  -17.0810    8.6080 C.2    30  PRO30       0.2576
     23  O          7.9100  -16.2740    9.5080 O.2    30  PRO30      -0.2718
     24  CB         7.1320  -19.3370    9.5740 C.3    30  PRO30       0.0282
     25  CG         7.9920  -20.3310   10.2650 C.3    30  PRO30       0.0208
     26  CD         9.3080  -19.6390   10.5040 C.3    30  PRO30       0.0893
     27  N          7.0170  -16.7520    7.4920 N.am   31  VAL31      -0.1967
     28  CA         6.3750  -15.4370    7.3970 C.3    31  VAL31       0.1712
     29  C          5.4110  -15.2830    8.5650 C.2    31  VAL31       0.2458
     30  O          4.5730  -16.1770    8.7920 O.2    31  VAL31      -0.2730
     31  CB         5.6380  -15.3010    6.0550 C.3    31  VAL31       0.0289
     32  CG1        4.8820  -13.9810    5.9860 C.3    31  VAL31       0.0023
     33  CG2        6.6240  -15.4120    4.8980 C.3    31  VAL31       0.0023
     34  N          5.5130  -14.2110    9.3650 N.am   32  PRO32      -0.2727
     35  CA         4.6500  -14.0760   10.5500 C.3    32  PRO32       0.1402
     36  C          3.1890  -13.8830   10.1850 C.2    32  PRO32       0.2269
     37  O          2.7970  -12.8060    9.7260 O.2    32  PRO32      -0.2865
     38  CB         5.2050  -12.8300   11.2580 C.3    32  PRO32       0.0296
     39  CG         6.5480  -12.5850   10.6590 C.3    32  PRO32       0.0237
     40  CD         6.4820  -13.1090    9.2580 C.3    32  PRO32       0.0939
     41  N          1.5990  -10.8280   11.4910 N.3    35  GLU35      -0.1231
     42  CA         1.9780   -9.5760   10.8540 C.3    35  GLU35       0.1699
     43  C          1.5210   -9.4900    9.4060 C.2    35  GLU35       0.2592
     44  O          1.3890   -8.3800    8.8730 O.2    35  GLU35      -0.2718
     45  CB         3.4970   -9.3950   10.9150 C.3    35  GLU35       0.0402
     46  CG         3.9360   -7.9700   11.1810 C.3    35  GLU35       0.1161
     47  CD         4.8060   -7.8570   12.4170 C.2    35  GLU35       0.3649
     48  OE1        5.5750   -8.8040   12.6910 O.co2  35  GLU35      -0.2457
     49  OE2        4.7150   -6.8250   13.1170 O.co2  35  GLU35      -0.2457
     50  N          1.2820  -10.6290    8.7650 N.am   36  VAL36      -0.1980
     51  CA         0.7850  -10.6850    7.3940 C.3    36  VAL36       0.1595
     52  C         -0.4900  -11.5190    7.4210 C.2    36  VAL36       0.2287
     53  O         -0.4670  -12.7030    7.0540 O.2    36  VAL36      -0.2864
     54  CB         1.8340  -11.2940    6.4520 C.3    36  VAL36       0.0276
     55  CG1        1.4370  -11.0640    5.0110 C.3    36  VAL36       0.0022
     56  CG2        3.2100  -10.7050    6.7350 C.3    36  VAL36       0.0022
     57  N         -1.7650  -13.8310    4.4000 N.3    39  TYR39      -0.1241
     58  CA        -0.7470  -14.6050    3.6930 C.3    39  TYR39       0.1605
     59  C         -1.2970  -15.9310    3.1790 C.2    39  TYR39       0.2264
     60  O         -1.0070  -16.3330    2.0470 O.2    39  TYR39      -0.2867
     61  CB         0.4610  -14.8290    4.6010 C.3    39  TYR39       0.0534
     62  CG         1.6630  -15.4030    3.8800 C.ar   39  TYR39      -0.0201
     63  CD1        2.3200  -14.6670    2.9010 C.ar   39  TYR39      -0.0009
     64  CD2        2.1450  -16.6710    4.1800 C.ar   39  TYR39      -0.0009
     65  CE1        3.4170  -15.1820    2.2340 C.ar   39  TYR39       0.0417
     66  CE2        3.2480  -17.1920    3.5220 C.ar   39  TYR39       0.0417
     67  CZ         3.8760  -16.4380    2.5480 C.ar   39  TYR39       0.1957
     68  OH         4.9730  -16.9330    1.8740 O.3    39  TYR39      -0.2866
     69  N          7.3420  -16.3130   -2.3210 N.3    78  CYS78      -0.1235
     70  CA         7.7120  -14.9100   -2.1970 C.3    78  CYS78       0.1677
     71  C          7.4220  -14.1460   -3.4890 C.2    78  CYS78       0.2270
     72  O          6.9430  -13.0010   -3.4510 O.2    78  CYS78      -0.2867
     73  CB         9.1880  -14.8190   -1.7970 C.3    78  CYS78       0.0956
     74  SG         9.7430  -13.1730   -1.4010 S.3    78  CYS78      -0.0801
     75  N          3.4740  -13.8050   -3.5770 N.3    81  TYR81      -0.1227
     76  CA         2.7880  -12.9260   -2.6370 C.3    81  TYR81       0.1736
     77  C          3.1300  -11.4590   -2.8520 C.2    81  TYR81       0.2595
     78  O          2.2550  -10.5960   -2.7230 O.2    81  TYR81      -0.2718
     79  CB         3.0770  -13.3270   -1.1900 C.3    81  TYR81       0.0548
     80  CG         2.3400  -12.4430   -0.2230 C.ar   81  TYR81      -0.0200
     81  CD1        0.9990  -12.6600    0.0570 C.ar   81  TYR81      -0.0009
     82  CD2        2.9650  -11.3570    0.3620 C.ar   81  TYR81      -0.0009
     83  CE1        0.3130  -11.8420    0.9210 C.ar   81  TYR81       0.0417
     84  CE2        2.2870  -10.5270    1.2300 C.ar   81  TYR81       0.0417
     85  CZ         0.9590  -10.7760    1.5060 C.ar   81  TYR81       0.1957
     86  OH         0.2690   -9.9450    2.3650 O.3    81  TYR81      -0.2866
     87  N          4.3850  -11.1490   -3.1570 N.am   82  ASN82      -0.1974
     88  CA         4.8780   -9.7810   -3.1200 C.3    82  ASN82       0.1688
     89  C          4.8470   -9.1460   -4.5020 C.2    82  ASN82       0.2292
     90  O          5.0780   -9.8200   -5.5100 O.2    82  ASN82      -0.2864
     91  CB         6.2990   -9.7560   -2.5630 C.3    82  ASN82       0.1181
     92  CG         6.3620  -10.2400   -1.1350 C.2    82  ASN82       0.2629
     93  OD1        5.9520   -9.5330   -0.2200 O.2    82  ASN82      -0.2716
     94  ND2        6.8530  -11.4540   -0.9330 N.am   82  ASN82      -0.0877
     95  N         11.2550   -7.5300   -1.1820 N.3    88  PHE88      -0.1241
     96  CA        10.9890   -8.9490   -0.9650 C.3    88  PHE88       0.1605
     97  C         10.9630   -9.7170   -2.2850 C.2    88  PHE88       0.2264
     98  O         11.5370  -10.8070   -2.3980 O.2    88  PHE88      -0.2867
     99  CB         9.6460   -9.1360   -0.2470 C.3    88  PHE88       0.0534
    100  CG         9.6560   -8.7430    1.1990 C.ar   88  PHE88      -0.0203
    101  CD1       10.8430   -8.6240    1.9130 C.ar   88  PHE88      -0.0042
    102  CD2        8.4620   -8.4850    1.8480 C.ar   88  PHE88      -0.0042
    103  CE1       10.8290   -8.2700    3.2460 C.ar   88  PHE88      -0.0003
    104  CE2        8.4440   -8.1120    3.1820 C.ar   88  PHE88      -0.0003
    105  CZ         9.6280   -8.0120    3.8800 C.ar   88  PHE88      -0.0000
@<TRIPOS>BOND
     1    90    89    2
     2    89    88    1
     3    75    76    1
     4    71    72    2
     5    71    70    1
     6    87    88    1
     7    87    77   am
     8    88    91    1
     9    77    78    2
    10    77    76    1
    11    76    79    1
    12    91    92    1
    13    98    97    2
    14    69    70    1
    15    97    96    1
    16    70    73    1
    17    73    74    1
    18    79    80    1
    19    95    96    1
    20    92    94   am
    21    92    93    2
    22    96    99    1
    23    99   100    1
    24    80    81   ar
    25    80    82   ar
    26    19    18   ar
    27    19    17   ar
    28    81    83   ar
    29    18    16   ar
    30    82    84   ar
    31    17    15   ar
    32    83    85   ar
    33   100   102   ar
    34   100   101   ar
    35    84    85   ar
    36    16    14   ar
    37    85    86    1
    38     8     6    1
    39    15    14   ar
    40   102   104   ar
    41    68    67    1
    42   101   103   ar
    43    60    59    2
    44    14    13    1
    45    65    67   ar
    46    65    63   ar
    47    67    66   ar
    48     6     5    1
    49    63    62   ar
    50    59    58    1
    51   104   105   ar
    52   103   105   ar
    53    13    10    1
    54    66    64   ar
    55    58    57    1
    56    58    61    1
    57    62    64   ar
    58    62    61    1
    59     5     7    1
    60     5     2    1
    61    10     9    1
    62    10    11    1
    63     9     3   am
    64    33    31    1
    65    55    54    1
    66     3     2    1
    67     3     4    2
    68     2     1    1
    69    12    11    2
    70    32    31    1
    71    31    28    1
    72    54    56    1
    73    54    51    1
    74    53    52    2
    75    51    52    1
    76    51    50    1
    77    28    27    1
    78    28    29    1
    79    27    22   am
    80    29    30    2
    81    29    34   am
    82    22    21    1
    83    22    23    2
    84    21    20    1
    85    21    24    1
    86    50    43   am
    87    44    43    2
    88    40    34    1
    89    40    39    1
    90    34    35    1
    91    20    26    1
    92    43    42    1
    93    24    25    1
    94    37    36    2
    95    36    35    1
    96    25    26    1
    97    35    38    1
    98    39    38    1
    99    42    45    1
   100    42    41    1
   101    45    46    1
   102    46    47    1
   103    47    48   ar
   104    47    49   ar
