@<TRIPOS>MOLECULE
tmp/5evbA00.pdb
 122 120 0 0 0
SMALL
GASTEIGER

@<TRIPOS>ATOM
      1  N        -15.0910   23.8370  -12.2430 N.3    10  TYR10      -0.1241
      2  CA       -15.5610   23.6440  -10.8840 C.3    10  TYR10       0.1605
      3  C        -16.2230   22.2680  -10.7870 C.2    10  TYR10       0.2264
      4  O        -17.3590   22.0770  -11.2370 O.2    10  TYR10      -0.2867
      5  CB       -16.5350   24.7590  -10.5110 C.3    10  TYR10       0.0534
      6  CG       -17.1720   24.6290   -9.1470 C.ar   10  TYR10      -0.0201
      7  CD1      -18.5390   24.8260   -8.9850 C.ar   10  TYR10      -0.0009
      8  CD2      -16.4140   24.3250   -8.0240 C.ar   10  TYR10      -0.0009
      9  CE1      -19.1390   24.7250   -7.7470 C.ar   10  TYR10       0.0417
     10  CE2      -17.0080   24.2220   -6.7730 C.ar   10  TYR10       0.0417
     11  CZ       -18.3730   24.4220   -6.6470 C.ar   10  TYR10       0.1957
     12  OH       -18.9850   24.3250   -5.4220 O.3    10  TYR10      -0.2866
     13  N        -23.6550   15.4220   -5.3130 N.3    16  TRP16      -0.1241
     14  CA       -24.1980   16.7550   -5.5640 C.3    16  TRP16       0.1605
     15  C        -24.8820   16.8130   -6.9160 C.2    16  TRP16       0.2264
     16  O        -25.6880   17.7110   -7.1800 O.2    16  TRP16      -0.2867
     17  CB       -23.1060   17.8300   -5.5360 C.3    16  TRP16       0.0550
     18  CG       -22.4370   18.0720   -4.2210 C.ar   16  TRP16       0.0003
     19  CD1      -22.3510   17.2200   -3.1580 C.ar   16  TRP16       0.0946
     20  CD2      -21.7490   19.2670   -3.8410 C.ar   16  TRP16       0.0152
     21  NE1      -21.6300   17.8110   -2.1370 N.ar   16  TRP16      -0.2442
     22  CE2      -21.2560   19.0700   -2.5350 C.ar   16  TRP16       0.0810
     23  CE3      -21.4930   20.4840   -4.4890 C.ar   16  TRP16       0.0012
     24  CZ2      -20.5220   20.0500   -1.8570 C.ar   16  TRP16       0.0191
     25  CZ3      -20.7580   21.4560   -3.8140 C.ar   16  TRP16       0.0001
     26  CH2      -20.2850   21.2310   -2.5140 C.ar   16  TRP16       0.0015
     27  N        -27.8630   31.8870   -1.5800 N.3    83  HIS83      -0.1241
     28  CA       -26.7750   32.7790   -1.9840 C.3    83  HIS83       0.1621
     29  C        -26.3090   32.4730   -3.4060 C.2    83  HIS83       0.2264
     30  O        -26.5760   31.4020   -3.9350 O.2    83  HIS83      -0.2867
     31  CB       -25.5960   32.7090   -0.9930 C.3    83  HIS83       0.0745
     32  CG       -24.8460   31.4120   -1.0050 C.ar   83  HIS83       0.0817
     33  ND1      -25.2620   30.3050   -0.2950 N.ar   83  HIS83      -0.2268
     34  CD2      -23.6700   31.0670   -1.5850 C.ar   83  HIS83       0.1154
     35  CE1      -24.3900   29.3240   -0.4600 C.ar   83  HIS83       0.1986
     36  NE2      -23.4140   29.7590   -1.2390 N.ar   83  HIS83      -0.2212
     37  N        -23.7320   31.5750   -5.1890 N.3    85  HIS85      -0.1241
     38  CA       -22.6060   30.7440   -5.6260 C.3    85  HIS85       0.1621
     39  C        -23.0540   29.7410   -6.6870 C.2    85  HIS85       0.2264
     40  O        -24.2410   29.4100   -6.7840 O.2    85  HIS85      -0.2867
     41  CB       -21.9770   30.0000   -4.4340 C.3    85  HIS85       0.0745
     42  CG       -21.0020   30.8330   -3.6640 C.ar   85  HIS85       0.0817
     43  ND1      -20.6050   30.5200   -2.3780 N.ar   85  HIS85      -0.2268
     44  CD2      -20.3380   31.9670   -4.0000 C.ar   85  HIS85       0.1154
     45  CE1      -19.7360   31.4250   -1.9570 C.ar   85  HIS85       0.1986
     46  NE2      -19.5570   32.3150   -2.9210 N.ar   85  HIS85      -0.2212
     47  N        -23.0070   26.6340   -7.0050 N.3    87  ASP87      -0.1225
     48  CA       -23.6800   25.3800   -6.6870 C.3    87  ASP87       0.1805
     49  C        -25.0850   25.5840   -6.1350 C.2    87  ASP87       0.2597
     50  O        -25.7430   24.6120   -5.7710 O.2    87  ASP87      -0.2718
     51  CB       -22.8500   24.5330   -5.7300 C.3    87  ASP87       0.1424
     52  CG       -22.4800   25.2490   -4.4620 C.2    87  ASP87       0.3668
     53  OD1      -22.3800   26.4980   -4.4700 O.co2  87  ASP87      -0.2456
     54  OD2      -22.2510   24.5430   -3.4560 O.co2  87  ASP87      -0.2456
     55  N        -25.5630   26.8300   -6.1330 N.am   88  HIS88      -0.1975
     56  CA       -26.9380   27.0970   -5.7260 C.3    88  HIS88       0.1656
     57  C        -27.6910   27.9740   -6.7320 C.2    88  HIS88       0.2291
     58  O        -28.9070   27.8080   -6.9010 O.2    88  HIS88      -0.2864
     59  CB       -26.9440   27.7120   -4.3150 C.3    88  HIS88       0.0771
     60  CG       -26.1450   26.9170   -3.3340 C.ar   88  HIS88       0.0820
     61  ND1      -26.5560   25.6890   -2.8550 N.ar   88  HIS88      -0.2267
     62  CD2      -24.9320   27.1490   -2.7800 C.ar   88  HIS88       0.1154
     63  CE1      -25.6330   25.2050   -2.0440 C.ar   88  HIS88       0.1986
     64  NE2      -24.6400   26.0760   -1.9740 N.ar   88  HIS88      -0.2212
     65  N        -12.9610   33.4560   -3.5150 N.3   123  PHE123     -0.1241
     66  CA       -12.5820   32.4340   -4.4950 C.3   123  PHE123      0.1605
     67  C        -12.1640   32.9780   -5.8580 C.2   123  PHE123      0.2264
     68  O        -11.9100   32.2000   -6.7830 O.2   123  PHE123     -0.2867
     69  CB       -13.7370   31.4410   -4.6630 C.3   123  PHE123      0.0534
     70  CG       -13.9900   30.6400   -3.4270 C.ar  123  PHE123     -0.0203
     71  CD1      -13.0040   29.8040   -2.9280 C.ar  123  PHE123     -0.0042
     72  CD2      -15.1790   30.7500   -2.7360 C.ar  123  PHE123     -0.0042
     73  CE1      -13.2090   29.0700   -1.7720 C.ar  123  PHE123     -0.0003
     74  CE2      -15.3860   30.0210   -1.5720 C.ar  123  PHE123     -0.0003
     75  CZ       -14.4060   29.1780   -1.0970 C.ar  123  PHE123     -0.0000
     76  N        -15.0080   29.9700   -9.4690 N.3   127  ILE127     -0.1245
     77  CA       -16.3380   29.3740   -9.4210 C.3   127  ILE127      0.1561
     78  C        -17.3690   30.2090  -10.1770 C.2   127  ILE127      0.2260
     79  O        -18.4000   30.5860   -9.6340 O.2   127  ILE127     -0.2867
     80  CB       -16.8090   29.1790   -7.9640 C.3   127  ILE127      0.0252
     81  CG1      -16.5880   30.4620   -7.1530 C.3   127  ILE127      0.0019
     82  CG2      -16.0550   28.0460   -7.3080 C.3   127  ILE127      0.0019
     83  CD1      -17.1970   30.4280   -5.7640 C.3   127  ILE127      0.0001
     84  N        -21.3360   33.9570    4.7470 N.3   159  HIS159     -0.1241
     85  CA       -20.8810   33.0450    3.7110 C.3   159  HIS159      0.1621
     86  C        -20.7490   33.7660    2.3630 C.2   159  HIS159      0.2264
     87  O        -19.7620   33.5850    1.6450 O.2   159  HIS159     -0.2867
     88  CB       -21.8190   31.8390    3.6070 C.3   159  HIS159      0.0745
     89  CG       -21.3660   30.8360    2.5990 C.ar  159  HIS159      0.0817
     90  ND1      -20.4160   29.8830    2.8800 N.ar  159  HIS159     -0.2268
     91  CD2      -21.6980   30.6640    1.2970 C.ar  159  HIS159      0.1154
     92  CE1      -20.1870   29.1570    1.8010 C.ar  159  HIS159      0.1986
     93  NE2      -20.9460   29.6170    0.8260 N.ar  159  HIS159     -0.2212
     94  N        -26.1320   28.7800    4.1080 N.3   184  SER184     -0.1217
     95  CA       -24.8690   28.2970    4.6540 C.3   184  SER184      0.1889
     96  C        -24.2820   29.2350    5.6940 C.2   184  SER184      0.2288
     97  O        -24.3380   30.4570    5.5410 O.2   184  SER184     -0.2866
     98  CB       -23.8500   28.1120    3.5240 C.3   184  SER184      0.2089
     99  OG       -24.3790   27.2490    2.5220 O.3   184  SER184     -0.2183
    100  N        -21.0830   28.3700    6.7560 N.3   186  SER186     -0.1217
    101  CA       -19.6930   27.9400    6.6430 C.3   186  SER186      0.1889
    102  C        -18.8100   29.0720    6.1370 C.2   186  SER186      0.2288
    103  O        -19.2930   30.0480    5.5540 O.2   186  SER186     -0.2866
    104  CB       -19.5770   26.7440    5.7010 C.3   186  SER186      0.2089
    105  OG       -19.8770   27.1410    4.3690 O.3   186  SER186     -0.2183
    106  N        -15.5750   28.2870    4.1850 N.3   188  PRO188     -0.2116
    107  CA       -14.6150   27.2720    3.7190 C.3   188  PRO188      0.1372
    108  C        -13.3280   27.8620    3.1490 C.2   188  PRO188      0.2244
    109  O        -13.3190   28.3590    2.0190 O.2   188  PRO188     -0.2868
    110  CB       -15.3990   26.5200    2.6310 C.3   188  PRO188      0.0268
    111  CG       -16.4060   27.5180    2.1440 C.3   188  PRO188      0.0207
    112  CD       -16.7810   28.3470    3.3340 C.3   188  PRO188      0.0892
    113  N        -27.0960   22.8790    1.4480 N.3   224  HIS224     -0.1241
    114  CA       -26.5060   21.5420    1.5320 C.3   224  HIS224      0.1621
    115  C        -27.2460   20.8030    2.6340 C.2   224  HIS224      0.2264
    116  O        -27.1840   21.2030    3.7960 O.2   224  HIS224     -0.2867
    117  CB       -25.0060   21.6100    1.8300 C.3   224  HIS224      0.0745
    118  CG       -24.2210   22.3130    0.7710 C.ar  224  HIS224      0.0817
    119  ND1      -23.6460   21.6500   -0.2920 N.ar  224  HIS224     -0.2268
    120  CD2      -23.9470   23.6280    0.5900 C.ar  224  HIS224      0.1154
    121  CE1      -23.0360   22.5250   -1.0750 C.ar  224  HIS224      0.1986
    122  NE2      -23.1980   23.7280   -0.5580 N.ar  224  HIS224     -0.2212
@<TRIPOS>BOND
     1     1     2    1
     2     4     3    2
     3     2     3    1
     4     2     5    1
     5     5     6    1
     6    78    79    2
     7    78    77    1
     8    76    77    1
     9    77    80    1
    10     6     7   ar
    11     6     8   ar
    12     7     9   ar
    13     8    10   ar
    14    80    82    1
    15    80    81    1
    16     9    11   ar
    17    16    15    2
    18    81    83    1
    19    47    48    1
    20    15    14    1
    21    58    57    2
    22    40    39    2
    23    68    67    2
    24    10    11   ar
    25    57    56    1
    26    39    38    1
    27    48    49    1
    28    48    51    1
    29    11    12    1
    30    49    55   am
    31    49    50    2
    32    55    56    1
    33    67    66    1
    34    51    52    1
    35    56    59    1
    36    38    37    1
    37    38    41    1
    38    14    17    1
    39    14    13    1
    40    17    18    1
    41    69    66    1
    42    69    70    1
    43    66    65    1
    44    23    20   ar
    45    23    25   ar
    46    53    52   ar
    47    52    54   ar
    48    41    42    1
    49    59    60    1
    50    18    20   ar
    51    18    19   ar
    52    44    42   ar
    53    44    46   ar
    54    30    29    2
    55    20    22   ar
    56    25    26   ar
    57    42    43   ar
    58    70    71   ar
    59    70    72   ar
    60    29    28    1
    61    60    61   ar
    62    60    62   ar
    63    19    21   ar
    64    71    73   ar
    65    46    45   ar
    66    61    63   ar
    67    62    64   ar
    68    72    74   ar
    69    22    21   ar
    70    22    24   ar
    71    26    24   ar
    72    43    45   ar
    73    63    64   ar
    74    28    27    1
    75    28    31    1
    76    73    75   ar
    77    34    36   ar
    78    34    32   ar
    79    74    75   ar
    80    36    35   ar
    81   121   122   ar
    82   121   119   ar
    83    32    31    1
    84    32    33   ar
    85   122   120   ar
    86    35    33   ar
    87   119   118   ar
    88   120   118   ar
    89   118   117    1
    90    93    91   ar
    91    93    92   ar
    92    91    89   ar
    93   113   114    1
    94   114   117    1
    95   114   115    1
    96    87    86    2
    97    92    90   ar
    98   109   108    2
    99   111   110    1
   100   111   112    1
   101    86    85    1
   102    99    98    1
   103    89    90   ar
   104    89    88    1
   105   110   107    1
   106   115   116    2
   107   108   107    1
   108   112   106    1
   109    98    95    1
   110    88    85    1
   111    85    84    1
   112   107   106    1
   113    94    95    1
   114   105   104    1
   115    95    96    1
   116    97    96    2
   117   103   102    2
   118   104   101    1
   119   102   101    1
   120   101   100    1
