@<TRIPOS>MOLECULE
tmp/5evdA00.pdb
 122 120 0 0 0
SMALL
GASTEIGER

@<TRIPOS>ATOM
      1  N        -15.1280   23.9080  -12.2050 N.3    11  TYR11      -0.1241
      2  CA       -15.6300   23.7360  -10.8510 C.3    11  TYR11       0.1605
      3  C        -16.2700   22.3450  -10.7140 C.2    11  TYR11       0.2264
      4  O        -17.4070   22.1200  -11.1350 O.2    11  TYR11      -0.2867
      5  CB       -16.6240   24.8550  -10.5270 C.3    11  TYR11       0.0534
      6  CG       -17.3080   24.7640   -9.1820 C.ar   11  TYR11      -0.0201
      7  CD1      -18.6640   25.0580   -9.0590 C.ar   11  TYR11      -0.0009
      8  CD2      -16.6070   24.4010   -8.0350 C.ar   11  TYR11      -0.0009
      9  CE1      -19.3090   24.9890   -7.8390 C.ar   11  TYR11       0.0417
     10  CE2      -17.2500   24.3250   -6.7990 C.ar   11  TYR11       0.0417
     11  CZ       -18.6020   24.6220   -6.7150 C.ar   11  TYR11       0.1957
     12  OH       -19.2590   24.5580   -5.5100 O.3    11  TYR11      -0.2866
     13  N        -23.6530   15.4640   -5.2400 N.3    17  TRP17      -0.1241
     14  CA       -24.1880   16.7990   -5.5100 C.3    17  TRP17       0.1605
     15  C        -24.8910   16.8640   -6.8690 C.2    17  TRP17       0.2264
     16  O        -25.7130   17.7550   -7.1140 O.2    17  TRP17      -0.2867
     17  CB       -23.0860   17.8580   -5.4890 C.3    17  TRP17       0.0550
     18  CG       -22.4160   18.0900   -4.1610 C.ar   17  TRP17       0.0003
     19  CD1      -22.3220   17.2210   -3.1080 C.ar   17  TRP17       0.0946
     20  CD2      -21.7440   19.2880   -3.7550 C.ar   17  TRP17       0.0152
     21  NE1      -21.6160   17.8060   -2.0710 N.ar   17  TRP17      -0.2442
     22  CE2      -21.2530   19.0740   -2.4470 C.ar   17  TRP17       0.0810
     23  CE3      -21.5010   20.5190   -4.3770 C.ar   17  TRP17       0.0012
     24  CZ2      -20.5360   20.0520   -1.7460 C.ar   17  TRP17       0.0191
     25  CZ3      -20.7820   21.4940   -3.6750 C.ar   17  TRP17       0.0001
     26  CH2      -20.3110   21.2490   -2.3780 C.ar   17  TRP17       0.0015
     27  N        -27.8410   31.9520   -1.5120 N.3    84  HIS84      -0.1241
     28  CA       -26.7470   32.8470   -1.8990 C.3    84  HIS84       0.1621
     29  C        -26.3080   32.5270   -3.3250 C.2    84  HIS84       0.2264
     30  O        -26.5850   31.4470   -3.8320 O.2    84  HIS84      -0.2867
     31  CB       -25.5690   32.7650   -0.9100 C.3    84  HIS84       0.0745
     32  CG       -24.8210   31.4640   -0.9240 C.ar   84  HIS84       0.0817
     33  ND1      -25.2420   30.3580   -0.2170 N.ar   84  HIS84      -0.2268
     34  CD2      -23.6350   31.1210   -1.4910 C.ar   84  HIS84       0.1154
     35  CE1      -24.3650   29.3760   -0.3740 C.ar   84  HIS84       0.1986
     36  NE2      -23.3850   29.8110   -1.1490 N.ar   84  HIS84      -0.2212
     37  N        -23.7480   31.6430   -5.1490 N.3    86  HIS86      -0.1241
     38  CA       -22.6050   30.8420   -5.5900 C.3    86  HIS86       0.1621
     39  C        -23.0460   29.8490   -6.6620 C.2    86  HIS86       0.2264
     40  O        -24.2320   29.5260   -6.7660 O.2    86  HIS86      -0.2867
     41  CB       -21.9670   30.0920   -4.4100 C.3    86  HIS86       0.0745
     42  CG       -20.9920   30.9160   -3.6370 C.ar   86  HIS86       0.0817
     43  ND1      -20.5470   30.5540   -2.3830 N.ar   86  HIS86      -0.2268
     44  CD2      -20.3490   32.0680   -3.9520 C.ar   86  HIS86       0.1154
     45  CE1      -19.6860   31.4630   -1.9480 C.ar   86  HIS86       0.1986
     46  NE2      -19.5450   32.3870   -2.8830 N.ar   86  HIS86      -0.2212
     47  N        -22.9550   26.7110   -6.9840 N.3    88  ASP88      -0.1225
     48  CA       -23.6170   25.4550   -6.6390 C.3    88  ASP88       0.1805
     49  C        -25.0200   25.6540   -6.0770 C.2    88  ASP88       0.2597
     50  O        -25.6470   24.6900   -5.6460 O.2    88  ASP88      -0.2718
     51  CB       -22.7730   24.6250   -5.6590 C.3    88  ASP88       0.1424
     52  CG       -22.3390   25.4070   -4.4220 C.2    88  ASP88       0.3668
     53  OD1      -22.1430   26.6370   -4.5120 O.co2  88  ASP88      -0.2456
     54  OD2      -22.1740   24.7720   -3.3590 O.co2  88  ASP88      -0.2456
     55  N        -25.5260   26.8880   -6.1100 N.am   89  HIS89      -0.1975
     56  CA       -26.9090   27.1320   -5.6930 C.3    89  HIS89       0.1656
     57  C        -27.6840   27.9980   -6.6830 C.2    89  HIS89       0.2291
     58  O        -28.8990   27.8230   -6.8580 O.2    89  HIS89      -0.2864
     59  CB       -26.9210   27.7590   -4.2940 C.3    89  HIS89       0.0771
     60  CG       -26.1170   26.9820   -3.3050 C.ar   89  HIS89       0.0820
     61  ND1      -26.5080   25.7420   -2.8400 N.ar   89  HIS89      -0.2267
     62  CD2      -24.9160   27.2390   -2.7330 C.ar   89  HIS89       0.1154
     63  CE1      -25.5890   25.2780   -2.0090 C.ar   89  HIS89       0.1986
     64  NE2      -24.6180   26.1720   -1.9200 N.ar   89  HIS89      -0.2212
     65  N        -12.9120   33.6320   -3.4990 N.3   124  PHE124     -0.1241
     66  CA       -12.5070   32.6220   -4.4790 C.3   124  PHE124      0.1605
     67  C        -12.1280   33.2090   -5.8310 C.2   124  PHE124      0.2264
     68  O        -11.8440   32.4740   -6.7680 O.2   124  PHE124     -0.2867
     69  CB       -13.6280   31.5990   -4.6360 C.3   124  PHE124      0.0534
     70  CG       -13.9010   30.8460   -3.3750 C.ar  124  PHE124     -0.0203
     71  CD1      -12.8680   30.2060   -2.7100 C.ar  124  PHE124     -0.0042
     72  CD2      -15.1630   30.8240   -2.8180 C.ar  124  PHE124     -0.0042
     73  CE1      -13.0980   29.5240   -1.5270 C.ar  124  PHE124     -0.0003
     74  CE2      -15.3950   30.1480   -1.6340 C.ar  124  PHE124     -0.0003
     75  CZ       -14.3680   29.4930   -0.9930 C.ar  124  PHE124     -0.0000
     76  N        -14.9660   30.1760   -9.4140 N.3   128  ILE128     -0.1245
     77  CA       -16.2780   29.5310   -9.4050 C.3   128  ILE128      0.1561
     78  C        -17.3460   30.3540  -10.1370 C.2   128  ILE128      0.2260
     79  O        -18.3880   30.6870   -9.5800 O.2   128  ILE128     -0.2867
     80  CB       -16.7500   29.2490   -7.9640 C.3   128  ILE128      0.0252
     81  CG1      -16.6190   30.5140   -7.1020 C.3   128  ILE128      0.0019
     82  CG2      -15.9410   28.1230   -7.3560 C.3   128  ILE128      0.0019
     83  CD1      -17.2060   30.3920   -5.7070 C.3   128  ILE128      0.0001
     84  N        -21.3290   33.9770    4.7670 N.3   160  HIS160     -0.1241
     85  CA       -20.8670   33.0690    3.7190 C.3   160  HIS160      0.1621
     86  C        -20.7530   33.8160    2.3810 C.2   160  HIS160      0.2264
     87  O        -19.7670   33.6630    1.6660 O.2   160  HIS160     -0.2867
     88  CB       -21.8020   31.8650    3.5980 C.3   160  HIS160      0.0745
     89  CG       -21.3420   30.8620    2.5890 C.ar  160  HIS160      0.0817
     90  ND1      -20.3520   29.9410    2.8560 N.ar  160  HIS160     -0.2268
     91  CD2      -21.7140   30.6560    1.3030 C.ar  160  HIS160      0.1154
     92  CE1      -20.1430   29.1970    1.7820 C.ar  160  HIS160      0.1986
     93  NE2      -20.9510   29.6170    0.8250 N.ar  160  HIS160     -0.2212
     94  N        -26.1350   28.8030    4.1170 N.3   185  SER185     -0.1217
     95  CA       -24.8810   28.3160    4.6720 C.3   185  SER185      0.1889
     96  C        -24.3050   29.2670    5.7110 C.2   185  SER185      0.2288
     97  O        -24.4080   30.4820    5.5730 O.2   185  SER185     -0.2866
     98  CB       -23.8540   28.1080    3.5500 C.3   185  SER185      0.2089
     99  OG       -24.4040   27.2870    2.5310 O.3   185  SER185     -0.2183
    100  N        -21.0850   28.4260    6.7300 N.3   187  SER187     -0.1217
    101  CA       -19.6960   27.9910    6.6070 C.3   187  SER187      0.1889
    102  C        -18.8110   29.1260    6.1240 C.2   187  SER187      0.2288
    103  O        -19.2940   30.0970    5.5480 O.2   187  SER187     -0.2866
    104  CB       -19.5900   26.8150    5.6320 C.3   187  SER187      0.2089
    105  OG       -20.0340   27.2150    4.3390 O.3   187  SER187     -0.2183
    106  N        -15.5650   28.3580    4.1690 N.3   189  PRO189     -0.2116
    107  CA       -14.6010   27.3630    3.6700 C.3   189  PRO189      0.1372
    108  C        -13.3400   27.9850    3.0810 C.2   189  PRO189      0.2244
    109  O        -13.3620   28.5230    1.9710 O.2   189  PRO189     -0.2868
    110  CB       -15.3990   26.6130    2.5920 C.3   189  PRO189      0.0268
    111  CG       -16.4050   27.5940    2.1290 C.3   189  PRO189      0.0207
    112  CD       -16.7800   28.4070    3.3370 C.3   189  PRO189      0.0892
    113  N        -27.0310   22.9890    1.4540 N.3   225  HIS225     -0.1241
    114  CA       -26.4370   21.6570    1.5690 C.3   225  HIS225      0.1621
    115  C        -27.1980   20.9150    2.6570 C.2   225  HIS225      0.2264
    116  O        -27.1330   21.2920    3.8280 O.2   225  HIS225     -0.2867
    117  CB       -24.9340   21.7390    1.8940 C.3   225  HIS225      0.0745
    118  CG       -24.1370   22.4280    0.8330 C.ar  225  HIS225      0.0817
    119  ND1      -23.6290   21.7650   -0.2670 N.ar  225  HIS225     -0.2268
    120  CD2      -23.7960   23.7300    0.6790 C.ar  225  HIS225      0.1154
    121  CE1      -22.9990   22.6300   -1.0450 C.ar  225  HIS225      0.1986
    122  NE2      -23.0790   23.8250   -0.4900 N.ar  225  HIS225     -0.2212
@<TRIPOS>BOND
     1     1     2    1
     2     4     3    2
     3     2     3    1
     4     2     5    1
     5     5     6    1
     6    78    79    2
     7    78    77    1
     8    76    77    1
     9    77    80    1
    10     6     7   ar
    11     6     8   ar
    12     7     9   ar
    13     8    10   ar
    14    80    82    1
    15    80    81    1
    16     9    11   ar
    17    16    15    2
    18    81    83    1
    19    47    48    1
    20    15    14    1
    21    58    57    2
    22    10    11   ar
    23    68    67    2
    24    40    39    2
    25    11    12    1
    26    57    56    1
    27    39    38    1
    28    48    49    1
    29    48    51    1
    30    55    49   am
    31    55    56    1
    32    49    50    2
    33    67    66    1
    34    56    59    1
    35    51    52    1
    36    38    37    1
    37    38    41    1
    38    14    17    1
    39    14    13    1
    40    17    18    1
    41    69    66    1
    42    69    70    1
    43    53    52   ar
    44    66    65    1
    45    52    54   ar
    46    41    42    1
    47    23    20   ar
    48    23    25   ar
    49    59    60    1
    50    18    20   ar
    51    18    19   ar
    52    44    42   ar
    53    44    46   ar
    54    30    29    2
    55    20    22   ar
    56    25    26   ar
    57    42    43   ar
    58    70    72   ar
    59    70    71   ar
    60    29    28    1
    61    60    61   ar
    62    60    62   ar
    63    19    21   ar
    64    46    45   ar
    65    61    63   ar
    66    72    74   ar
    67    62    64   ar
    68    71    73   ar
    69    22    21   ar
    70    22    24   ar
    71    43    45   ar
    72    26    24   ar
    73    63    64   ar
    74    28    27    1
    75    28    31    1
    76    74    75   ar
    77    73    75   ar
    78    34    36   ar
    79    34    32   ar
    80    36    35   ar
    81   121   122   ar
    82   121   119   ar
    83    32    31    1
    84    32    33   ar
    85   122   120   ar
    86    35    33   ar
    87   119   118   ar
    88   120   118   ar
    89    93    91   ar
    90    93    92   ar
    91   118   117    1
    92    91    89   ar
    93   113   114    1
    94   114   117    1
    95   114   115    1
    96    87    86    2
    97    92    90   ar
    98   109   108    2
    99   111   110    1
   100   111   112    1
   101    86    85    1
   102    99    98    1
   103    89    90   ar
   104    89    88    1
   105   110   107    1
   106   115   116    2
   107   108   107    1
   108   112   106    1
   109    98    95    1
   110    88    85    1
   111   107   106    1
   112    85    84    1
   113    94    95    1
   114   105   104    1
   115    95    96    1
   116   103   102    2
   117    97    96    2
   118   104   101    1
   119   102   101    1
   120   101   100    1
