@<TRIPOS>MOLECULE
tmp/5evmA02.pdb
 89 87 0 0 0
SMALL
GASTEIGER

@<TRIPOS>ATOM
      1  N         -2.2350  100.0430   19.2950 N.3   131  ALA131     -0.1245
      2  CA        -2.4140   98.9450   18.3590 C.3   131  ALA131      0.1562
      3  C         -2.3790   99.4710   16.9360 C.2   131  ALA131      0.2260
      4  O         -1.4580   99.1930   16.1600 O.2   131  ALA131     -0.2867
      5  CB        -3.7810   98.3240   18.5840 C.3   131  ALA131      0.0290
      6  N          0.9930   97.9180   15.2730 N.3   147  THR147     -0.1203
      7  CA         2.0760   97.4630   16.1390 C.3   147  THR147      0.1994
      8  C          1.7620   96.1440   16.8370 C.2   147  THR147      0.2618
      9  O          0.7360   95.9940   17.4910 O.2   147  THR147     -0.2717
     10  CB         2.4180   98.5250   17.1780 C.3   147  THR147      0.1784
     11  OG1        2.6440   99.7750   16.5140 O.3   147  THR147     -0.2211
     12  CG2        3.6750   98.1290   17.9340 C.3   147  THR147      0.0376
     13  N          2.6760   95.1950   16.6990 N.am  148  ALA148     -0.1965
     14  CA         2.5080   93.8680   17.2610 C.3   148  ALA148      0.1728
     15  C          2.5300   93.8310   18.7670 C.2   148  ALA148      0.2616
     16  O          3.2250   94.6090   19.4010 O.2   148  ALA148     -0.2715
     17  CB         3.5760   92.9490   16.7100 C.3   148  ALA148      0.0334
     18  N          1.7630   92.9060   19.3310 N.am  149  LEU149     -0.1963
     19  CA         1.6820   92.7290   20.7720 C.3   149  LEU149      0.1728
     20  C          1.4610   94.0240   21.5360 C.2   149  LEU149      0.2616
     21  O          1.7180   94.0880   22.7360 O.2   149  LEU149     -0.2715
     22  CB         2.9530   92.0590   21.2880 C.3   149  LEU149      0.0311
     23  CG         3.0990   90.5680   21.0050 C.3   149  LEU149      0.0022
     24  CD1        4.4410   90.0970   21.5180 C.3   149  LEU149      0.0001
     25  CD2        1.9690   89.7940   21.6700 C.3   149  LEU149      0.0001
     26  N          0.9840   95.0610   20.8570 N.am  150  GLN150     -0.1963
     27  CA         0.7640   96.3220   21.5480 C.3   150  GLN150      0.1733
     28  C         -0.4580   96.2030   22.4300 C.2   150  GLN150      0.2616
     29  O         -0.4270   96.5810   23.5960 O.2   150  GLN150     -0.2715
     30  CB         0.5830   97.4800   20.5600 C.3   150  GLN150      0.0408
     31  CG         0.6990   98.8450   21.2260 C.3   150  GLN150      0.0908
     32  CD         2.0480   99.0510   21.9120 C.2   150  GLN150      0.2608
     33  OE1        2.1830   99.8770   22.8110 O.2   150  GLN150     -0.2717
     34  NE2        3.0500   98.3070   21.4800 N.am  150  GLN150     -0.0878
     35  N         -1.5340   95.6590   21.8800 N.am  151  ASP151     -0.1957
     36  CA        -2.7580   95.5170   22.6490 C.3   151  ASP151      0.1840
     37  C         -2.5040   94.8100   23.9760 C.2   151  ASP151      0.2622
     38  O         -3.2270   95.0280   24.9420 O.2   151  ASP151     -0.2715
     39  CB        -3.8140   94.7610   21.8310 C.3   151  ASP151      0.1450
     40  CG        -5.1810   94.7340   22.5130 C.2   151  ASP151      0.3671
     41  OD1       -5.5660   95.7590   23.1240 O.co2 151  ASP151     -0.2456
     42  OD2       -5.8780   93.6950   22.4240 O.co2 151  ASP151     -0.2456
     43  N         -1.4680   93.9760   24.0250 N.am  152  TYR152     -0.1974
     44  CA        -1.1360   93.2410   25.2480 C.3   152  TYR152      0.1639
     45  C         -0.4780   94.1790   26.2500 C.2   152  TYR152      0.2290
     46  O         -0.9590   94.3580   27.3700 O.2   152  TYR152     -0.2864
     47  CB        -0.1730   92.0940   24.9420 C.3   152  TYR152      0.0560
     48  CG         0.0190   91.1380   26.0950 C.ar  152  TYR152     -0.0198
     49  CD1        1.2900   90.6750   26.4370 C.ar  152  TYR152     -0.0009
     50  CD2       -1.0730   90.6730   26.8290 C.ar  152  TYR152     -0.0009
     51  CE1        1.4770   89.7660   27.4860 C.ar  152  TYR152      0.0417
     52  CE2       -0.9010   89.7600   27.8820 C.ar  152  TYR152      0.0417
     53  CZ         0.3790   89.3110   28.2060 C.ar  152  TYR152      0.1957
     54  OH         0.5630   88.4190   29.2450 O.3   152  TYR152     -0.2866
     55  N          4.8240   85.1080   19.9610 N.3   180  TYR180     -0.1241
     56  CA         4.6180   85.8590   18.7310 C.3   180  TYR180      0.1605
     57  C          5.6370   85.4080   17.6900 C.2   180  TYR180      0.2264
     58  O          5.3010   85.2230   16.5200 O.2   180  TYR180     -0.2867
     59  CB         4.7350   87.3640   19.0030 C.3   180  TYR180      0.0534
     60  CG         4.8500   88.2370   17.7710 C.ar  180  TYR180     -0.0201
     61  CD1        6.0970   88.5910   17.2610 C.ar  180  TYR180     -0.0009
     62  CD2        3.7190   88.7350   17.1310 C.ar  180  TYR180     -0.0009
     63  CE1        6.2160   89.4250   16.1500 C.ar  180  TYR180      0.0417
     64  CE2        3.8280   89.5700   16.0150 C.ar  180  TYR180      0.0417
     65  CZ         5.0780   89.9110   15.5360 C.ar  180  TYR180      0.1957
     66  OH         5.1940   90.7500   14.4580 O.3   180  TYR180     -0.2866
     67  N          1.0950   90.7300   12.3620 N.3   209  PHE209     -0.1227
     68  CA         0.2110   91.4980   13.2230 C.3   209  PHE209      0.1736
     69  C         -0.7650   90.5780   13.9750 C.2   209  PHE209      0.2596
     70  O         -1.9080   90.9490   14.2510 O.2   209  PHE209     -0.2718
     71  CB        -0.5500   92.5470   12.3960 C.3   209  PHE209      0.0547
     72  CG        -1.4010   93.4900   13.2250 C.ar  209  PHE209     -0.0202
     73  CD1       -0.8250   94.3100   14.1830 C.ar  209  PHE209     -0.0042
     74  CD2       -2.7820   93.5470   13.0480 C.ar  209  PHE209     -0.0042
     75  CE1       -1.6060   95.1660   14.9460 C.ar  209  PHE209     -0.0003
     76  CE2       -3.5700   94.4020   13.8110 C.ar  209  PHE209     -0.0003
     77  CZ        -2.9800   95.2100   14.7600 C.ar  209  PHE209     -0.0000
     78  N         -0.3090   89.3730   14.3090 N.am  210  GLY210     -0.1957
     79  CA        -1.1530   88.4430   15.0420 C.3   210  GLY210      0.1869
     80  C         -2.2970   87.8480   14.2390 C.2   210  GLY210      0.2309
     81  O         -3.3090   87.4070   14.8010 O.2   210  GLY210     -0.2863
     82  N         -4.4680   89.2390   12.5490 N.3   212  ASN212     -0.1240
     83  CA        -5.6880   90.0260   12.5720 C.3   212  ASN212      0.1653
     84  C         -5.8030   90.7390   11.2380 C.2   212  ASN212      0.2266
     85  O         -5.8150   91.9700   11.1790 O.2   212  ASN212     -0.2867
     86  CB        -5.6500   91.0620   13.6880 C.3   212  ASN212      0.1155
     87  CG        -6.9970   91.7030   13.9150 C.2   212  ASN212      0.2627
     88  OD1       -7.6910   92.0660   12.9710 O.2   212  ASN212     -0.2716
     89  ND2       -7.3730   91.8480   15.1720 N.am  212  ASN212     -0.0877
@<TRIPOS>BOND
     1    85    84    2
     2    84    83    1
     3    67    68    1
     4    71    68    1
     5    71    72    1
     6    82    83    1
     7    83    86    1
     8    88    87    2
     9    74    72   ar
    10    74    76   ar
    11    68    69    1
    12    72    73   ar
    13    86    87    1
    14    76    77   ar
    15    87    89   am
    16    69    70    2
    17    69    78   am
    18    73    75   ar
    19    80    81    2
    20    80    79    1
    21    78    79    1
    22    66    65    1
    23    77    75   ar
    24     6     7    1
    25    65    64   ar
    26    65    63   ar
    27    64    62   ar
    28     7     8    1
    29     7    10    1
    30    63    61   ar
    31     4     3    2
    32    11    10    1
    33    58    57    2
    34    13     8   am
    35    13    14    1
    36    17    14    1
    37     8     9    2
    38     3     2    1
    39    62    60   ar
    40    10    12    1
    41    14    15    1
    42    61    60   ar
    43    57    56    1
    44    60    59    1
    45     2     5    1
    46     2     1    1
    47    56    59    1
    48    56    55    1
    49    15    18   am
    50    15    16    2
    51    18    19    1
    52    30    31    1
    53    30    27    1
    54    19    22    1
    55    19    20    1
    56    26    20   am
    57    26    27    1
    58    23    22    1
    59    23    24    1
    60    23    25    1
    61    31    32    1
    62    34    32   am
    63    20    21    2
    64    27    28    1
    65    39    40    1
    66    39    36    1
    67    35    28   am
    68    35    36    1
    69    32    33    2
    70    42    40   ar
    71    28    29    2
    72    40    41   ar
    73    36    37    1
    74    37    43   am
    75    37    38    2
    76    43    44    1
    77    47    44    1
    78    47    48    1
    79    44    45    1
    80    48    49   ar
    81    48    50   ar
    82    45    46    2
    83    49    51   ar
    84    50    52   ar
    85    51    53   ar
    86    52    53   ar
    87    53    54    1
