@<TRIPOS>MOLECULE
tmp/5evyA01.pdb
 130 125 0 0 0
SMALL
GASTEIGER

@<TRIPOS>ATOM
      1  N        -52.0520   56.4990  -16.4030 N.3    38  VAL38      -0.1231
      2  CA       -52.1950   55.0580  -16.7050 C.3    38  VAL38       0.1692
      3  C        -53.4620   54.3260  -16.1760 C.2    38  VAL38       0.2592
      4  O        -54.1390   54.7730  -15.2580 O.2    38  VAL38      -0.2718
      5  CB       -50.9420   54.2690  -16.2420 C.3    38  VAL38       0.0266
      6  CG1      -49.7640   54.5510  -17.1600 C.3    38  VAL38       0.0020
      7  CG2      -50.5830   54.5940  -14.7950 C.3    38  VAL38       0.0020
      8  N        -53.7510   53.1770  -16.7800 N.am   39  SER39      -0.1952
      9  CA       -54.9170   52.3720  -16.4460 C.3    39  SER39       0.1924
     10  C        -54.5040   50.9930  -16.0170 C.2    39  SER39       0.2314
     11  O        -53.4870   50.4760  -16.4680 O.2    39  SER39      -0.2863
     12  CB       -55.8850   52.2990  -17.6070 C.3    39  SER39       0.2116
     13  OG       -57.0280   53.1090  -17.3390 O.3    39  SER39      -0.2180
     14  N        -66.3170   49.2090  -16.4670 N.3    72  TRP72      -0.1227
     15  CA       -65.0950   49.5320  -17.2080 C.3    72  TRP72       0.1737
     16  C        -65.3790   50.6260  -18.2070 C.2    72  TRP72       0.2595
     17  O        -64.8270   51.7200  -18.1060 O.2    72  TRP72      -0.2718
     18  CB       -64.5050   48.3170  -17.8950 C.3    72  TRP72       0.0564
     19  CG       -63.1540   48.5930  -18.3750 C.ar   72  TRP72       0.0003
     20  CD1      -62.1440   49.1500  -17.6580 C.ar   72  TRP72       0.0946
     21  CD2      -62.6410   48.3600  -19.6840 C.ar   72  TRP72       0.0152
     22  NE1      -61.0320   49.2720  -18.4290 N.ar   72  TRP72      -0.2442
     23  CE2      -61.3010   48.8040  -19.6830 C.ar   72  TRP72       0.0810
     24  CE3      -63.1820   47.8290  -20.8570 C.ar   72  TRP72       0.0012
     25  CZ2      -60.4890   48.7250  -20.7980 C.ar   72  TRP72       0.0191
     26  CZ3      -62.3780   47.7270  -21.9600 C.ar   72  TRP72       0.0001
     27  CH2      -61.0370   48.1760  -21.9280 C.ar   72  TRP72       0.0015
     28  N        -66.2940   50.3330  -19.1310 N.am   73  PHE73      -0.1976
     29  CA       -66.8960   51.3390  -20.0070 C.3    73  PHE73       0.1639
     30  C        -68.2860   50.9640  -20.4190 C.2    73  PHE73       0.2290
     31  O        -68.6120   49.7770  -20.6090 O.2    73  PHE73      -0.2864
     32  CB       -66.1380   51.4450  -21.2930 C.3    73  PHE73       0.0560
     33  CG       -64.8260   52.1620  -21.2100 C.ar   73  PHE73      -0.0200
     34  CD1      -64.7890   53.5510  -21.1580 C.ar   73  PHE73      -0.0042
     35  CD2      -63.6360   51.4440  -21.3480 C.ar   73  PHE73      -0.0042
     36  CE1      -63.5850   54.2150  -21.1310 C.ar   73  PHE73      -0.0003
     37  CE2      -62.4280   52.0860  -21.3340 C.ar   73  PHE73      -0.0003
     38  CZ       -62.3860   53.4840  -21.2050 C.ar   73  PHE73      -0.0000
     39  N        -63.1150   51.2240  -13.8320 N.3    94  GLN94      -0.1245
     40  CA       -62.1500   52.1270  -14.4130 C.3    94  GLN94       0.1566
     41  C        -61.1650   52.5920  -13.3590 C.2    94  GLN94       0.2260
     42  O        -61.4500   53.5140  -12.6210 O.2    94  GLN94      -0.2867
     43  CB       -62.8630   53.3400  -15.0520 C.3    94  GLN94       0.0367
     44  CG       -61.9770   54.1910  -15.9720 C.3    94  GLN94       0.0905
     45  CD       -61.2020   53.3500  -17.0080 C.2    94  GLN94       0.2608
     46  OE1      -61.8040   52.6640  -17.8510 O.2    94  GLN94      -0.2717
     47  NE2      -59.8620   53.3810  -16.9310 N.am   94  GLN94      -0.0878
     48  N        -57.2980   54.1010  -12.5520 N.3    96  SER96      -0.1217
     49  CA       -56.2520   54.8770  -13.2170 C.3    96  SER96       0.1889
     50  C        -55.4400   55.6850  -12.2150 C.2    96  SER96       0.2288
     51  O        -55.9220   56.0110  -11.1200 O.2    96  SER96      -0.2866
     52  CB       -56.8750   55.8560  -14.2130 C.3    96  SER96       0.2089
     53  OG       -57.8890   56.6660  -13.5940 O.3    96  SER96      -0.2183
     54  N        -55.9800   64.7760  -26.2020 N.3   180  ARG180     -0.1245
     55  CA       -56.2790   64.4970  -24.8160 C.3   180  ARG180      0.1563
     56  C        -56.5220   65.7950  -24.1000 C.2   180  ARG180      0.2260
     57  O        -55.8510   66.7880  -24.3640 O.2   180  ARG180     -0.2867
     58  CB       -55.1040   63.7950  -24.1850 C.3   180  ARG180      0.0307
     59  CG       -55.1640   63.7180  -22.6670 C.3   180  ARG180      0.0489
     60  CD       -53.8670   63.1490  -22.0770 C.3   180  ARG180      0.2205
     61  NE       -53.9590   61.7420  -21.6750 N.pl3 180  ARG180     -0.0865
     62  CZ       -54.6820   61.2970  -20.6410 C.cat 180  ARG180      0.5346
     63  NH1      -55.4140   62.1360  -19.9010 N.pl3 180  ARG180      0.1354
     64  NH2      -54.6960   59.9980  -20.3490 N.pl3 180  ARG180      0.1354
     65  N        -67.2150   55.2260  -23.9450 N.3   207  MET207     -0.1245
     66  CA       -66.5230   55.2650  -25.2090 C.3   207  MET207      0.1570
     67  C        -67.5210   55.4530  -26.2850 C.2   207  MET207      0.2261
     68  O        -68.4600   54.6610  -26.3770 O.2   207  MET207     -0.2867
     69  CB       -65.9110   53.9350  -25.5110 C.3   207  MET207      0.0387
     70  CG       -64.6690   53.6830  -24.7360 C.3   207  MET207      0.0595
     71  SD       -63.3950   53.4090  -25.9420 S.3   207  MET207     -0.1393
     72  CE       -62.0690   52.8480  -24.8630 C.3   207  MET207      0.0692
     73  N        -63.0730   58.6420  -25.5780 N.3   216  LEU216     -0.1245
     74  CA       -63.4160   58.0590  -24.2920 C.3   216  LEU216      0.1561
     75  C        -63.3900   59.0500  -23.1720 C.2   216  LEU216      0.2260
     76  O        -62.6020   59.9940  -23.1790 O.2   216  LEU216     -0.2867
     77  CB       -62.5190   56.8880  -24.0050 C.3   216  LEU216      0.0270
     78  CG       -61.0620   57.1330  -23.7540 C.3   216  LEU216      0.0019
     79  CD1      -60.8090   57.3750  -22.2640 C.3   216  LEU216      0.0001
     80  CD2      -60.3150   55.8940  -24.1730 C.3   216  LEU216      0.0001
     81  N        -63.8010   59.4660  -18.7330 N.3   218  PHE218     -0.1241
     82  CA       -63.9750   58.9140  -17.4070 C.3   218  PHE218      0.1605
     83  C        -63.6990   59.8880  -16.3120 C.2   218  PHE218      0.2264
     84  O        -62.8060   60.6750  -16.4200 O.2   218  PHE218     -0.2867
     85  CB       -63.1560   57.6510  -17.1940 C.3   218  PHE218      0.0534
     86  CG       -61.6810   57.7880  -17.3730 C.ar  218  PHE218     -0.0203
     87  CD1      -61.1020   57.6830  -18.6200 C.ar  218  PHE218     -0.0042
     88  CD2      -60.8440   57.8570  -16.2790 C.ar  218  PHE218     -0.0042
     89  CE1      -59.7090   57.7290  -18.7880 C.ar  218  PHE218     -0.0003
     90  CE2      -59.4490   57.9140  -16.4340 C.ar  218  PHE218     -0.0003
     91  CZ       -58.8760   57.8550  -17.6960 C.ar  218  PHE218     -0.0000
     92  N        -60.2480   61.5440  -24.1210 N.3   229  VAL229     -0.1245
     93  CA       -59.2270   61.2390  -25.0860 C.3   229  VAL229      0.1561
     94  C        -59.8880   60.9260  -26.4020 C.2   229  VAL229      0.2260
     95  O        -60.6350   59.9570  -26.5300 O.2   229  VAL229     -0.2867
     96  CB       -58.3270   60.0760  -24.6570 C.3   229  VAL229      0.0252
     97  CG1      -57.1690   59.9060  -25.6400 C.3   229  VAL229      0.0019
     98  CG2      -57.8000   60.2910  -23.2450 C.3   229  VAL229      0.0019
     99  N        -59.5090   59.8310  -30.1310 N.3   231  PHE231     -0.1241
    100  CA       -58.5980   59.0720  -30.9730 C.3   231  PHE231      0.1605
    101  C        -58.9320   59.2680  -32.4170 C.2   231  PHE231      0.2264
    102  O        -60.0930   59.1710  -32.7650 O.2   231  PHE231     -0.2867
    103  CB       -58.7070   57.5900  -30.6410 C.3   231  PHE231      0.0534
    104  CG       -58.1520   57.2290  -29.3070 C.ar  231  PHE231     -0.0203
    105  CD1      -58.9220   57.3720  -28.1500 C.ar  231  PHE231     -0.0042
    106  CD2      -56.8750   56.7730  -29.1890 C.ar  231  PHE231     -0.0042
    107  CE1      -58.4010   57.0410  -26.9080 C.ar  231  PHE231     -0.0003
    108  CE2      -56.3560   56.4370  -27.9480 C.ar  231  PHE231     -0.0003
    109  CZ       -57.1170   56.5670  -26.8120 C.ar  231  PHE231     -0.0000
    110  N        -52.9190   51.6860  -26.4550 N.3   309  PRO309     -0.2102
    111  CA       -53.5540   51.6810  -25.1360 C.3   309  PRO309      0.1504
    112  C        -54.9990   51.1840  -25.0930 C.2   309  PRO309      0.2575
    113  O        -55.6360   51.2130  -24.0400 O.2   309  PRO309     -0.2718
    114  CB       -53.5650   53.1420  -24.7770 C.3   309  PRO309      0.0282
    115  CG       -53.7090   53.8000  -26.0710 C.3   309  PRO309      0.0208
    116  CD       -52.7950   53.0440  -26.9800 C.3   309  PRO309      0.0893
    117  N        -55.4840   50.6610  -26.2020 N.am  310  HIS310     -0.1976
    118  CA       -56.9020   50.4630  -26.3590 C.3   310  HIS310      0.1656
    119  C        -57.5470   49.4600  -25.4500 C.2   310  HIS310      0.2291
    120  O        -58.7430   49.4870  -25.2780 O.2   310  HIS310     -0.2864
    121  CB       -57.1850   50.1260  -27.8120 C.3   310  HIS310      0.0771
    122  CG       -56.7960   51.2190  -28.7320 C.ar  310  HIS310      0.0820
    123  ND1      -56.0770   50.9980  -29.8850 N.ar  310  HIS310     -0.2267
    124  CD2      -56.9690   52.5530  -28.6350 C.ar  310  HIS310      0.1154
    125  CE1      -55.8680   52.1500  -30.4910 C.ar  310  HIS310      0.1986
    126  NE2      -56.3990   53.1110  -29.7520 N.ar  310  HIS310     -0.2212
    127  N        -56.4040   49.2120  -22.2080 N.3   312  GLY312     -0.1225
    128  CA       -55.8410   49.6560  -20.9060 C.3   312  GLY312      0.1811
    129  C        -54.9100   48.6630  -20.2230 C.2   312  GLY312      0.2280
    130  O        -54.9380   48.5300  -19.0020 O.2   312  GLY312     -0.2866
@<TRIPOS>BOND
     1   102   101    2
     2   101   100    1
     3   100   103    1
     4   100    99    1
     5   103   104    1
     6   125   123   ar
     7   125   126   ar
     8   123   122   ar
     9   126   124   ar
    10   104   106   ar
    11   104   105   ar
    12   106   108   ar
    13   122   124   ar
    14   122   121    1
    15   105   107   ar
    16   108   109   ar
    17   121   118    1
    18   116   110    1
    19   116   115    1
    20   107   109   ar
    21    95    94    2
    22   110   111    1
    23    94    93    1
    24    68    67    2
    25   118   117    1
    26   118   119    1
    27    67    66    1
    28   117   112   am
    29    54    55    1
    30   115   114    1
    31    71    72    1
    32    71    70    1
    33    97    96    1
    34    73    74    1
    35    69    66    1
    36    69    70    1
    37   119   120    2
    38    66    65    1
    39   111   112    1
    40   111   114    1
    41   112   113    2
    42    93    96    1
    43    93    92    1
    44    55    58    1
    45    55    56    1
    46    96    98    1
    47    57    56    2
    48    74    77    1
    49    74    75    1
    50    58    59    1
    51    80    78    1
    52    77    78    1
    53    78    79    1
    54    76    75    2
    55    59    60    1
    56   127   128    1
    57    60    61    1
    58    26    27   ar
    59    26    24   ar
    60    27    25   ar
    61    61    62    2
    62    35    37   ar
    63    35    33   ar
    64    37    38   ar
    65    32    33    1
    66    32    29    1
    67    33    34   ar
    68    38    36   ar
    69    34    36   ar
    70   128   129    1
    71    24    21   ar
    72    25    23   ar
    73    62    64    1
    74    62    63    1
    75    31    30    2
    76    30    29    1
    77   129   130    2
    78    29    28    1
    79    21    23   ar
    80    21    19   ar
    81    23    22   ar
    82    28    16   am
    83    89    87   ar
    84    89    91   ar
    85    81    82    1
    86    87    86   ar
    87    22    20   ar
    88    19    18    1
    89    19    20   ar
    90    16    17    2
    91    16    15    1
    92    18    15    1
    93    46    45    2
    94    91    90   ar
    95    12    13    1
    96    12     9    1
    97    82    85    1
    98    82    83    1
    99    86    85    1
   100    86    88   ar
   101    15    14    1
   102     6     5    1
   103    45    47   am
   104    45    44    1
   105     8     9    1
   106     8     3   am
   107     2     1    1
   108     2     5    1
   109     2     3    1
   110    11    10    2
   111     9    10    1
   112    90    88   ar
   113    84    83    2
   114     5     7    1
   115     3     4    2
   116    44    43    1
   117    43    40    1
   118    40    39    1
   119    40    41    1
   120    52    53    1
   121    52    49    1
   122    41    42    2
   123    49    48    1
   124    49    50    1
   125    50    51    2
