@<TRIPOS>MOLECULE
tmp/5ew3A00.pdb
 182 172 0 0 0
SMALL
GASTEIGER

@<TRIPOS>ATOM
      1  N          9.5330    8.9910   19.6460 N.3    20  LEU20      -0.1245
      2  CA        10.1260    7.7000   19.2780 C.3    20  LEU20       0.1561
      3  C         11.3130    7.3270   20.1830 C.2    20  LEU20       0.2260
      4  O         11.5730    6.1440   20.3920 O.2    20  LEU20      -0.2867
      5  CB        10.5660    7.7020   17.8000 C.3    20  LEU20       0.0270
      6  CG         9.5310    8.1210   16.7510 C.3    20  LEU20       0.0019
      7  CD1       10.2070    8.6100   15.4960 C.3    20  LEU20       0.0001
      8  CD2        8.5520    7.0010   16.4330 C.3    20  LEU20       0.0001
      9  N         13.7110   12.3250   19.6750 N.3    28  VAL28      -0.1245
     10  CA        13.3870   11.8920   18.3110 C.3    28  VAL28       0.1561
     11  C         11.8590   11.8190   18.2480 C.2    28  VAL28       0.2260
     12  O         11.2400   11.1270   19.0560 O.2    28  VAL28      -0.2867
     13  CB        14.0700   10.5560   17.8960 C.3    28  VAL28       0.0252
     14  CG1       13.6160   10.1040   16.5060 C.3    28  VAL28       0.0019
     15  CG2       15.5850   10.6780   17.9410 C.3    28  VAL28       0.0019
     16  N         11.1360   11.4720   10.5500 N.3    46  ALA46      -0.1231
     17  CA        11.6750   11.3700   11.9020 C.3    46  ALA46       0.1694
     18  C         12.5200   12.6310   12.1170 C.2    46  ALA46       0.2592
     19  O         13.3400   12.9880   11.2620 O.2    46  ALA46      -0.2718
     20  CB        12.5080   10.1090   12.0600 C.3    46  ALA46       0.0304
     21  N         12.2440   13.3540   13.2090 N.am   47  VAL47      -0.1966
     22  CA        12.9140   14.6170   13.5080 C.3    47  VAL47       0.1727
     23  C         13.7090   14.5390   14.8100 C.2    47  VAL47       0.2616
     24  O         13.1670   14.1630   15.8470 O.2    47  VAL47      -0.2715
     25  CB        11.9240   15.8220   13.5050 C.3    47  VAL47       0.0290
     26  CG1       12.6530   17.1420   13.7340 C.3    47  VAL47       0.0023
     27  CG2       11.1180   15.8850   12.2090 C.3    47  VAL47       0.0023
     28  N         14.9940   14.9100   14.7520 N.am   48  LYS48      -0.1977
     29  CA        15.8300   14.9820   15.9410 C.3    48  LYS48       0.1596
     30  C         15.9270   16.4550   16.2950 C.2    48  LYS48       0.2287
     31  O         16.4230   17.2430   15.4910 O.2    48  LYS48      -0.2864
     32  CB        17.2090   14.3770   15.6960 C.3    48  LYS48       0.0298
     33  CG        17.7530   13.6790   16.9150 C.3    48  LYS48       0.0038
     34  CD        19.1180   13.0960   16.6460 C.3    48  LYS48       0.0206
     35  CE        19.0390   11.6220   16.3950 C.3    48  LYS48       0.1093
     36  NZ        20.3890   11.0410   16.4150 N.3    48  LYS48      -0.1314
     37  N         26.2400   15.9460   13.3810 N.3    65  GLU65      -0.1245
     38  CA        25.4470   14.8500   12.8450 C.3    65  GLU65       0.1567
     39  C         24.8120   15.2110   11.5100 C.2    65  GLU65       0.2260
     40  O         24.7870   14.4080   10.6050 O.2    65  GLU65      -0.2867
     41  CB        24.4020   14.3900   13.8630 C.3    65  GLU65       0.0388
     42  CG        23.1660   13.7320   13.2850 C.3    65  GLU65       0.1160
     43  CD        22.4110   12.9070   14.2820 C.2    65  GLU65       0.3649
     44  OE1       22.8850   12.7600   15.3960 O.co2  65  GLU65      -0.2457
     45  OE2       21.3440   12.3990   13.9600 O.co2  65  GLU65      -0.2457
     46  N         27.6380   15.0510    9.0010 N.3    68  ILE68      -0.1231
     47  CA        27.9660   13.6430    8.7710 C.3    68  ILE68       0.1692
     48  C         26.9240   13.0260    7.8190 C.2    68  ILE68       0.2591
     49  O         27.3040   12.3330    6.8790 O.2    68  ILE68      -0.2718
     50  CB        28.1140   12.8840   10.1270 C.3    68  ILE68       0.0266
     51  CG1       29.3880   13.3420   10.8740 C.3    68  ILE68       0.0019
     52  CG2       28.1180   11.3640    9.9500 C.3    68  ILE68       0.0020
     53  CD1       29.3260   13.2390   12.4320 C.3    68  ILE68       0.0001
     54  N         25.6250   13.3440    8.0220 N.am   69  LEU69      -0.1980
     55  CA        24.5290   12.8570    7.1770 C.3    69  LEU69       0.1596
     56  C         24.5640   13.4240    5.7590 C.2    69  LEU69       0.2287
     57  O         24.2370   12.6990    4.8200 O.2    69  LEU69      -0.2864
     58  CB        23.1590   13.0840    7.8350 C.3    69  LEU69       0.0297
     59  CG        22.8070   12.1570    9.0060 C.3    69  LEU69       0.0022
     60  CD1       21.6860   12.7340    9.8280 C.3    69  LEU69       0.0001
     61  CD2       22.4700   10.7500    8.5260 C.3    69  LEU69       0.0001
     62  N         27.4960   11.4500    4.1360 N.3    72  ILE72      -0.1245
     63  CA        27.1310   10.0510    3.8610 C.3    72  ILE72       0.1561
     64  C         26.4500    9.9210    2.4850 C.2    72  ILE72       0.2260
     65  O         26.9340    9.1780    1.6310 O.2    72  ILE72      -0.2867
     66  CB        26.2930    9.4230    5.0290 C.3    72  ILE72       0.0252
     67  CG1       27.1680    9.1570    6.2660 C.3    72  ILE72       0.0019
     68  CG2       25.5760    8.1340    4.5990 C.3    72  ILE72       0.0019
     69  CD1       26.3920    9.0880    7.5930 C.3    72  ILE72       0.0001
     70  N         20.7660    2.6660    4.7450 N.3    78  VAL78      -0.1231
     71  CA        21.1670    3.7400    5.6570 C.3    78  VAL78       0.1692
     72  C         19.9960    4.7390    5.6580 C.2    78  VAL78       0.2591
     73  O         19.4290    4.9860    4.5920 O.2    78  VAL78      -0.2718
     74  CB        22.5230    4.4040    5.2290 C.3    78  VAL78       0.0266
     75  CG1       22.9040    5.5660    6.1490 C.3    78  VAL78       0.0020
     76  CG2       23.6640    3.3810    5.1670 C.3    78  VAL78       0.0020
     77  N         19.6030    5.2770    6.8340 N.am   79  VAL79      -0.1980
     78  CA        18.5200    6.2730    6.9130 C.3    79  VAL79       0.1595
     79  C         18.8920    7.5100    6.0790 C.2    79  VAL79       0.2287
     80  O         20.0350    7.9670    6.1290 O.2    79  VAL79      -0.2864
     81  CB        18.0560    6.5980    8.3630 C.3    79  VAL79       0.0276
     82  CG1       19.1070    7.3500    9.1860 C.3    79  VAL79       0.0022
     83  CG2       16.6960    7.2690    8.4000 C.3    79  VAL79       0.0022
     84  N         16.8920   18.0640   12.6560 N.3    94  VAL94      -0.1245
     85  CA        17.5220   17.2160   11.6340 C.3    94  VAL94       0.1561
     86  C         16.4460   16.2240   11.1740 C.2    94  VAL94       0.2260
     87  O         15.9820   15.3990   11.9620 O.2    94  VAL94      -0.2867
     88  CB        18.8380   16.5350   12.1260 C.3    94  VAL94       0.0252
     89  CG1       19.3750   15.5460   11.0950 C.3    94  VAL94       0.0019
     90  CG2       19.9060   17.5740   12.4530 C.3    94  VAL94       0.0019
     91  N         15.0140   13.1800    8.7650 N.3    96  VAL96      -0.1231
     92  CA        15.3380   11.9460    8.0280 C.3    96  VAL96       0.1692
     93  C         14.0460   11.1970    7.6340 C.2    96  VAL96       0.2592
     94  O         12.9720   11.5150    8.1610 O.2    96  VAL96      -0.2718
     95  CB        16.3500   11.0120    8.7590 C.3    96  VAL96       0.0266
     96  CG1       17.7030   11.6950    8.9810 C.3    96  VAL96       0.0020
     97  CG2       15.7760   10.4530   10.0620 C.3    96  VAL96       0.0020
     98  N         14.1500   10.2060    6.7200 N.am   97  GLU97      -0.1966
     99  CA        13.0120    9.3660    6.3180 C.3    97  GLU97       0.1733
    100  C         12.5530    8.5160    7.5160 C.2    97  GLU97       0.2616
    101  O         13.3860    8.0560    8.3060 O.2    97  GLU97      -0.2715
    102  CB        13.3610    8.4740    5.1080 C.3    97  GLU97       0.0429
    103  CG        14.3620    7.3610    5.3980 C.3    97  GLU97       0.1163
    104  CD        14.8660    6.5570    4.2130 C.2    97  GLU97       0.3649
    105  OE1       14.0900    6.3290    3.2560 O.co2  97  GLU97      -0.2457
    106  OE2       16.0370    6.1150    4.2640 O.co2  97  GLU97      -0.2457
    107  N         11.2370    8.3530    7.6730 N.am   98  PHE98      -0.1960
    108  CA        10.6840    7.5870    8.7820 C.3    98  PHE98       0.1771
    109  C         10.6800    6.0770    8.4940 C.2    98  PHE98       0.2619
    110  O         10.4410    5.6660    7.3500 O.2    98  PHE98      -0.2715
    111  CB         9.2820    8.1040    9.1470 C.3    98  PHE98       0.0574
    112  CG         8.6250    7.4480   10.3410 C.ar   98  PHE98      -0.0200
    113  CD1        9.1820    7.5580   11.6130 C.ar   98  PHE98      -0.0042
    114  CD2        7.4350    6.7410   10.2000 C.ar   98  PHE98      -0.0042
    115  CE1        8.5740    6.9500   12.7170 C.ar   98  PHE98      -0.0003
    116  CE2        6.8160    6.1510   11.3100 C.ar   98  PHE98      -0.0003
    117  CZ         7.3930    6.2560   12.5610 C.ar   98  PHE98      -0.0000
    118  N         10.9610    5.3180    9.5550 N.am   99  CYS99      -0.1968
    119  CA        10.9310    3.8620    9.5760 C.3    99  CYS99       0.1712
    120  C          9.8030    3.3990   10.4980 C.2    99  CYS99       0.2296
    121  O          9.9400    3.3550   11.7210 O.2    99  CYS99      -0.2864
    122  CB        12.2710    3.3030   10.0540 C.3    99  CYS99       0.0983
    123  SG        13.5930    3.3740    8.8220 S.3    99  CYS99      -0.0798
    124  N         29.0740    3.0700    4.6070 N.3   143  LEU143     -0.1245
    125  CA        29.5560    4.0110    5.6300 C.3   143  LEU143      0.1561
    126  C         31.0840    4.0110    5.7100 C.2   143  LEU143      0.2260
    127  O         31.6690    5.0720    5.8860 O.2   143  LEU143     -0.2867
    128  CB        28.9300    3.7420    7.0160 C.3   143  LEU143      0.0270
    129  CG        27.4080    3.9870    7.1670 C.3   143  LEU143      0.0019
    130  CD1       26.9170    3.5840    8.5490 C.3   143  LEU143      0.0001
    131  CD2       27.0390    5.4310    6.9110 C.3   143  LEU143      0.0001
    132  N         30.3800    4.0850   12.8720 N.3   150  HIS150     -0.1241
    133  CA        29.0810    4.1740   13.5330 C.3   150  HIS150      0.1621
    134  C         29.1450    4.5530   15.0230 C.2   150  HIS150      0.2264
    135  O         28.4250    5.4690   15.4230 O.2   150  HIS150     -0.2867
    136  CB        28.2460    2.9020   13.3290 C.3   150  HIS150      0.0745
    137  CG        26.7900    3.1330   13.5700 C.ar  150  HIS150      0.0817
    138  ND1       26.2660    3.1530   14.8470 N.ar  150  HIS150     -0.2268
    139  CD2       25.8060    3.4180   12.6900 C.ar  150  HIS150      0.1154
    140  CE1       24.9790    3.4180   14.7010 C.ar  150  HIS150      0.1986
    141  NE2       24.6560    3.5760   13.4200 N.ar  150  HIS150     -0.2212
    142  N         16.7160   -0.2100   11.8840 N.3   159  LEU159     -0.1245
    143  CA        15.2880    0.0000   11.7210 C.3   159  LEU159      0.1561
    144  C         14.7230   -0.7110   10.5340 C.2   159  LEU159      0.2260
    145  O         15.3770   -0.8340    9.4990 O.2   159  LEU159     -0.2867
    146  CB        14.9620    1.4930   11.6250 C.3   159  LEU159      0.0270
    147  CG        15.3480    2.3930   12.7810 C.3   159  LEU159      0.0019
    148  CD1       15.1310    3.7950   12.4100 C.3   159  LEU159      0.0001
    149  CD2       14.5490    2.0890   14.0330 C.3   159  LEU159      0.0001
    150  N         20.2370    1.3470    8.6300 N.3   168  ILE168     -0.1231
    151  CA        21.1080    1.7190    9.7460 C.3   168  ILE168      0.1692
    152  C         20.7780    3.1710   10.1260 C.2   168  ILE168      0.2592
    153  O         20.6340    4.0330    9.2530 O.2   168  ILE168     -0.2718
    154  CB        22.6160    1.5210    9.3990 C.3   168  ILE168      0.0266
    155  CG1       22.8870    0.0690    8.9550 C.3   168  ILE168      0.0019
    156  CG2       23.5080    1.8950   10.5830 C.3   168  ILE168      0.0020
    157  CD1       24.1370   -0.1540    8.2200 C.3   168  ILE168      0.0001
    158  N         20.6210    3.4130   11.4260 N.am  169  CYS169     -0.1956
    159  CA        20.3250    4.7250   11.9800 C.3   169  CYS169      0.1843
    160  C         21.1410    4.9220   13.2640 C.2   169  CYS169      0.2625
    161  O         21.9090    4.0370   13.6470 O.2   169  CYS169     -0.2714
    162  CB        18.8210    4.8640   12.2320 C.3   169  CYS169      0.0997
    163  SG        18.2760    4.2230   13.8400 S.3   169  CYS169     -0.0797
    164  N         20.9710    6.0750   13.9250 N.am  170  ASP170     -0.1957
    165  CA        21.5850    6.3680   15.2100 C.3   170  ASP170      0.1840
    166  C         20.6620    7.2650   16.0230 C.2   170  ASP170      0.2622
    167  O         20.4330    8.4100   15.6490 O.2   170  ASP170     -0.2715
    168  CB        22.9990    6.9660   15.0770 C.3   170  ASP170      0.1450
    169  CG        23.9070    6.7180   16.2830 C.2   170  ASP170      0.3671
    170  OD1       23.3800    6.6020   17.4200 O.co2 170  ASP170     -0.2456
    171  OD2       25.1490    6.6440   16.0900 O.co2 170  ASP170     -0.2456
    172  N         20.1030    6.7230   17.1170 N.am  171  PHE171     -0.1974
    173  CA        19.2110    7.4600   18.0150 C.3   171  PHE171      0.1639
    174  C         19.9560    8.4840   18.8600 C.2   171  PHE171      0.2290
    175  O         19.4170    9.5590   19.1050 O.2   171  PHE171     -0.2864
    176  CB        18.3930    6.5110   18.9020 C.3   171  PHE171      0.0560
    177  CG        17.1440    5.9870   18.2330 C.ar  171  PHE171     -0.0200
    178  CD1       17.1760    4.8170   17.4840 C.ar  171  PHE171     -0.0042
    179  CD2       15.9340    6.6570   18.3590 C.ar  171  PHE171     -0.0042
    180  CE1       16.0250    4.3340   16.8620 C.ar  171  PHE171     -0.0003
    181  CE2       14.7770    6.1620   17.7510 C.ar  171  PHE171     -0.0003
    182  CZ        14.8340    5.0060   17.0020 C.ar  171  PHE171     -0.0000
@<TRIPOS>BOND
     1    65    64    2
     2    64    63    1
     3   105   104   ar
     4    63    62    1
     5    63    66    1
     6   104   106   ar
     7   104   103    1
     8    73    72    2
     9    68    66    1
    10   124   125    1
    11    70    71    1
    12    57    56    2
    13    66    67    1
    14   102   103    1
    15   102    99    1
    16    76    74    1
    17    74    71    1
    18    74    75    1
    19   125   126    1
    20   125   128    1
    21    71    72    1
    22    72    77   am
    23   126   127    2
    24    56    55    1
    25    79    80    2
    26    79    78    1
    27    67    69    1
    28    99    98    1
    29    99   100    1
    30    98    93   am
    31    77    78    1
    32    49    48    2
    33   131   129    1
    34    78    81    1
    35   128   129    1
    36   129   130    1
    37    55    58    1
    38    55    54    1
    39   110   109    2
    40   100   107   am
    41   100   101    2
    42    93    92    1
    43    93    94    2
    44   107   108    1
    45    48    54   am
    46    48    47    1
    47    58    59    1
    48    92    95    1
    49    92    91    1
    50   157   155    1
    51    81    83    1
    52    81    82    1
    53   109   108    1
    54   109   118   am
    55    61    59    1
    56   150   151    1
    57    95    96    1
    58    95    97    1
    59    47    46    1
    60    47    50    1
    61   108   111    1
    62   123   122    1
    63   155   154    1
    64    59    60    1
    65   111   112    1
    66   153   152    2
    67   154   151    1
    68   154   156    1
    69   145   144    2
    70   118   119    1
    71   119   122    1
    72   119   120    1
    73   151   152    1
    74    52    50    1
    75   152   158   am
    76    50    51    1
    77   114   112   ar
    78   114   116   ar
    79   112   113   ar
    80   120   121    2
    81   144   143    1
    82    16    17    1
    83    40    39    2
    84    51    53    1
    85    89    88    1
    86    86    85    1
    87    86    87    2
    88    19    18    2
    89   116   117   ar
    90   158   159    1
    91    39    38    1
    92   113   115   ar
    93   146   143    1
    94   146   147    1
    95    85    88    1
    96    85    84    1
    97   143   142    1
    98    17    20    1
    99    17    18    1
   100   159   162    1
   101   159   160    1
   102    18    21   am
   103    88    90    1
   104    27    25    1
   105   162   163    1
   106   148   147    1
   107   117   115   ar
   108   139   141   ar
   109   139   137   ar
   110   147   149    1
   111    38    37    1
   112    38    41    1
   113   132   133    1
   114    21    22    1
   115   160   161    2
   116   160   164   am
   117    42    41    1
   118    42    43    1
   119   136   133    1
   120   136   137    1
   121   141   140   ar
   122    25    22    1
   123    25    26    1
   124    22    23    1
   125   133   134    1
   126   137   138   ar
   127   164   165    1
   128    45    43   ar
   129    43    44   ar
   130   140   138   ar
   131    28    23   am
   132    28    29    1
   133    23    24    2
   134   134   135    2
   135   168   165    1
   136   168   169    1
   137   165   166    1
   138    31    30    2
   139     7     6    1
   140   167   166    2
   141    32    29    1
   142    32    33    1
   143    29    30    1
   144   166   172   am
   145   171   169   ar
   146   169   170   ar
   147    35    36    1
   148    35    34    1
   149     8     6    1
   150    14    13    1
   151    34    33    1
   152     6     5    1
   153   180   182   ar
   154   180   178   ar
   155   182   181   ar
   156   172   173    1
   157   178   177   ar
   158   181   179   ar
   159     5     2    1
   160    13    15    1
   161    13    10    1
   162   173   174    1
   163   173   176    1
   164   177   179   ar
   165   177   176    1
   166    11    10    1
   167    11    12    2
   168    10     9    1
   169   174   175    2
   170     2     1    1
   171     2     3    1
   172     3     4    2
