@<TRIPOS>MOLECULE
tmp/5ew8A00.pdb
 197 185 0 0 0
SMALL
GASTEIGER

@<TRIPOS>ATOM
      1  N         88.3620    6.3230    5.6610 N.3    21  LEU21      -0.1231
      2  CA        87.4080    5.2610    6.0040 C.3    21  LEU21       0.1693
      3  C         86.2910    5.8220    6.8750 C.2    21  LEU21       0.2592
      4  O         85.1300    5.4750    6.6840 O.2    21  LEU21      -0.2718
      5  CB        88.0740    4.0840    6.7160 C.3    21  LEU21       0.0284
      6  CG        89.0190    3.2190    5.8720 C.3    21  LEU21       0.0019
      7  CD1       89.7760    2.2320    6.7720 C.3    21  LEU21       0.0001
      8  CD2       88.2510    2.4640    4.7470 C.3    21  LEU21       0.0001
      9  N         86.6580    6.6910    7.8050 N.am   22  GLY22      -0.1957
     10  CA        85.7350    7.3320    8.7280 C.3    22  GLY22       0.1869
     11  C         86.3360    8.5380    9.4170 C.2    22  GLY22       0.2309
     12  O         87.5500    8.7470    9.3770 O.2    22  GLY22      -0.2863
     13  N         90.1610    8.2540   10.3890 N.3    29  VAL29      -0.1245
     14  CA        90.6920    6.9150   10.1070 C.3    29  VAL29       0.1561
     15  C         90.8660    6.7790    8.5980 C.2    29  VAL29       0.2260
     16  O         89.9580    7.1340    7.8310 O.2    29  VAL29      -0.2867
     17  CB        89.7710    5.7900   10.6670 C.3    29  VAL29       0.0252
     18  CG1       90.3330    4.4020   10.3500 C.3    29  VAL29       0.0019
     19  CG2       89.5890    5.9460   12.1820 C.3    29  VAL29       0.0019
     20  N         93.9960   -0.2010    9.0270 N.3    49  ALA49      -0.1245
     21  CA        93.2870    1.0670    9.2300 C.3    49  ALA49       0.1562
     22  C         94.1780    1.9020   10.1680 C.2    49  ALA49       0.2260
     23  O         94.8090    1.3580   11.0670 O.2    49  ALA49      -0.2867
     24  CB        91.9250    0.8450    9.8620 C.3    49  ALA49       0.0290
     25  N         94.2730    5.3410   12.6570 N.3    51  LYS51      -0.1245
     26  CA        93.5830    6.4440   13.3200 C.3    51  LYS51       0.1561
     27  C         94.6170    7.5210   13.6600 C.2    51  LYS51       0.2260
     28  O         95.7180    7.2350   14.1260 O.2    51  LYS51      -0.2867
     29  CB        92.8950    5.9820   14.6080 C.3    51  LYS51       0.0271
     30  CG        92.0370    7.1080   15.2140 C.3    51  LYS51       0.0035
     31  CD        91.0890    6.5270   16.2800 C.3    51  LYS51       0.0206
     32  CE        90.2530    7.6180   16.9010 C.3    51  LYS51       0.1093
     33  NZ        89.3330    7.0400   17.9580 N.3    51  LYS51      -0.1314
     34  N         93.4870   10.0250   22.2990 N.3    65  LEU65      -0.1245
     35  CA        93.9450    9.0070   21.3390 C.3    65  LEU65       0.1561
     36  C         95.0030    8.1090   21.9960 C.2    65  LEU65       0.2260
     37  O         95.0050    6.8960   21.7880 O.2    65  LEU65      -0.2867
     38  CB        94.4970    9.6670   20.0570 C.3    65  LEU65       0.0270
     39  CG        94.9250    8.7160   18.9180 C.3    65  LEU65       0.0019
     40  CD1       93.8020    7.6920   18.6040 C.3    65  LEU65       0.0001
     41  CD2       95.2750    9.5080   17.6490 C.3    65  LEU65       0.0001
     42  N         93.2920    5.5970   24.4060 N.3    68  GLU68      -0.1245
     43  CA        92.6410    4.5080   23.6680 C.3    68  GLU68       0.1567
     44  C         93.7000    3.4770   23.2180 C.2    68  GLU68       0.2260
     45  O         93.4820    2.2890   23.4090 O.2    68  GLU68      -0.2867
     46  CB        91.9150    5.0970   22.4520 C.3    68  GLU68       0.0388
     47  CG        91.2340    4.0470   21.5920 C.3    68  GLU68       0.1160
     48  CD        90.4020    4.6110   20.4570 C.2    68  GLU68       0.3649
     49  OE1       90.5490    5.8230   20.1680 O.co2  68  GLU68      -0.2457
     50  OE2       89.6150    3.8400   19.8490 O.co2  68  GLU68      -0.2457
     51  N         94.1020   -0.4620   24.4490 N.3    72  MET72      -0.1245
     52  CA        94.1640   -1.5870   23.4950 C.3    72  MET72       0.1570
     53  C         95.4000   -2.4540   23.7170 C.2    72  MET72       0.2261
     54  O         95.2970   -3.6720   23.6770 O.2    72  MET72      -0.2867
     55  CB        94.0460   -1.0900   22.0600 C.3    72  MET72       0.0387
     56  CG        92.6520   -0.5120   21.7980 C.3    72  MET72       0.0595
     57  SD        92.5740    0.1860   20.1180 S.3    72  MET72      -0.1393
     58  CE        92.5580   -1.2990   19.1360 C.3    72  MET72       0.0692
     59  N         88.5270   -5.4830   16.9990 N.3    82  ILE82      -0.1245
     60  CA        89.4520   -4.7900   16.0670 C.3    82  ILE82       0.1561
     61  C         90.7450   -4.6770   16.8680 C.2    82  ILE82       0.2260
     62  O         90.7820   -4.0030   17.9020 O.2    82  ILE82      -0.2867
     63  CB        88.9230   -3.3820   15.6890 C.3    82  ILE82       0.0252
     64  CG1       87.7060   -3.4640   14.7250 C.3    82  ILE82       0.0019
     65  CG2       90.0540   -2.5220   15.0380 C.3    82  ILE82       0.0019
     66  CD1       88.0400   -4.0030   13.2760 C.3    82  ILE82       0.0001
     67  N         97.7800    5.3830   14.9910 N.3    96  VAL96      -0.1245
     68  CA        97.4420    4.1540   15.7270 C.3    96  VAL96       0.1561
     69  C         96.9440    3.1790   14.6660 C.2    96  VAL96       0.2260
     70  O         95.9690    3.4690   13.9800 O.2    96  VAL96      -0.2867
     71  CB        96.3910    4.4110   16.8300 C.3    96  VAL96       0.0252
     72  CG1       96.1090    3.1190   17.6020 C.3    96  VAL96       0.0019
     73  CG2       96.8740    5.5140   17.7970 C.3    96  VAL96       0.0019
     74  N         95.4760   -0.2760   13.2560 N.3    98  VAL98      -0.1231
     75  CA        94.5590   -1.3360   13.6960 C.3    98  VAL98       0.1692
     76  C         94.1110   -2.1970   12.5070 C.2    98  VAL98       0.2592
     77  O         94.3800   -1.8570   11.3590 O.2    98  VAL98      -0.2718
     78  CB        93.3290   -0.7570   14.4810 C.3    98  VAL98       0.0266
     79  CG1       93.7830    0.0930   15.6580 C.3    98  VAL98       0.0020
     80  CG2       92.4270    0.0620   13.5470 C.3    98  VAL98       0.0020
     81  N         93.4200   -3.3190   12.7980 N.am   99  GLU99      -0.1966
     82  CA        92.9250   -4.1860   11.7320 C.3    99  GLU99       0.1733
     83  C         91.9030   -3.4840   10.8610 C.2    99  GLU99       0.2616
     84  O         91.0990   -2.6930   11.3420 O.2    99  GLU99      -0.2715
     85  CB        92.3160   -5.4560   12.3270 C.3    99  GLU99       0.0429
     86  CG        93.3820   -6.3730   12.9020 C.3    99  GLU99       0.1163
     87  CD        92.8320   -7.5820   13.6200 C.2    99  GLU99       0.3649
     88  OE1       91.7740   -7.4490   14.2740 O.co2  99  GLU99      -0.2457
     89  OE2       93.4950   -8.6480   13.5870 O.co2  99  GLU99      -0.2457
     90  N         91.9710   -3.7700    9.5590 N.am  100  TYR100     -0.1960
     91  CA        91.0520   -3.2380    8.5720 C.3   100  TYR100      0.1771
     92  C         89.8750   -4.2350    8.3900 C.2   100  TYR100      0.2619
     93  O         90.0890   -5.4400    8.2250 O.2   100  TYR100     -0.2715
     94  CB        91.8360   -3.1030    7.2570 C.3   100  TYR100      0.0574
     95  CG        90.9930   -2.7820    6.0530 C.ar  100  TYR100     -0.0198
     96  CD1       90.1420   -1.6760    6.0440 C.ar  100  TYR100     -0.0009
     97  CD2       91.0980   -3.5360    4.8930 C.ar  100  TYR100     -0.0009
     98  CE1       89.4010   -1.3430    4.9000 C.ar  100  TYR100      0.0417
     99  CE2       90.3450   -3.2350    3.7650 C.ar  100  TYR100      0.0417
    100  CZ        89.5010   -2.1400    3.7710 C.ar  100  TYR100      0.1957
    101  OH        88.8180   -1.8490    2.6000 O.3   100  TYR100     -0.2866
    102  N         88.6500   -3.7100    8.3510 N.am  101  ALA101     -0.1963
    103  CA        87.4410   -4.5240    8.2080 C.3   101  ALA101      0.1728
    104  C         86.7350   -4.0300    6.9590 C.2   101  ALA101      0.2617
    105  O         85.9520   -3.0840    6.9840 O.2   101  ALA101     -0.2715
    106  CB        86.5620   -4.3540    9.4510 C.3   101  ALA101      0.0334
    107  N         87.0780   -4.6440    5.8310 N.am  102  SER102     -0.1936
    108  CA        86.6820   -4.1690    4.5150 C.3   102  SER102      0.2055
    109  C         85.1880   -4.0090    4.2590 C.2   102  SER102      0.2643
    110  O         84.8100   -3.2030    3.4010 O.2   102  SER102     -0.2714
    111  CB        87.2900   -5.0540    3.4350 C.3   102  SER102      0.2130
    112  OG        86.6290   -6.3030    3.3730 O.3   102  SER102     -0.2179
    113  N         84.3500   -4.7710    4.9600 N.am  103  LYS103     -0.1963
    114  CA        82.9110   -4.7400    4.7090 C.3   103  LYS103      0.1728
    115  C         82.1700   -3.7020    5.5640 C.2   103  LYS103      0.2617
    116  O         80.9530   -3.5880    5.4370 O.2   103  LYS103     -0.2715
    117  CB        82.2900   -6.1500    4.8130 C.3   103  LYS103      0.0311
    118  CG        82.7940   -7.0700    3.7040 C.3   103  LYS103      0.0038
    119  CD        82.0540   -8.3990    3.6370 C.3   103  LYS103      0.0206
    120  CE        82.6350   -9.2340    2.5140 C.3   103  LYS103      0.1093
    121  NZ        82.0080  -10.5720    2.4500 N.3   103  LYS103     -0.1314
    122  N         82.8980   -2.9210    6.3750 N.am  104  GLY104     -0.1940
    123  CA        82.3170   -1.8320    7.1490 C.3   104  GLY104      0.2014
    124  C         81.4970   -2.2370    8.3480 C.2   104  GLY104      0.2638
    125  O         81.6650   -3.3360    8.8720 O.2   104  GLY104     -0.2714
    126  N         80.6010   -1.3410    8.8030 N.am  105  ASN105     -0.1972
    127  CA        79.8710   -1.6300   10.0440 C.3   105  ASN105      0.1688
    128  C         78.7330   -2.6300    9.8450 C.2   105  ASN105      0.2292
    129  O         78.2110   -2.7710    8.7330 O.2   105  ASN105     -0.2864
    130  CB        79.4290   -0.3420   10.7630 C.3   105  ASN105      0.1181
    131  CG        78.2270    0.3540   10.1930 C.2   105  ASN105      0.2629
    132  OD1       77.1390   -0.2080   10.1020 O.2   105  ASN105     -0.2716
    133  ND2       78.3990    1.6100    9.8460 N.am  105  ASN105     -0.0877
    134  N         75.1360   -1.3600    8.3820 N.3   108  GLU108     -0.1196
    135  CA        75.1390   -1.2530    6.9000 C.3   108  GLU108      0.1783
    136  C         75.2370   -2.6360    6.2270 C.2   108  GLU108      0.2306
    137  O         74.6080   -2.8650    5.1930 O.2   108  GLU108     -0.2863
    138  CB        76.3090   -0.3650    6.4570 C.2   108  GLU108      0.0071
    139  CG        76.1930    1.1080    6.8140 C.2   108  GLU108      0.0834
    140  CD        77.4660    1.9420    6.7350 C.2   108  GLU108      0.3877
    141  OE1       78.5520    1.3710    6.4740 O.co2 108  GLU108     -0.2406
    142  OE2       77.3830    3.1660    6.9940 O.co2 108  GLU108     -0.2406
    143  N         76.4400   -0.3670   14.8630 N.3   153  ARG153     -0.1231
    144  CA        77.3060    0.6600   14.2420 C.3   153  ARG153      0.1694
    145  C         78.7600    0.5240   14.7260 C.2   153  ARG153      0.2592
    146  O         79.6680    1.0000   14.0250 O.2   153  ARG153     -0.2718
    147  CB        76.8140    2.0930   14.5350 C.3   153  ARG153      0.0321
    148  CG        76.7490    2.4630   16.0330 C.3   153  ARG153      0.0489
    149  CD        76.2470    3.8970   16.3370 C.3   153  ARG153      0.2205
    150  NE        75.9390    3.9830   17.7690 N.pl3 153  ARG153     -0.0865
    151  CZ        74.7450    3.7230   18.2840 C.cat 153  ARG153      0.5346
    152  NH1       73.7220    3.4250   17.4890 N.pl3 153  ARG153      0.1354
    153  NH2       74.5680    3.7310   19.5960 N.pl3 153  ARG153      0.1354
    154  N         78.9610   -0.0630   15.9330 N.am  154  ASN154     -0.1974
    155  CA        80.2820   -0.2140   16.5330 C.3   154  ASN154      0.1688
    156  C         80.8490   -1.6150   16.3810 C.2   154  ASN154      0.2292
    157  O         81.7510   -2.0000   17.1270 O.2   154  ASN154     -0.2864
    158  CB        80.2700    0.2620   17.9960 C.3   154  ASN154      0.1181
    159  CG        80.1750    1.7640   18.0590 C.2   154  ASN154      0.2629
    160  OD1       80.7030    2.4810   17.1900 O.2   154  ASN154     -0.2716
    161  ND2       79.4050    2.2860   18.9970 N.am  154  ASN154     -0.0877
    162  N         82.4180   -4.0240   13.3160 N.3   156  LEU156     -0.1245
    163  CA        82.8720   -3.9980   11.9230 C.3   156  LEU156      0.1561
    164  C         82.9780   -5.3950   11.3670 C.2   156  LEU156      0.2260
    165  O         83.1510   -6.3620   12.1170 O.2   156  LEU156     -0.2867
    166  CB        84.2190   -3.2270   11.8030 C.3   156  LEU156      0.0270
    167  CG        84.2230   -1.7630   12.2710 C.3   156  LEU156      0.0019
    168  CD1       85.6360   -1.1890   12.2470 C.3   156  LEU156      0.0001
    169  CD2       83.3370   -0.8730   11.3600 C.3   156  LEU156      0.0001
    170  N         84.4530   -2.7220   17.6100 N.3   166  ALA166     -0.1231
    171  CA        85.2660   -1.5310   17.4140 C.3   166  ALA166      0.1694
    172  C         85.1120   -0.5870   18.6030 C.2   166  ALA166      0.2592
    173  O         84.0940   -0.6370   19.3010 O.2   166  ALA166     -0.2718
    174  CB        84.8260   -0.8190   16.1300 C.3   166  ALA166      0.0304
    175  N         86.0650    0.3440   18.7470 N.am  167  ASP167     -0.1960
    176  CA        86.0150    1.4830   19.6730 C.3   167  ASP167      0.1840
    177  C         85.7440    1.1070   21.1220 C.2   167  ASP167      0.2622
    178  O         85.1260    1.8750   21.8780 O.2   167  ASP167     -0.2715
    179  CB        84.9770    2.4980   19.1560 C.3   167  ASP167      0.1450
    180  CG        85.3540    3.1380   17.8120 C.2   167  ASP167      0.3671
    181  OD1       86.3650    2.7310   17.2280 O.co2 167  ASP167     -0.2456
    182  OD2       84.6030    4.0370   17.3420 O.co2 167  ASP167     -0.2456
    183  N         86.2670   -0.0380   21.5390 N.am  168  PHE168     -0.1960
    184  CA        86.0980   -0.5010   22.9190 C.3   168  PHE168      0.1771
    185  C         87.0050    0.2590   23.9160 C.2   168  PHE168      0.2620
    186  O         86.8060    0.1340   25.1260 O.2   168  PHE168     -0.2715
    187  CB        86.2800   -2.0250   22.9990 C.3   168  PHE168      0.0574
    188  CG        87.5980   -2.5200   22.4580 C.ar  168  PHE168     -0.0200
    189  CD1       88.7470   -2.5200   23.2570 C.ar  168  PHE168     -0.0042
    190  CD2       87.7080   -2.9680   21.1340 C.ar  168  PHE168     -0.0042
    191  CE1       89.9820   -2.9550   22.7350 C.ar  168  PHE168     -0.0003
    192  CE2       88.9300   -3.4460   20.6380 C.ar  168  PHE168     -0.0003
    193  CZ        90.0630   -3.4390   21.4370 C.ar  168  PHE168     -0.0000
    194  N         87.9890    0.9940   23.4170 N.am  169  GLY169     -0.1954
    195  CA        88.9200    1.7540   24.2600 C.3   169  GLY169      0.1869
    196  C         88.7730    3.2540   24.1330 C.2   169  GLY169      0.2309
    197  O         89.5820    4.0100   24.6700 O.2   169  GLY169     -0.2863
@<TRIPOS>BOND
     1   121   120    1
     2   120   119    1
     3   101   100    1
     4   112   111    1
     5   110   109    2
     6   111   108    1
     7   119   118    1
     8   118   117    1
     9    99   100   ar
    10    99    97   ar
    11   100    98   ar
    12   109   108    1
    13   109   113   am
    14   108   107    1
    15   114   117    1
    16   114   113    1
    17   114   115    1
    18     8     6    1
    19    97    95   ar
    20    98    96   ar
    21   137   136    2
    22   116   115    2
    23   115   122   am
    24     1     2    1
    25   107   104   am
    26     6     5    1
    27     6     7    1
    28     2     5    1
    29     2     3    1
    30    96    95   ar
    31    95    94    1
    32   136   135    1
    33   122   123    1
    34   138   139    2
    35   138   135    1
    36   141   140   ar
    37     4     3    2
    38   140   139    1
    39   140   142   ar
    40     3     9   am
    41   135   134    1
    42   104   105    2
    43   104   103    1
    44   123   124    1
    45    94    91    1
    46     9    10    1
    47    16    15    2
    48   103   102    1
    49   103   106    1
    50    93    92    2
    51   124   126   am
    52   124   125    2
    53   102    92   am
    54    92    91    1
    55    91    90    1
    56    15    14    1
    57    10    11    1
    58   129   128    2
    59   126   127    1
    60    20    21    1
    61    21    24    1
    62    21    22    1
    63    12    11    2
    64    90    83   am
    65   128   127    1
    66   133   131   am
    67   127   130    1
    68   132   131    2
    69    14    13    1
    70    14    17    1
    71    22    23    2
    72   131   130    1
    73    18    17    1
    74    17    19    1
    75    83    84    2
    76    83    82    1
    77    77    76    2
    78   169   167    1
    79   164   163    1
    80   164   165    2
    81    82    85    1
    82    82    81    1
    83   166   163    1
    84   166   167    1
    85   163   162    1
    86   168   167    1
    87    85    86    1
    88    76    81   am
    89    76    75    1
    90    25    26    1
    91    86    87    1
    92    74    75    1
    93    66    64    1
    94    26    27    1
    95    26    29    1
    96    80    78    1
    97    89    87   ar
    98    87    88   ar
    99    27    28    2
   100    75    78    1
   101    70    69    2
   102   146   145    2
   103   144   147    1
   104   144   145    1
   105   144   143    1
   106    78    79    1
   107   147   148    1
   108    29    30    1
   109    69    68    1
   110    64    63    1
   111   145   154   am
   112    67    68    1
   113    65    63    1
   114    30    31    1
   115    63    60    1
   116    68    71    1
   117   154   155    1
   118   148   149    1
   119    60    61    1
   120    60    59    1
   121   174   171    1
   122    31    32    1
   123   149   150    1
   124   156   155    1
   125   156   157    2
   126   155   158    1
   127    71    72    1
   128    71    73    1
   129    61    62    2
   130    32    33    1
   131   160   159    2
   132   181   180   ar
   133   182   180   ar
   134   171   170    1
   135   171   172    1
   136   152   151    1
   137    41    39    1
   138   150   151    2
   139   180   179    1
   140   158   159    1
   141   159   161   am
   142   151   153    1
   143   172   175   am
   144   172   173    2
   145    40    39    1
   146   175   176    1
   147    39    38    1
   148    58    57    1
   149   179   176    1
   150   176   177    1
   151    50    48   ar
   152    38    35    1
   153    57    56    1
   154    49    48   ar
   155    48    47    1
   156   192   190   ar
   157   192   193   ar
   158   177   183   am
   159   177   178    2
   160   190   188   ar
   161    35    36    1
   162    35    34    1
   163   193   191   ar
   164   183   184    1
   165    47    46    1
   166    37    36    2
   167    56    55    1
   168    55    52    1
   169    46    43    1
   170   188   187    1
   171   188   189   ar
   172   191   189   ar
   173   184   187    1
   174   184   185    1
   175    44    45    2
   176    44    43    1
   177   194   185   am
   178   194   195    1
   179    52    53    1
   180    52    51    1
   181    43    42    1
   182    54    53    2
   183   185   186    2
   184   196   195    1
   185   196   197    2
