@<TRIPOS>MOLECULE
tmp/5ew9A00.pdb
 180 173 0 0 0
SMALL
GASTEIGER

@<TRIPOS>ATOM
      1  N        -13.8150   14.7630   23.4020 N.3    13  LEU13      -0.1231
      2  CA       -14.4360   13.6430   22.7220 C.3    13  LEU13       0.1693
      3  C        -13.6080   12.3860   22.9630 C.2    13  LEU13       0.2593
      4  O        -14.1520   11.3050   23.1970 O.2    13  LEU13      -0.2718
      5  CB       -14.5750   13.9360   21.2350 C.3    13  LEU13       0.0284
      6  CG       -15.7720   14.8290   20.8970 C.3    13  LEU13       0.0019
      7  CD1      -15.7490   15.2280   19.4470 C.3    13  LEU13       0.0001
      8  CD2      -17.0920   14.1190   21.2360 C.3    13  LEU13       0.0001
      9  N        -12.2900   12.5450   22.9220 N.am   14  GLY14      -0.1942
     10  CA       -11.3790   11.4660   23.2520 C.3    14  GLY14       0.2014
     11  C         -9.9340   11.8940   23.0950 C.2    14  GLY14       0.2639
     12  O         -9.6570   13.0080   22.6510 O.2    14  GLY14      -0.2714
     13  N         -9.0120   11.0120   23.4680 N.am   15  LYS15      -0.1963
     14  CA        -7.5890   11.2770   23.3080 C.3    15  LYS15       0.1728
     15  C         -7.0550   10.5330   22.0900 C.2    15  LYS15       0.2616
     16  O         -7.1750    9.3090   21.9840 O.2    15  LYS15      -0.2715
     17  CB        -6.8190   10.8610   24.5590 C.3    15  LYS15       0.0311
     18  CG        -5.3370   11.2040   24.5460 C.3    15  LYS15       0.0038
     19  CD        -4.6480   10.6180   25.7790 C.3    15  LYS15       0.0206
     20  CE        -3.2160   11.0740   25.9250 C.3    15  LYS15       0.1093
     21  NZ        -2.3360   10.6310   24.8360 N.3    15  LYS15      -0.1314
     22  N         -6.4760   11.2730   21.1580 N.am   16  GLY16      -0.1955
     23  CA        -5.9490   10.6540   19.9610 C.3    16  GLY16       0.1869
     24  C         -4.4440   10.7530   19.9540 C.2    16  GLY16       0.2309
     25  O         -3.8320   11.0990   20.9700 O.2    16  GLY16      -0.2863
     26  N         -9.1490   15.6790   21.2630 N.3    21  VAL21      -0.1245
     27  CA       -10.0830   16.3510   20.3740 C.3    21  VAL21       0.1561
     28  C        -11.3410   16.7270   21.1620 C.2    21  VAL21       0.2260
     29  O        -11.8400   15.9340   21.9610 O.2    21  VAL21      -0.2867
     30  CB       -10.3870   15.4870   19.1380 C.3    21  VAL21       0.0252
     31  CG1      -10.7430   14.0810   19.5540 C.3    21  VAL21       0.0019
     32  CG2      -11.4680   16.1280   18.2940 C.3    21  VAL21       0.0019
     33  N        -15.7820   19.9810   15.8670 N.3    34  ALA34      -0.1245
     34  CA       -14.7600   19.2560   16.6180 C.3    34  ALA34       0.1562
     35  C        -13.4600   20.0310   16.5620 C.2    34  ALA34       0.2260
     36  O        -13.0760   20.5290   15.5030 O.2    34  ALA34      -0.2867
     37  CB       -14.5490   17.8470   16.0480 C.3    34  ALA34       0.0290
     38  N         -9.5000   19.5730   17.1790 N.3    36  LYS36      -0.1245
     39  CA        -8.3950   18.6520   17.4170 C.3    36  LYS36       0.1561
     40  C         -7.1500   19.4390   17.8060 C.2    36  LYS36       0.2260
     41  O         -6.7710   20.4070   17.1380 O.2    36  LYS36      -0.2867
     42  CB        -8.1220   17.7870   16.1730 C.3    36  LYS36       0.0271
     43  CG        -6.8480   16.9560   16.2550 C.3    36  LYS36       0.0035
     44  CD        -7.0590   15.6730   17.0470 C.3    36  LYS36       0.0206
     45  CE        -5.7250   14.9600   17.2800 C.3    36  LYS36       0.1093
     46  NZ        -5.9070   13.5920   17.8370 N.3    36  LYS36      -0.1314
     47  N        -14.1070   13.9930    6.1440 N.3    68  LEU68      -0.1245
     48  CA       -14.2910   14.8560    7.3260 C.3    68  LEU68       0.1561
     49  C        -13.8400   16.2790    7.0370 C.2    68  LEU68       0.2260
     50  O        -12.6440   16.5440    6.8720 O.2    68  LEU68      -0.2867
     51  CB       -13.5400   14.3280    8.5500 C.3    68  LEU68       0.0270
     52  CG       -13.8540   15.0310    9.8720 C.3    68  LEU68       0.0019
     53  CD1      -15.2020   14.5650   10.3660 C.3    68  LEU68       0.0001
     54  CD2      -12.8040   14.7740   10.9430 C.3    68  LEU68       0.0001
     55  N        -12.6400   21.0250   12.8950 N.3    84  LEU84      -0.1231
     56  CA       -13.1130   19.8890   12.1090 C.3    84  LEU84       0.1693
     57  C        -14.6270   19.7190   12.1830 C.2    84  LEU84       0.2592
     58  O        -15.2550   20.0990   13.1710 O.2    84  LEU84      -0.2718
     59  CB       -12.4410   18.6120   12.6070 C.3    84  LEU84       0.0284
     60  CG       -10.9210   18.5680   12.4580 C.3    84  LEU84       0.0019
     61  CD1      -10.3250   17.4700   13.3190 C.3    84  LEU84       0.0001
     62  CD2      -10.5900   18.3360   10.9830 C.3    84  LEU84       0.0001
     63  N        -15.2100   19.1540   11.1300 N.am   85  GLU85      -0.1966
     64  CA       -16.5960   18.6930   11.1930 C.3    85  GLU85       0.1733
     65  C        -16.6910   17.7030   12.3440 C.2    85  GLU85       0.2616
     66  O        -15.7630   16.8960   12.5560 O.2    85  GLU85      -0.2715
     67  CB       -16.9940   18.0080    9.8760 C.3    85  GLU85       0.0429
     68  CG       -18.3170   17.2500    9.9120 C.3    85  GLU85       0.1163
     69  CD       -18.5740   16.4710    8.6350 C.2    85  GLU85       0.3649
     70  OE1      -19.6320   15.8160    8.5320 O.co2  85  GLU85      -0.2457
     71  OE2      -17.7110   16.5060    7.7360 O.co2  85  GLU85      -0.2457
     72  N        -17.7860   17.7620   13.0970 N.am   86  TYR86      -0.1960
     73  CA       -18.0150   16.7950   14.1820 C.3    86  TYR86       0.1771
     74  C        -18.7130   15.5400   13.6530 C.2    86  TYR86       0.2619
     75  O        -19.7850   15.6250   13.0540 O.2    86  TYR86      -0.2715
     76  CB       -18.8290   17.4520   15.3030 C.3    86  TYR86       0.0574
     77  CG       -19.3870   16.5200   16.3680 C.ar   86  TYR86      -0.0198
     78  CD1      -20.7230   16.5910   16.7480 C.ar   86  TYR86      -0.0009
     79  CD2      -18.5790   15.5970   17.0080 C.ar   86  TYR86      -0.0009
     80  CE1      -21.2380   15.7560   17.7330 C.ar   86  TYR86       0.0417
     81  CE2      -19.0840   14.7570   17.9810 C.ar   86  TYR86       0.0417
     82  CZ       -20.4080   14.8460   18.3400 C.ar   86  TYR86       0.1957
     83  OH       -20.8860   14.0070   19.3080 O.3    86  TYR86      -0.2866
     84  N        -18.0930   14.3830   13.8690 N.am   87  ALA87      -0.1964
     85  CA       -18.6650   13.0860   13.4710 C.3    87  ALA87       0.1713
     86  C        -19.1400   12.3360   14.7100 C.2    87  ALA87       0.2458
     87  O        -18.3390   11.7000   15.4040 O.2    87  ALA87      -0.2730
     88  CB       -17.6230   12.2520   12.7180 C.3    87  ALA87       0.0333
     89  N        -20.4480   12.3980   14.9860 N.am   88  PRO88      -0.2716
     90  CA       -20.9680   11.9950   16.2960 C.3    88  PRO88       0.1536
     91  C        -20.7050   10.5360   16.6440 C.2    88  PRO88       0.2598
     92  O        -20.5230   10.2450   17.8250 O.2    88  PRO88      -0.2715
     93  CB       -22.4780   12.2490   16.1680 C.3    88  PRO88       0.0310
     94  CG       -22.6060   13.2740   15.1010 C.3    88  PRO88       0.0237
     95  CD       -21.4990   12.9620   14.1200 C.3    88  PRO88       0.0939
     96  N        -20.6740    9.6420   15.6590 N.am   89  LEU89      -0.1964
     97  CA       -20.6220    8.2110   15.9690 C.3    89  LEU89       0.1728
     98  C        -19.2080    7.6220   16.0730 C.2    89  LEU89       0.2617
     99  O        -19.0490    6.4080   16.1710 O.2    89  LEU89      -0.2715
    100  CB       -21.4800    7.4080   14.9870 C.3    89  LEU89       0.0311
    101  CG       -22.9790    7.6990   15.0510 C.3    89  LEU89       0.0022
    102  CD1      -23.7630    6.7770   14.1380 C.3    89  LEU89       0.0001
    103  CD2      -23.4570    7.5680   16.4780 C.3    89  LEU89       0.0001
    104  N        -18.1870    8.4750   16.0720 N.am   90  GLY90      -0.1940
    105  CA       -16.8240    8.0160   16.3040 C.3    90  GLY90       0.2014
    106  C        -16.2280    7.1880   15.1780 C.2    90  GLY90       0.2639
    107  O        -16.7500    7.1820   14.0620 O.2    90  GLY90      -0.2714
    108  N        -15.1360    6.4840   15.4690 N.am   91  THR91      -0.1950
    109  CA       -14.4010    5.7390   14.4430 C.3    91  THR91       0.1897
    110  C        -15.0720    4.4350   14.0690 C.2    91  THR91       0.2313
    111  O        -15.6240    3.7380   14.9260 O.2    91  THR91      -0.2863
    112  CB       -12.9580    5.3890   14.8860 C.3    91  THR91       0.1794
    113  OG1      -13.0030    4.4660   15.9800 O.3    91  THR91      -0.2208
    114  CG2      -12.2180    6.6150   15.3390 C.3    91  THR91       0.0378
    115  N        -13.7430    1.3700   16.1570 N.3    94  ARG94      -0.1245
    116  CA       -14.3200    0.9150   17.4110 C.3    94  ARG94       0.1563
    117  C        -15.4160   -0.0940   17.1160 C.2    94  ARG94       0.2260
    118  O        -15.4920   -1.1470   17.7600 O.2    94  ARG94      -0.2867
    119  CB       -14.8600    2.1110   18.1940 C.3    94  ARG94       0.0307
    120  CG       -15.3980    1.7750   19.5670 C.3    94  ARG94       0.0489
    121  CD       -14.8840    2.7740   20.5990 C.3    94  ARG94       0.2205
    122  NE       -15.3780    4.1250   20.3550 N.pl3  94  ARG94      -0.0865
    123  CZ       -16.4950    4.6130   20.8870 C.cat  94  ARG94       0.5346
    124  NH1      -17.2380    3.8630   21.6950 N.pl3  94  ARG94       0.1354
    125  NH2      -16.8720    5.8560   20.6160 N.pl3  94  ARG94       0.1354
    126  N         -9.0990    3.3070   11.8080 N.3   134  GLU134     -0.1231
    127  CA        -8.8310    4.3710   12.7710 C.3   134  GLU134      0.1699
    128  C         -9.0510    5.7830   12.2110 C.2   134  GLU134      0.2592
    129  O         -9.3740    6.7080   12.9690 O.2   134  GLU134     -0.2718
    130  CB        -7.3990    4.2430   13.3130 C.3   134  GLU134      0.0402
    131  CG        -7.2020    3.0970   14.2980 C.3   134  GLU134      0.1161
    132  CD        -5.7420    2.7020   14.4500 C.2   134  GLU134      0.3649
    133  OE1       -5.1140    3.1180   15.4470 O.co2 134  GLU134     -0.2457
    134  OE2       -5.2270    1.9740   13.5690 O.co2 134  GLU134     -0.2457
    135  N         -8.8660    5.9520   10.9010 N.am  135  ASN135     -0.1974
    136  CA        -9.0180    7.2660   10.2490 C.3   135  ASN135      0.1688
    137  C        -10.3800    7.4730    9.6030 C.2   135  ASN135      0.2292
    138  O        -10.5880    8.4520    8.8930 O.2   135  ASN135     -0.2864
    139  CB        -7.9230    7.4890    9.2000 C.3   135  ASN135      0.1181
    140  CG        -6.5750    7.6990    9.8220 C.2   135  ASN135      0.2629
    141  OD1       -6.4840    7.9570   11.0230 O.2   135  ASN135     -0.2716
    142  ND2       -5.5140    7.6040    9.0170 N.am  135  ASN135     -0.0877
    143  N        -14.2180    8.1560   10.2940 N.3   137  LEU137     -0.1245
    144  CA       -15.1900    8.5810   11.2900 C.3   137  LEU137      0.1561
    145  C        -16.6110    8.4000   10.7460 C.2   137  LEU137      0.2260
    146  O        -16.8030    8.2040    9.5430 O.2   137  LEU137     -0.2867
    147  CB       -14.9350   10.0250   11.7280 C.3   137  LEU137      0.0270
    148  CG       -13.5800   10.2720   12.3910 C.3   137  LEU137      0.0019
    149  CD1      -13.4680   11.6620   12.9820 C.3   137  LEU137      0.0001
    150  CD2      -13.3410    9.2410   13.4630 C.3   137  LEU137      0.0001
    151  N        -10.8810   10.7270    7.6150 N.3   147  ALA147     -0.1245
    152  CA       -10.2340   11.7190    8.4740 C.3   147  ALA147      0.1562
    153  C         -8.7360   11.4540    8.6090 C.2   147  ALA147      0.2260
    154  O         -8.2360   11.0980    9.6910 O.2   147  ALA147     -0.2867
    155  CB       -10.8990   11.7550    9.8370 C.3   147  ALA147      0.0290
    156  N         -5.2020   13.2730    8.1530 N.3   149  PHE149     -0.1241
    157  CA        -4.5160   14.5430    8.0140 C.3   149  PHE149      0.1605
    158  C         -3.0070   14.3620    8.0720 C.2   149  PHE149      0.2264
    159  O         -2.2790   15.2510    8.5160 O.2   149  PHE149     -0.2867
    160  CB        -5.0250   15.5330    9.0690 C.3   149  PHE149      0.0534
    161  CG        -6.4910   15.7990    8.9460 C.ar  149  PHE149     -0.0203
    162  CD1       -6.9660   16.7080    8.0160 C.ar  149  PHE149     -0.0042
    163  CD2       -7.3990   15.0800    9.7010 C.ar  149  PHE149     -0.0042
    164  CE1       -8.3250   16.9270    7.8690 C.ar  149  PHE149     -0.0003
    165  CE2       -8.7510   15.2910    9.5620 C.ar  149  PHE149     -0.0003
    166  CZ        -9.2180   16.2140    8.6400 C.ar  149  PHE149     -0.0000
    167  N         -0.8940   12.0760    9.6650 N.3   151  TRP151     -0.1241
    168  CA        -0.1030   11.9010   10.8720 C.3   151  TRP151      0.1605
    169  C          0.3810   10.4730   11.1700 C.2   151  TRP151      0.2264
    170  O          0.7260   10.1520   12.3130 O.2   151  TRP151     -0.2867
    171  CB        -0.7480   12.5960   12.0830 C.3   151  TRP151      0.0550
    172  CG        -2.0650   12.0690   12.5430 C.ar  151  TRP151      0.0003
    173  CD1       -2.3730   10.7760   12.8440 C.ar  151  TRP151      0.0946
    174  CD2       -3.2400   12.8330   12.8250 C.ar  151  TRP151      0.0152
    175  NE1       -3.6780   10.6830   13.2680 N.ar  151  TRP151     -0.2442
    176  CE2       -4.2370   11.9490   13.2670 C.ar  151  TRP151      0.0810
    177  CE3       -3.5560   14.2000   12.7330 C.ar  151  TRP151      0.0012
    178  CZ2       -5.5240   12.3630   13.6230 C.ar  151  TRP151      0.0191
    179  CZ3       -4.8360   14.6150   13.0750 C.ar  151  TRP151      0.0001
    180  CH2       -5.8030   13.7010   13.5110 C.ar  151  TRP151      0.0015
@<TRIPOS>BOND
     1    47    48    1
     2    50    49    2
     3    49    48    1
     4    48    51    1
     5   151   152    1
     6    71    69   ar
     7   164   162   ar
     8   164   166   ar
     9   157   158    1
    10   157   156    1
    11   157   160    1
    12   162   161   ar
    13   158   159    2
    14   152   153    1
    15   152   155    1
    16    70    69   ar
    17    51    52    1
    18   153   154    2
    19    69    68    1
    20   166   165   ar
    21   138   137    2
    22   161   160    1
    23   161   163   ar
    24   142   140   am
    25   139   140    1
    26   139   136    1
    27   146   145    2
    28   165   163   ar
    29   137   136    1
    30   167   168    1
    31   140   141    2
    32    52    53    1
    33    52    54    1
    34    67    68    1
    35    67    64    1
    36   136   135    1
    37   143   144    1
    38   145   144    1
    39   168   169    1
    40   168   171    1
    41   135   128   am
    42    62    60    1
    43    63    64    1
    44    63    57   am
    45   169   170    2
    46    64    65    1
    47   144   147    1
    48   147   148    1
    49   126   127    1
    50   171   172    1
    51    56    57    1
    52    56    59    1
    53    56    55    1
    54    57    58    2
    55   128   127    1
    56   128   129    2
    57    65    66    2
    58    65    72   am
    59   148   149    1
    60   148   150    1
    61    60    59    1
    62    60    61    1
    63   172   174   ar
    64   172   173   ar
    65    88    85    1
    66   177   174   ar
    67   177   179   ar
    68   127   130    1
    69   174   176   ar
    70   173   175   ar
    71    75    74    2
    72   179   180   ar
    73    72    73    1
    74   176   175   ar
    75   176   178   ar
    76   130   131    1
    77    85    84    1
    78    85    86    1
    79   180   178   ar
    80   134   132   ar
    81    74    84   am
    82    74    73    1
    83   107   106    2
    84   110   109    1
    85   110   111    2
    86    95    89    1
    87    95    94    1
    88   102   101    1
    89    73    76    1
    90   131   132    1
    91   109   112    1
    92   109   108    1
    93   132   133   ar
    94    86    89   am
    95    86    87    2
    96   112   114    1
    97   112   113    1
    98    89    90    1
    99   100   101    1
   100   100    97    1
   101   101   103    1
   102    94    93    1
   103   106   108   am
   104   106   105    1
   105    76    77    1
   106    36    35    2
   107    96    97    1
   108    96    91   am
   109    33    34    1
   110    97    98    1
   111    37    34    1
   112   104    98   am
   113   104   105    1
   114    98    99    2
   115   115   116    1
   116    93    90    1
   117    42    43    1
   118    42    39    1
   119    43    44    1
   120    90    91    1
   121    77    78   ar
   122    77    79   ar
   123    35    34    1
   124    91    92    2
   125    78    80   ar
   126    79    81   ar
   127    44    45    1
   128   117   116    1
   129   117   118    2
   130    41    40    2
   131    38    39    1
   132    45    46    1
   133   116   119    1
   134    39    40    1
   135    80    82   ar
   136    81    82   ar
   137   119   120    1
   138    32    30    1
   139    82    83    1
   140    30    31    1
   141    30    27    1
   142     7     6    1
   143   120   121    1
   144    24    23    1
   145    24    25    2
   146    23    22    1
   147   122   121    1
   148   122   123    2
   149    27    28    1
   150    27    26    1
   151   125   123    1
   152   123   124    1
   153     6     5    1
   154     6     8    1
   155    22    15   am
   156    28    29    2
   157     5     2    1
   158    16    15    2
   159    15    14    1
   160    12    11    2
   161     2     3    1
   162     2     1    1
   163     9     3   am
   164     9    10    1
   165     3     4    2
   166    11    10    1
   167    11    13   am
   168    14    13    1
   169    14    17    1
   170    18    17    1
   171    18    19    1
   172    21    20    1
   173    19    20    1
