@<TRIPOS>MOLECULE
tmp/5ewaA00.pdb
 104 99 0 0 0
SMALL
GASTEIGER

@<TRIPOS>ATOM
      1  N          4.4140  -13.2210  -45.2760 N.3    23  VAL23      -0.1245
      2  CA         3.3640  -12.8600  -44.4010 C.3    23  VAL23       0.1561
      3  C          2.1670  -12.8460  -45.2800 C.2    23  VAL23       0.2260
      4  O          2.2140  -12.2610  -46.3400 O.2    23  VAL23      -0.2867
      5  CB         3.6160  -11.4730  -43.8800 C.3    23  VAL23       0.0252
      6  CG1        2.4420  -10.9990  -43.0840 C.3    23  VAL23       0.0019
      7  CG2        4.8960  -11.4490  -43.0940 C.3    23  VAL23       0.0019
      8  N          0.9690   -9.6590  -47.5140 N.3    26  TRP26      -0.1241
      9  CA         1.9970   -8.6830  -47.7480 C.3    26  TRP26       0.1605
     10  C          3.1970   -9.1550  -48.5360 C.2    26  TRP26       0.2264
     11  O          4.0050   -8.3640  -48.9170 O.2    26  TRP26      -0.2867
     12  CB         2.4020   -8.0730  -46.4280 C.3    26  TRP26       0.0550
     13  CG         1.2350   -7.7590  -45.5820 C.ar   26  TRP26       0.0003
     14  CD1        0.5120   -8.6220  -44.8720 C.ar   26  TRP26       0.0946
     15  CD2        0.6630   -6.4870  -45.3790 C.ar   26  TRP26       0.0152
     16  NE1       -0.4760   -7.9830  -44.2170 N.ar   26  TRP26      -0.2442
     17  CE2       -0.3970   -6.6550  -44.5060 C.ar   26  TRP26       0.0810
     18  CE3        0.9710   -5.2080  -45.8190 C.ar   26  TRP26       0.0012
     19  CZ2       -1.1720   -5.6070  -44.0910 C.ar   26  TRP26       0.0191
     20  CZ3        0.2070   -4.1830  -45.4130 C.ar   26  TRP26       0.0001
     21  CH2       -0.8500   -4.3760  -44.5500 C.ar   26  TRP26       0.0015
     22  N          8.5050  -10.0920  -46.4200 N.3    29  VAL29      -0.1245
     23  CA         8.8180   -8.9400  -45.5930 C.3    29  VAL29       0.1561
     24  C         10.2580   -9.0410  -45.1130 C.2    29  VAL29       0.2260
     25  O         10.6580  -10.0650  -44.5620 O.2    29  VAL29      -0.2867
     26  CB         7.8680   -8.8450  -44.3920 C.3    29  VAL29       0.0252
     27  CG1        8.2510   -7.6650  -43.4820 C.3    29  VAL29       0.0019
     28  CG2        6.4420   -8.6990  -44.8840 C.3    29  VAL29       0.0019
     29  N         12.7920  -13.5620  -37.4120 N.3    49  PHE49      -0.1241
     30  CA        11.4450  -14.1260  -37.3710 C.3    49  PHE49       0.1605
     31  C         11.3740  -15.4640  -36.6530 C.2    49  PHE49       0.2264
     32  O         10.4260  -15.7290  -35.9120 O.2    49  PHE49      -0.2867
     33  CB        10.8950  -14.3390  -38.7870 C.3    49  PHE49       0.0534
     34  CG        10.4610  -13.0910  -39.4870 C.ar   49  PHE49      -0.0203
     35  CD1       11.3170  -12.4230  -40.3460 C.ar   49  PHE49      -0.0042
     36  CD2        9.1740  -12.6110  -39.3230 C.ar   49  PHE49      -0.0042
     37  CE1       10.9010  -11.2910  -41.0220 C.ar   49  PHE49      -0.0003
     38  CE2        8.7500  -11.4800  -39.9960 C.ar   49  PHE49      -0.0003
     39  CZ         9.6190  -10.8160  -40.8450 C.ar   49  PHE49      -0.0000
     40  N          5.4500   -8.1400  -31.6260 N.3    77  HIS77      -0.1241
     41  CA         5.2580   -8.9050  -32.8730 C.3    77  HIS77       0.1621
     42  C          6.3810   -9.9120  -33.1310 C.2    77  HIS77       0.2264
     43  O          7.5170   -9.7110  -32.6980 O.2    77  HIS77      -0.2867
     44  CB         5.1430   -7.9760  -34.0800 C.3    77  HIS77       0.0745
     45  CG         3.8450   -7.2360  -34.1580 C.ar   77  HIS77       0.0817
     46  ND1        3.6760   -6.1130  -34.9480 N.ar   77  HIS77      -0.2268
     47  CD2        2.6530   -7.4550  -33.5570 C.ar   77  HIS77       0.1154
     48  CE1        2.4350   -5.6810  -34.8330 C.ar   77  HIS77       0.1986
     49  NE2        1.7920   -6.4760  -33.9900 N.ar   77  HIS77      -0.2212
     50  N          8.3240  -10.5870  -35.5830 N.3    79  ASP79      -0.1239
     51  CA         9.5760  -10.1590  -36.2110 C.3    79  ASP79       0.1674
     52  C         10.5840   -9.5770  -35.2100 C.2    79  ASP79       0.2266
     53  O         11.7510   -9.3810  -35.5600 O.2    79  ASP79      -0.2867
     54  CB         9.3270   -9.1620  -37.3610 C.3    79  ASP79       0.1410
     55  CG         8.5520   -7.9260  -36.9350 C.2    79  ASP79       0.3668
     56  OD1        8.2180   -7.1200  -37.8280 O.co2  79  ASP79      -0.2456
     57  OD2        8.2870   -7.7400  -35.7340 O.co2  79  ASP79      -0.2456
     58  N          3.0310    2.2890  -33.9160 N.3   137  HIS137     -0.1241
     59  CA         2.8220    1.0190  -34.5980 C.3   137  HIS137      0.1621
     60  C          2.1470    0.0000  -33.6850 C.2   137  HIS137      0.2264
     61  O          1.2080   -0.6710  -34.0950 O.2   137  HIS137     -0.2867
     62  CB         4.1620    0.4820  -35.1110 C.3   137  HIS137      0.0745
     63  CG         4.1180   -0.9430  -35.5650 C.ar  137  HIS137      0.0817
     64  ND1        3.4030   -1.3540  -36.6710 N.ar  137  HIS137     -0.2268
     65  CD2        4.7270   -2.0520  -35.0810 C.ar  137  HIS137      0.1154
     66  CE1        3.5600   -2.6550  -36.8380 C.ar  137  HIS137      0.1986
     67  NE2        4.3640   -3.1010  -35.8890 N.ar  137  HIS137     -0.2212
     68  N          9.9060   -1.0080  -35.8130 N.3   156  CYS156     -0.1235
     69  CA         8.7470   -0.9480  -36.6950 C.3   156  CYS156      0.1677
     70  C          7.9570    0.3470  -36.5050 C.2   156  CYS156      0.2270
     71  O          6.9500    0.5750  -37.1750 O.2   156  CYS156     -0.2867
     72  CB         7.8640   -2.1690  -36.4600 C.3   156  CYS156      0.0956
     73  SG         8.8170   -3.7040  -36.5930 S.3   156  CYS156     -0.0801
     74  N          8.2740    4.4620  -40.0190 N.3   159  LYS159     -0.1245
     75  CA         7.5430    4.1130  -41.2040 C.3   159  LYS159      0.1561
     76  C          7.5030    5.2680  -42.1880 C.2   159  LYS159      0.2260
     77  O          6.5500    5.9520  -42.2740 O.2   159  LYS159     -0.2867
     78  CB         6.1590    3.7120  -40.7850 C.3   159  LYS159      0.0271
     79  CG         6.1090    2.3490  -40.1680 C.3   159  LYS159      0.0035
     80  CD         6.5620    1.3090  -41.1530 C.3   159  LYS159      0.0206
     81  CE         6.7650   -0.0330  -40.5220 C.3   159  LYS159      0.1093
     82  NZ         5.5410   -0.4440  -39.8080 N.3   159  LYS159     -0.1314
     83  N          1.9850    1.0460  -42.9240 N.3   164  GLY164     -0.1210
     84  CA         1.8620   -0.4020  -42.9620 C.3   164  GLY164      0.1956
     85  C          0.5940   -0.8810  -42.2740 C.2   164  GLY164      0.2611
     86  O         -0.4160   -0.1830  -42.2760 O.2   164  GLY164     -0.2717
     87  N          0.6170   -2.0770  -41.7310 N.am  165  ASN165     -0.1974
     88  CA        -0.5220   -2.6710  -41.0510 C.3   165  ASN165      0.1688
     89  C         -0.8780   -1.9480  -39.7670 C.2   165  ASN165      0.2292
     90  O         -0.0630   -1.8560  -38.8820 O.2   165  ASN165     -0.2864
     91  CB        -0.2070   -4.1190  -40.7520 C.3   165  ASN165      0.1181
     92  CG        -1.4050   -4.9050  -40.3010 C.2   165  ASN165      0.2629
     93  OD1       -2.3480   -4.3670  -39.7940 O.2   165  ASN165     -0.2716
     94  ND2       -1.3440   -6.1950  -40.4640 N.am  165  ASN165     -0.0877
     95  N         11.8550   -2.2350  -41.5190 N.3   195  HIS195     -0.1241
     96  CA        11.3450   -2.7020  -42.8060 C.3   195  HIS195      0.1621
     97  C         11.7170   -1.8420  -44.0150 C.2   195  HIS195      0.2264
     98  O         11.1610   -2.0190  -45.0950 O.2   195  HIS195     -0.2867
     99  CB         9.8250   -2.8300  -42.7270 C.3   195  HIS195      0.0745
    100  CG         9.3590   -3.7830  -41.6690 C.ar  195  HIS195      0.0817
    101  ND1        9.7410   -5.1070  -41.6400 N.ar  195  HIS195     -0.2268
    102  CD2        8.5120   -3.6130  -40.6250 C.ar  195  HIS195      0.1154
    103  CE1        9.1590   -5.7100  -40.6180 C.ar  195  HIS195      0.1986
    104  NE2        8.4040   -4.8270  -39.9930 N.ar  195  HIS195     -0.2212
@<TRIPOS>BOND
     1    11    10    2
     2    10     9    1
     3     9     8    1
     4     9    12    1
     5    12    13    1
     6    22    23    1
     7     4     3    2
     8    18    20   ar
     9    18    15   ar
    10    23    24    1
    11    23    26    1
    12    13    15   ar
    13    13    14   ar
    14    20    21   ar
    15    15    17   ar
    16     3     2    1
    17     1     2    1
    18    24    25    2
    19    98    97    2
    20    28    26    1
    21    14    16   ar
    22    21    19   ar
    23    17    16   ar
    24    17    19   ar
    25     2     5    1
    26    26    27    1
    27    97    96    1
    28     5     7    1
    29     5     6    1
    30    84    83    1
    31    84    85    1
    32    96    99    1
    33    96    95    1
    34    99   100    1
    35    86    85    2
    36    85    87   am
    37    77    76    2
    38    76    75    1
    39    87    88    1
    40   100   101   ar
    41   100   102   ar
    42   101   103   ar
    43    75    78    1
    44    75    74    1
    45    80    81    1
    46    80    79    1
    47    88    91    1
    48    88    89    1
    49    37    39   ar
    50    37    35   ar
    51    39    38   ar
    52    78    79    1
    53    91    92    1
    54   102   104   ar
    55   103   104   ar
    56    81    82    1
    57    94    92   am
    58    35    34   ar
    59    92    93    2
    60    38    36   ar
    61    89    90    2
    62    34    36   ar
    63    34    33    1
    64    33    30    1
    65    56    55   ar
    66    29    30    1
    67    30    31    1
    68    54    55    1
    69    54    51    1
    70    71    70    2
    71    55    57   ar
    72    66    64   ar
    73    66    67   ar
    74    69    70    1
    75    69    72    1
    76    69    68    1
    77    64    63   ar
    78    31    32    2
    79    73    72    1
    80    51    50    1
    81    51    52    1
    82    67    65   ar
    83    63    62    1
    84    63    65   ar
    85    53    52    2
    86    62    59    1
    87    46    48   ar
    88    46    45   ar
    89    48    49   ar
    90    59    58    1
    91    59    60    1
    92    45    44    1
    93    45    47   ar
    94    61    60    2
    95    44    41    1
    96    49    47   ar
    97    42    41    1
    98    42    43    2
    99    41    40    1
