@<TRIPOS>MOLECULE
tmp/5ewcA00.pdb
 114 113 0 0 0
SMALL
GASTEIGER

@<TRIPOS>ATOM
      1  N         16.1630  -12.6830    5.4730 N.3    25  ILE25      -0.1231
      2  CA        14.7190  -12.5530    5.3160 C.3    25  ILE25       0.1692
      3  C         14.0690  -13.8830    5.0030 C.2    25  ILE25       0.2592
      4  O         12.8340  -13.9580    4.9440 O.2    25  ILE25      -0.2718
      5  CB        14.3340  -11.5480    4.2180 C.3    25  ILE25       0.0266
      6  CG1       14.8310  -12.0180    2.8590 C.3    25  ILE25       0.0019
      7  CG2       14.8790  -10.1720    4.5580 C.3    25  ILE25       0.0020
      8  CD1       14.5090  -11.0380    1.7520 C.3    25  ILE25       0.0001
      9  N         14.8640  -14.9200    4.7760 N.am   26  PHE26      -0.1976
     10  CA        14.3680  -16.2540    4.4920 C.3    26  PHE26       0.1639
     11  C         14.7290  -17.2580    5.5730 C.2    26  PHE26       0.2290
     12  O         14.4330  -18.4450    5.4170 O.2    26  PHE26      -0.2864
     13  CB        14.9230  -16.7480    3.1550 C.3    26  PHE26       0.0560
     14  CG        14.5080  -15.9080    1.9910 C.ar   26  PHE26      -0.0200
     15  CD1       13.1670  -15.7780    1.6570 C.ar   26  PHE26      -0.0042
     16  CD2       15.4510  -15.2420    1.2390 C.ar   26  PHE26      -0.0042
     17  CE1       12.7780  -14.9930    0.5780 C.ar   26  PHE26      -0.0003
     18  CE2       15.0690  -14.4550    0.1640 C.ar   26  PHE26      -0.0003
     19  CZ        13.7230  -14.3520   -0.1720 C.ar   26  PHE26      -0.0000
     20  N         13.6870  -17.5360    8.7370 N.3    28  GLU28      -0.1231
     21  CA        12.6160  -17.8680    9.6640 C.3    28  GLU28       0.1684
     22  C         11.2910  -17.7040    8.9440 C.2    28  GLU28       0.2434
     23  O         11.2030  -16.9730    7.9500 O.2    28  GLU28      -0.2733
     24  CB        12.6700  -16.9730   10.9100 C.3    28  GLU28       0.0402
     25  CG        13.9430  -17.1320   11.7180 C.3    28  GLU28       0.1161
     26  CD        13.9270  -16.3140   12.9880 C.2    28  GLU28       0.3649
     27  OE1       13.1810  -15.3140   13.0410 O.co2  28  GLU28      -0.2457
     28  OE2       14.6540  -16.6770   13.9360 O.co2  28  GLU28      -0.2457
     29  N         10.2370  -18.3860    9.4050 N.am   29  PRO29      -0.2718
     30  CA         8.9210  -18.2150    8.7790 C.3    29  PRO29       0.1535
     31  C          8.5270  -16.7450    8.7040 C.2    29  PRO29       0.2598
     32  O          8.8880  -15.9390    9.5670 O.2    29  PRO29      -0.2715
     33  CB         7.9820  -19.0010    9.7050 C.3    29  PRO29       0.0310
     34  CG         8.8620  -20.0120   10.3730 C.3    29  PRO29       0.0237
     35  CD        10.2110  -19.3600   10.5130 C.3    29  PRO29       0.0939
     36  N          7.7950  -16.3970    7.6470 N.am   30  VAL30      -0.1964
     37  CA         7.2950  -15.0340    7.4660 C.3    30  VAL30       0.1712
     38  C          6.4230  -14.6900    8.6670 C.2    30  VAL30       0.2458
     39  O          5.4360  -15.3930    8.9250 O.2    30  VAL30      -0.2730
     40  CB         6.5110  -14.8860    6.1510 C.3    30  VAL30       0.0289
     41  CG1        5.9510  -13.4760    6.0220 C.3    30  VAL30       0.0023
     42  CG2        7.4000  -15.2140    4.9570 C.3    30  VAL30       0.0023
     43  N          6.7440  -13.6310    9.4270 N.am   31  PRO31      -0.2727
     44  CA         6.0000  -13.3590   10.6650 C.3    31  PRO31       0.1402
     45  C          4.5430  -13.0180   10.4090 C.2    31  PRO31       0.2269
     46  O          4.2190  -11.9000    9.9930 O.2    31  PRO31      -0.2865
     47  CB         6.7570  -12.1730   11.2730 C.3    31  PRO31       0.0296
     48  CG         7.3790  -11.4890   10.1100 C.3    31  PRO31       0.0237
     49  CD         7.7530  -12.5940    9.1520 C.3    31  PRO31       0.0939
     50  N          3.0740   -9.7290   11.4940 N.3    34  GLU34      -0.1231
     51  CA         3.2730   -8.5590   10.6510 C.3    34  GLU34       0.1699
     52  C          2.6230   -8.7050    9.2850 C.2    34  GLU34       0.2592
     53  O          2.3040   -7.6910    8.6530 O.2    34  GLU34      -0.2718
     54  CB         4.7700   -8.2890   10.4710 C.3    34  GLU34       0.0402
     55  CG         5.6260   -8.7770   11.6270 C.3    34  GLU34       0.1161
     56  CD         5.3150   -8.0700   12.9230 C.2    34  GLU34       0.3649
     57  OE1        5.0300   -6.8560   12.8810 O.co2  34  GLU34      -0.2457
     58  OE2        5.3500   -8.7300   13.9840 O.co2  34  GLU34      -0.2457
     59  N          2.4260   -9.9340    8.8190 N.am   35  VAL35      -0.1980
     60  CA         1.8070  -10.2110    7.5260 C.3    35  VAL35       0.1595
     61  C          0.5650  -11.0610    7.7750 C.2    35  VAL35       0.2287
     62  O          0.5730  -12.2690    7.4940 O.2    35  VAL35      -0.2864
     63  CB         2.7930  -10.9120    6.5780 C.3    35  VAL35       0.0276
     64  CG1        2.2450  -10.9380    5.1740 C.3    35  VAL35       0.0022
     65  CG2        4.1500  -10.2160    6.6090 C.3    35  VAL35       0.0022
     66  N         -1.0120  -13.4180    4.9930 N.3    38  TYR38      -0.1241
     67  CA        -0.0190  -14.1550    4.2190 C.3    38  TYR38       0.1605
     68  C         -0.5410  -15.5100    3.7570 C.2    38  TYR38       0.2264
     69  O         -0.2750  -15.9310    2.6240 O.2    38  TYR38      -0.2867
     70  CB         1.2500  -14.3250    5.0460 C.3    38  TYR38       0.0534
     71  CG         2.3870  -14.9380    4.2750 C.ar   38  TYR38      -0.0201
     72  CD1        3.1290  -14.1820    3.3810 C.ar   38  TYR38      -0.0009
     73  CD2        2.7230  -16.2710    4.4440 C.ar   38  TYR38      -0.0009
     74  CE1        4.1720  -14.7400    2.6700 C.ar   38  TYR38       0.0417
     75  CE2        3.7720  -16.8390    3.7380 C.ar   38  TYR38       0.0417
     76  CZ         4.4920  -16.0660    2.8540 C.ar   38  TYR38       0.1957
     77  OH         5.5370  -16.6230    2.1470 O.3    38  TYR38      -0.2866
     78  N          7.7670  -16.2280   -2.1710 N.3    77  CYS77      -0.1235
     79  CA         8.1280  -14.8210   -2.0900 C.3    77  CYS77       0.1677
     80  C          7.7960  -14.1010   -3.3900 C.2    77  CYS77       0.2270
     81  O          7.2810  -12.9780   -3.3690 O.2    77  CYS77      -0.2867
     82  CB         9.6160  -14.7010   -1.7550 C.3    77  CYS77       0.0956
     83  SG        10.2100  -13.0430   -1.3790 S.3    77  CYS77      -0.0801
     84  N          3.8270  -13.7210   -3.2680 N.3    80  TYR80      -0.1227
     85  CA         3.1680  -12.8190   -2.3260 C.3    80  TYR80       0.1736
     86  C          3.5010  -11.3580   -2.6000 C.2    80  TYR80       0.2595
     87  O          2.6460  -10.4800   -2.4210 O.2    80  TYR80      -0.2718
     88  CB         3.5390  -13.1750   -0.8860 C.3    80  TYR80       0.0548
     89  CG         2.7980  -12.2970    0.0950 C.ar   80  TYR80      -0.0200
     90  CD1        1.4510  -12.5230    0.3690 C.ar   80  TYR80      -0.0009
     91  CD2        3.4220  -11.2180    0.7090 C.ar   80  TYR80      -0.0009
     92  CE1        0.7550  -11.7120    1.2450 C.ar   80  TYR80       0.0417
     93  CE2        2.7290  -10.4000    1.5900 C.ar   80  TYR80       0.0417
     94  CZ         1.3980  -10.6530    1.8510 C.ar   80  TYR80       0.1957
     95  OH         0.6980   -9.8470    2.7230 O.3    80  TYR80      -0.2866
     96  N          4.7310  -11.0670   -3.0080 N.am   81  ASN81      -0.1974
     97  CA         5.2250   -9.6940   -3.0150 C.3    81  ASN81       0.1688
     98  C          5.1930   -9.1100   -4.4200 C.2    81  ASN81       0.2292
     99  O          5.4080   -9.8240   -5.4040 O.2    81  ASN81      -0.2864
    100  CB         6.6420   -9.6440   -2.4470 C.3    81  ASN81       0.1181
    101  CG         6.6930  -10.0840   -0.9970 C.2    81  ASN81       0.2629
    102  OD1        6.2600   -9.3530   -0.1040 O.2    81  ASN81      -0.2716
    103  ND2        7.2090  -11.2850   -0.7550 N.am   81  ASN81      -0.0877
    104  N         11.7480   -7.4590   -1.4550 N.3    87  PHE87      -0.1241
    105  CA        11.5360   -8.8870   -1.2240 C.3    87  PHE87       0.1605
    106  C         11.5130   -9.6660   -2.5320 C.2    87  PHE87       0.2264
    107  O         12.1150  -10.7450   -2.6320 O.2    87  PHE87      -0.2867
    108  CB        10.2290   -9.1130   -0.4560 C.3    87  PHE87       0.0534
    109  CG        10.2920   -8.7000    0.9930 C.ar   87  PHE87      -0.0203
    110  CD1       11.4990   -8.6730    1.6710 C.ar   87  PHE87      -0.0042
    111  CD2        9.1380   -8.3500    1.6770 C.ar   87  PHE87      -0.0042
    112  CE1       11.5520   -8.3030    3.0020 C.ar   87  PHE87      -0.0003
    113  CE2        9.1890   -7.9780    3.0090 C.ar   87  PHE87      -0.0003
    114  CZ        10.3980   -7.9540    3.6700 C.ar   87  PHE87      -0.0000
@<TRIPOS>BOND
     1    99    98    2
     2    98    97    1
     3    80    81    2
     4    80    79    1
     5    84    85    1
     6    97    96    1
     7    97   100    1
     8    96    86   am
     9   107   106    2
    10    86    87    2
    11    86    85    1
    12   106   105    1
    13   100   101    1
    14    85    88    1
    15    78    79    1
    16    79    82    1
    17    82    83    1
    18   104   105    1
    19   105   108    1
    20   101   103   am
    21   101   102    2
    22    88    89    1
    23   108   109    1
    24    19    18   ar
    25    19    17   ar
    26    89    90   ar
    27    89    91   ar
    28    18    16   ar
    29    90    92   ar
    30    17    15   ar
    31    91    93   ar
    32   109   110   ar
    33   109   111   ar
    34    16    14   ar
    35    92    94   ar
    36    93    94   ar
    37    15    14   ar
    38   110   112   ar
    39   111   113   ar
    40     8     6    1
    41    94    95    1
    42    14    13    1
    43    77    76    1
    44    69    68    2
    45    74    76   ar
    46    74    72   ar
    47    76    75   ar
    48     6     5    1
    49   112   114   ar
    50   113   114   ar
    51    13    10    1
    52    72    71   ar
    53    75    73   ar
    54    68    67    1
    55     5     7    1
    56     5     2    1
    57    67    66    1
    58    67    70    1
    59    71    73   ar
    60    71    70    1
    61    10     9    1
    62    10    11    1
    63     9     3   am
    64     4     3    2
    65    42    40    1
    66     3     2    1
    67    64    63    1
    68     2     1    1
    69    12    11    2
    70    41    40    1
    71    40    37    1
    72    63    65    1
    73    63    60    1
    74    37    36    1
    75    37    38    1
    76    62    61    2
    77    60    61    1
    78    60    59    1
    79    36    31   am
    80    23    22    2
    81    53    52    2
    82    38    39    2
    83    38    43   am
    84    31    30    1
    85    31    32    2
    86    20    21    1
    87    30    29    1
    88    30    33    1
    89    59    52   am
    90    22    29   am
    91    22    21    1
    92    49    43    1
    93    49    48    1
    94    52    51    1
    95    29    35    1
    96    43    44    1
    97    21    24    1
    98    33    34    1
    99    46    45    2
   100    48    47    1
   101    34    35    1
   102    45    44    1
   103    54    51    1
   104    54    55    1
   105    51    50    1
   106    44    47    1
   107    24    25    1
   108    55    56    1
   109    25    26    1
   110    57    56   ar
   111    56    58   ar
   112    26    27   ar
   113    26    28   ar
