@<TRIPOS>MOLECULE
tmp/5ewdA00.pdb
 98 96 0 0 0
SMALL
GASTEIGER

@<TRIPOS>ATOM
      1  N         15.9590  -12.6040    5.1810 N.3    26  ILE26      -0.1231
      2  CA        14.5110  -12.4430    5.0880 C.3    26  ILE26       0.1692
      3  C         13.8100  -13.7900    4.9960 C.2    26  ILE26       0.2592
      4  O         12.5920  -13.8600    5.2010 O.2    26  ILE26      -0.2718
      5  CB        14.1320  -11.5070    3.9260 C.3    26  ILE26       0.0266
      6  CG1       13.7300  -12.2810    2.6910 C.3    26  ILE26       0.0019
      7  CG2       15.2720  -10.5240    3.6140 C.3    26  ILE26       0.0020
      8  CD1       12.8330  -11.4920    1.7940 C.3    26  ILE26       0.0001
      9  N         14.5590  -14.8620    4.7540 N.am   27  PHE27      -0.1976
     10  CA        14.0070  -16.2060    4.6490 C.3    27  PHE27       0.1639
     11  C         14.4940  -17.1330    5.7530 C.2    27  PHE27       0.2290
     12  O         14.2800  -18.3450    5.6660 O.2    27  PHE27      -0.2864
     13  CB        14.3550  -16.8120    3.2880 C.3    27  PHE27       0.0560
     14  CG        13.9910  -15.9390    2.1330 C.ar   27  PHE27      -0.0200
     15  CD1       12.6640  -15.6710    1.8530 C.ar   27  PHE27      -0.0042
     16  CD2       14.9760  -15.3670    1.3390 C.ar   27  PHE27      -0.0042
     17  CE1       12.3210  -14.8460    0.7920 C.ar   27  PHE27      -0.0003
     18  CE2       14.6370  -14.5540    0.2710 C.ar   27  PHE27      -0.0003
     19  CZ        13.3030  -14.3130   -0.0140 C.ar   27  PHE27      -0.0000
     20  N          7.5370  -16.3240    7.7940 N.3    31  VAL31      -0.1231
     21  CA         7.0220  -14.9650    7.6320 C.3    31  VAL31       0.1678
     22  C          6.0990  -14.6660    8.8080 C.2    31  VAL31       0.2434
     23  O          5.1540  -15.4270    9.0580 O.2    31  VAL31      -0.2733
     24  CB         6.2970  -14.7980    6.2870 C.3    31  VAL31       0.0265
     25  CG1        5.6680  -13.4120    6.1840 C.3    31  VAL31       0.0020
     26  CG2        7.2630  -15.0320    5.1340 C.3    31  VAL31       0.0020
     27  N          6.3330  -13.5810    9.5580 N.am   32  PRO32      -0.2729
     28  CA         5.5380  -13.3400   10.7710 C.3    32  PRO32       0.1401
     29  C          4.1040  -12.9390   10.4650 C.2    32  PRO32       0.2269
     30  O          3.8500  -11.8320    9.9760 O.2    32  PRO32      -0.2865
     31  CB         6.3040  -12.2100   11.4690 C.3    32  PRO32       0.0296
     32  CG         6.9880  -11.4820   10.3620 C.3    32  PRO32       0.0237
     33  CD         7.3400  -12.5300    9.3320 C.3    32  PRO32       0.0939
     34  N          2.7710   -9.5080   11.5790 N.3    35  GLU35      -0.1231
     35  CA         2.9800   -8.3360   10.7420 C.3    35  GLU35       0.1699
     36  C          2.3810   -8.4740    9.3510 C.2    35  GLU35       0.2592
     37  O          2.2120   -7.4610    8.6620 O.2    35  GLU35      -0.2718
     38  CB         4.4790   -8.0480   10.6150 C.3    35  GLU35       0.0402
     39  CG         5.2200   -8.1360   11.9330 C.3    35  GLU35       0.1161
     40  CD         6.7100   -7.9220   11.7750 C.2    35  GLU35       0.3649
     41  OE1        7.1340   -7.4380   10.7020 O.co2  35  GLU35      -0.2457
     42  OE2        7.4560   -8.2440   12.7250 O.co2  35  GLU35      -0.2457
     43  N          2.0720   -9.6950    8.9220 N.am   36  VAL36      -0.1980
     44  CA         1.5020   -9.9610    7.6030 C.3    36  VAL36       0.1595
     45  C          0.2740  -10.8490    7.7830 C.2    36  VAL36       0.2287
     46  O          0.3000  -12.0230    7.3870 O.2    36  VAL36      -0.2864
     47  CB         2.5380  -10.6200    6.6750 C.3    36  VAL36       0.0276
     48  CG1        2.0470  -10.6360    5.2480 C.3    36  VAL36       0.0022
     49  CG2        3.8820   -9.9060    6.7630 C.3    36  VAL36       0.0022
     50  N         -1.1320  -13.1550    4.9700 N.3    39  TYR39      -0.1241
     51  CA        -0.1410  -13.9180    4.2180 C.3    39  TYR39       0.1605
     52  C         -0.6600  -15.2820    3.7840 C.2    39  TYR39       0.2264
     53  O         -0.3180  -15.7510    2.6930 O.2    39  TYR39      -0.2867
     54  CB         1.1290  -14.0830    5.0460 C.3    39  TYR39       0.0534
     55  CG         2.2420  -14.7440    4.2770 C.ar   39  TYR39      -0.0201
     56  CD1        2.9290  -14.0540    3.2860 C.ar   39  TYR39      -0.0009
     57  CD2        2.6010  -16.0630    4.5320 C.ar   39  TYR39      -0.0009
     58  CE1        3.9540  -14.6560    2.5700 C.ar   39  TYR39       0.0417
     59  CE2        3.6230  -16.6730    3.8260 C.ar   39  TYR39       0.0417
     60  CZ         4.2920  -15.9670    2.8450 C.ar   39  TYR39       0.1957
     61  OH         5.3110  -16.5700    2.1350 O.3    39  TYR39      -0.2866
     62  N          7.6390  -16.1380   -2.2120 N.3    78  CYS78      -0.1235
     63  CA         8.0310  -14.7420   -2.1060 C.3    78  CYS78       0.1677
     64  C          7.7330  -13.9920   -3.3950 C.2    78  CYS78       0.2270
     65  O          7.2620  -12.8480   -3.3600 O.2    78  CYS78      -0.2867
     66  CB         9.5110  -14.6720   -1.7480 C.3    78  CYS78       0.0956
     67  SG        10.0890  -13.0070   -1.3470 S.3    78  CYS78      -0.0801
     68  N          3.7120  -13.5820   -3.2690 N.3    81  TYR81      -0.1227
     69  CA         3.0660  -12.6770   -2.3240 C.3    81  TYR81       0.1736
     70  C          3.4060  -11.2200   -2.6050 C.2    81  TYR81       0.2595
     71  O          2.5520  -10.3400   -2.4460 O.2    81  TYR81      -0.2718
     72  CB         3.4540  -13.0380   -0.8920 C.3    81  TYR81       0.0548
     73  CG         2.7800  -12.1170    0.0900 C.ar   81  TYR81      -0.0200
     74  CD1        1.4520  -12.3150    0.4420 C.ar   81  TYR81      -0.0009
     75  CD2        3.4440  -11.0110    0.6080 C.ar   81  TYR81      -0.0009
     76  CE1        0.8140  -11.4590    1.3150 C.ar   81  TYR81       0.0417
     77  CE2        2.8130  -10.1530    1.4790 C.ar   81  TYR81       0.0417
     78  CZ         1.4990  -10.3770    1.8250 C.ar   81  TYR81       0.1957
     79  OH         0.8680   -9.5110    2.6940 O.3    81  TYR81      -0.2866
     80  N          4.6400  -10.9370   -3.0050 N.am   82  ASN82      -0.1974
     81  CA         5.1390   -9.5650   -3.0270 C.3    82  ASN82       0.1688
     82  C          5.0930   -8.9750   -4.4250 C.2    82  ASN82       0.2292
     83  O          5.3240   -9.6730   -5.4180 O.2    82  ASN82      -0.2864
     84  CB         6.5670   -9.5070   -2.5000 C.3    82  ASN82       0.1181
     85  CG         6.6640   -9.9770   -1.0730 C.2    82  ASN82       0.2629
     86  OD1        6.3340   -9.2420   -0.1400 O.2    82  ASN82      -0.2716
     87  ND2        7.1010  -11.2170   -0.8900 N.am   82  ASN82      -0.0877
     88  N         11.6580   -7.3700   -1.4270 N.3    88  PHE88      -0.1241
     89  CA        11.4290   -8.7940   -1.1890 C.3    88  PHE88       0.1605
     90  C         11.3360   -9.5790   -2.4910 C.2    88  PHE88       0.2264
     91  O         11.8870  -10.6810   -2.5970 O.2    88  PHE88      -0.2867
     92  CB        10.1470   -9.0030   -0.3820 C.3    88  PHE88       0.0534
     93  CG        10.2310   -8.5290    1.0300 C.ar   88  PHE88      -0.0203
     94  CD1       11.4480   -8.4620    1.6910 C.ar   88  PHE88      -0.0042
     95  CD2        9.0910   -8.1380    1.7030 C.ar   88  PHE88      -0.0042
     96  CE1       11.5230   -8.0200    3.0000 C.ar   88  PHE88      -0.0003
     97  CE2        9.1600   -7.6980    3.0100 C.ar   88  PHE88      -0.0003
     98  CZ        10.3790   -7.6420    3.6580 C.ar   88  PHE88      -0.0000
@<TRIPOS>BOND
     1    83    82    2
     2    82    81    1
     3    64    65    2
     4    64    63    1
     5    68    69    1
     6    81    80    1
     7    81    84    1
     8    80    70   am
     9    70    71    2
    10    70    69    1
    11    91    90    2
    12    84    85    1
    13    90    89    1
    14    69    72    1
    15    62    63    1
    16    63    66    1
    17    66    67    1
    18    88    89    1
    19    89    92    1
    20    85    87   am
    21    85    86    2
    22    72    73    1
    23    92    93    1
    24    19    18   ar
    25    19    17   ar
    26    73    74   ar
    27    73    75   ar
    28    18    16   ar
    29    74    76   ar
    30    75    77   ar
    31    17    15   ar
    32    93    94   ar
    33    93    95   ar
    34    76    78   ar
    35    16    14   ar
    36    77    78   ar
    37    94    96   ar
    38    95    97   ar
    39     8     6    1
    40    78    79    1
    41    15    14   ar
    42    14    13    1
    43    61    60    1
    44    58    60   ar
    45    58    56   ar
    46     6     5    1
    47    53    52    2
    48    60    59   ar
    49    96    98   ar
    50    97    98   ar
    51    56    55   ar
    52    13    10    1
    53     7     5    1
    54    52    51    1
    55    59    57   ar
    56     5     2    1
    57    51    50    1
    58    51    54    1
    59    55    57   ar
    60    55    54    1
    61    10     9    1
    62    10    11    1
    63     9     3   am
    64     3     2    1
    65     3     4    2
    66     2     1    1
    67    26    24    1
    68    48    47    1
    69    12    11    2
    70    25    24    1
    71    24    21    1
    72    47    49    1
    73    47    44    1
    74    46    45    2
    75    44    45    1
    76    44    43    1
    77    21    20    1
    78    21    22    1
    79    37    36    2
    80    22    23    2
    81    22    27   am
    82    43    36   am
    83    33    27    1
    84    33    32    1
    85    36    35    1
    86    27    28    1
    87    30    29    2
    88    32    31    1
    89    29    28    1
    90    38    35    1
    91    38    39    1
    92    41    40   ar
    93    35    34    1
    94    28    31    1
    95    40    39    1
    96    40    42   ar
