@<TRIPOS>MOLECULE
tmp/5ewfA00.pdb
 147 142 0 0 0
SMALL
GASTEIGER

@<TRIPOS>ATOM
      1  N         79.2990   34.5750    2.8400 N.3    16  ASP16      -0.1225
      2  CA        79.1470   35.7810    3.6370 C.3    16  ASP16       0.1805
      3  C         80.5110   36.1150    4.2260 C.2    16  ASP16       0.2598
      4  O         81.0400   35.3420    5.0210 O.2    16  ASP16      -0.2718
      5  CB        78.1070   35.5610    4.7490 C.3    16  ASP16       0.1424
      6  CG        77.6790   36.8400    5.4220 C.2    16  ASP16       0.3668
      7  OD1       78.4880   37.7590    5.4910 O.co2  16  ASP16      -0.2456
      8  OD2       76.5120   36.9350    5.8770 O.co2  16  ASP16      -0.2456
      9  N         81.0770   37.2620    3.8640 N.am   17  MET17      -0.1965
     10  CA        82.4020   37.5860    4.3860 C.3    17  MET17       0.1736
     11  C         82.3300   37.8560    5.8860 C.2    17  MET17       0.2616
     12  O         81.4070   38.5070    6.3700 O.2    17  MET17      -0.2715
     13  CB        82.9850   38.8050    3.6670 C.3    17  MET17       0.0427
     14  CG        82.9280   38.7060    2.1460 C.3    17  MET17       0.0599
     15  SD        83.8140   37.3020    1.4920 S.3    17  MET17      -0.1393
     16  CE        85.4500   37.6470    2.1070 C.3    17  MET17       0.0692
     17  N         83.3200   37.3500    6.6280 N.am   18  ASP18      -0.1957
     18  CA        83.3840   37.5990    8.0650 C.3    18  ASP18       0.1840
     19  C         83.8660   39.0220    8.3190 C.2    18  ASP18       0.2622
     20  O         84.7990   39.4770    7.6580 O.2    18  ASP18      -0.2715
     21  CB        84.3440   36.6060    8.7210 C.3    18  ASP18       0.1450
     22  CG        83.8930   35.1650    8.5490 C.2    18  ASP18       0.3671
     23  OD1       82.6790   34.9260    8.6300 O.co2  18  ASP18      -0.2456
     24  OD2       84.7500   34.2770    8.3780 O.co2  18  ASP18      -0.2456
     25  N         83.2390   39.7030    9.2930 N.am   19  CYS19      -0.1954
     26  CA        83.4950   41.1060    9.6590 C.3    19  CYS19       0.1843
     27  C         84.2020   41.8730    8.5410 C.2    19  CYS19       0.2625
     28  O         85.3710   42.2620    8.6550 O.2    19  CYS19      -0.2714
     29  CB        84.2900   41.1870   10.9660 C.3    19  CYS19       0.0997
     30  SG        85.7790   40.1640   11.0410 S.3    19  CYS19      -0.0797
     31  N         83.4780   42.0710    7.4460 N.am   20  PHE20      -0.1960
     32  CA        84.1050   42.3460    6.1600 C.3    20  PHE20       0.1771
     33  C         84.9470   43.6170    6.1940 C.2    20  PHE20       0.2619
     34  O         86.1250   43.5880    5.8280 O.2    20  PHE20      -0.2715
     35  CB        83.0420   42.4530    5.0690 C.3    20  PHE20       0.0574
     36  CG        83.6170   42.6920    3.7120 C.ar   20  PHE20      -0.0200
     37  CD1       84.6410   41.8930    3.2430 C.ar   20  PHE20      -0.0042
     38  CD2       83.1560   43.7290    2.9170 C.ar   20  PHE20      -0.0042
     39  CE1       85.1990   42.1160    1.9920 C.ar   20  PHE20      -0.0003
     40  CE2       83.7140   43.9490    1.6530 C.ar   20  PHE20      -0.0003
     41  CZ        84.7250   43.1460    1.2030 C.ar   20  PHE20      -0.0000
     42  N         84.3530   44.7440    6.6100 N.am   21  PHE21      -0.1974
     43  CA        85.0880   46.0160    6.5970 C.3    21  PHE21       0.1639
     44  C         86.3240   45.9250    7.4820 C.2    21  PHE21       0.2290
     45  O         87.3740   46.5100    7.1750 O.2    21  PHE21      -0.2864
     46  CB        84.2070   47.1780    7.0670 C.3    21  PHE21       0.0560
     47  CG        83.1850   47.6510    6.0620 C.ar   21  PHE21      -0.0200
     48  CD1       82.7660   46.8520    5.0250 C.ar   21  PHE21      -0.0042
     49  CD2       82.6260   48.9220    6.1950 C.ar   21  PHE21      -0.0042
     50  CE1       81.8050   47.2990    4.1230 C.ar   21  PHE21      -0.0003
     51  CE2       81.6870   49.3820    5.2870 C.ar   21  PHE21      -0.0003
     52  CZ        81.2640   48.5520    4.2590 C.ar   21  PHE21      -0.0000
     53  N         80.4920   50.5780   12.4640 N.3    51  ILE51      -0.1231
     54  CA        79.8410   49.8530   11.3850 C.3    51  ILE51       0.1692
     55  C         80.2240   48.3730   11.3660 C.2    51  ILE51       0.2591
     56  O         79.4120   47.5460   10.9330 O.2    51  ILE51      -0.2718
     57  CB        80.1250   50.5130   10.0160 C.3    51  ILE51       0.0266
     58  CG1       79.6830   49.6240    8.8490 C.3    51  ILE51       0.0019
     59  CG2       81.5780   50.8170    9.8430 C.3    51  ILE51       0.0020
     60  CD1       79.5140   50.3940    7.5760 C.3    51  ILE51       0.0001
     61  N         81.4230   48.0090   11.8370 N.am   52  ALA52      -0.1980
     62  CA        81.8770   46.6190   11.7990 C.3    52  ALA52       0.1597
     63  C         82.8440   46.3410   12.9480 C.2    52  ALA52       0.2287
     64  O         83.5820   47.2310   13.3790 O.2    52  ALA52      -0.2864
     65  CB        82.5550   46.3020   10.4650 C.3    52  ALA52       0.0319
     66  N         85.9680   39.8610   15.6140 N.3    55  TYR55      -0.1241
     67  CA        85.4610   38.8770   16.5710 C.3    55  TYR55       0.1605
     68  C         86.1270   39.0330   17.9370 C.2    55  TYR55       0.2264
     69  O         85.4790   38.8170   18.9710 O.2    55  TYR55      -0.2867
     70  CB        85.6080   37.4620   15.9980 C.3    55  TYR55       0.0534
     71  CG        84.4950   37.1870   15.0080 C.ar   55  TYR55      -0.0201
     72  CD1       84.5600   37.6740   13.7110 C.ar   55  TYR55      -0.0009
     73  CD2       83.3420   36.5140   15.3900 C.ar   55  TYR55      -0.0009
     74  CE1       83.5180   37.4640   12.8060 C.ar   55  TYR55       0.0417
     75  CE2       82.3030   36.2960   14.4960 C.ar   55  TYR55       0.0417
     76  CZ        82.3910   36.7750   13.2030 C.ar   55  TYR55       0.1957
     77  OH        81.3530   36.5620   12.2980 O.3    55  TYR55      -0.2866
     78  N         84.1010   41.6980   19.5930 N.3    58  ARG58      -0.1245
     79  CA        82.7370   41.2800   19.9140 C.3    58  ARG58       0.1563
     80  C         82.6740   40.5730   21.2590 C.2    58  ARG58       0.2260
     81  O         81.6380   40.6120   21.9330 O.2    58  ARG58      -0.2867
     82  CB        82.1810   40.3560   18.8350 C.3    58  ARG58       0.0307
     83  CG        82.0430   41.0150   17.4870 C.3    58  ARG58       0.0489
     84  CD        81.5180   40.0390   16.4430 C.3    58  ARG58       0.2205
     85  NE        81.7160   40.5850   15.0950 N.pl3  58  ARG58      -0.0865
     86  CZ        81.1480   40.1080   13.9890 C.cat  58  ARG58       0.5346
     87  NH1       80.3360   39.0550   14.0420 N.pl3  58  ARG58       0.1354
     88  NH2       81.4010   40.6780   12.8210 N.pl3  58  ARG58       0.1354
     89  N         77.7850   46.7380   16.2520 N.3    64  ARG64      -0.1245
     90  CA        77.4350   47.7210   15.2440 C.3    64  ARG64       0.1563
     91  C         76.4080   48.6980   15.7970 C.2    64  ARG64       0.2260
     92  O         75.5920   48.3460   16.6510 O.2    64  ARG64      -0.2867
     93  CB        76.9090   46.9990   14.0010 C.3    64  ARG64       0.0307
     94  CG        75.7940   47.6980   13.2660 C.3    64  ARG64       0.0489
     95  CD        74.9300   46.6660   12.5670 C.3    64  ARG64       0.2205
     96  NE        75.7260   45.8020   11.6970 N.pl3  64  ARG64      -0.0865
     97  CZ        75.4320   44.5320   11.4420 C.cat  64  ARG64       0.5346
     98  NH1       76.2150   43.8200   10.6400 N.pl3  64  ARG64       0.1354
     99  NH2       74.3550   43.9780   11.9930 N.pl3  64  ARG64       0.1354
    100  N         82.4960   54.7060    0.7770 N.3    92  LEU92      -0.1245
    101  CA        82.6920   53.2760    0.9760 C.3    92  LEU92       0.1561
    102  C         83.4030   52.6150   -0.1970 C.2    92  LEU92       0.2260
    103  O         83.3740   51.3840   -0.3130 O.2    92  LEU92      -0.2867
    104  CB        81.3410   52.6080    1.2340 C.3    92  LEU92       0.0270
    105  CG        80.5650   53.2130    2.4030 C.3    92  LEU92       0.0019
    106  CD1       79.1960   52.5520    2.5340 C.3    92  LEU92       0.0001
    107  CD2       81.3770   53.0510    3.6720 C.3    92  LEU92       0.0001
    108  N         74.4200   41.5640   -1.2560 N.3   116  SER116     -0.1202
    109  CA        74.7680   42.7720   -0.5230 C.3   116  SER116      0.2020
    110  C         76.2150   43.0770   -0.8850 C.2   116  SER116      0.2619
    111  O         76.7940   42.4280   -1.7620 O.2   116  SER116     -0.2717
    112  CB        74.6000   42.5810    0.9830 C.3   116  SER116      0.2103
    113  OG        75.5760   41.6500    1.4510 O.3   116  SER116     -0.2182
    114  N         76.8200   44.0300   -0.1780 N.am  117  ILE117     -0.1965
    115  CA        78.2180   44.3330   -0.4540 C.3   117  ILE117      0.1727
    116  C         79.1180   43.1290   -0.1860 C.2   117  ILE117      0.2616
    117  O         80.1830   43.0010   -0.8030 O.2   117  ILE117     -0.2715
    118  CB        78.6760   45.5660    0.3540 C.3   117  ILE117      0.0290
    119  CG1       80.0090   46.0840   -0.1850 C.3   117  ILE117      0.0022
    120  CG2       78.7570   45.2490    1.8580 C.3   117  ILE117      0.0023
    121  CD1       80.3390   47.4710    0.3190 C.3   117  ILE117      0.0001
    122  N         78.7190   42.2100    0.7120 N.am  118  ASP118     -0.1957
    123  CA        79.6410   41.1320    1.0670 C.3   118  ASP118      0.1840
    124  C         78.9800   39.7540    1.1060 C.2   118  ASP118      0.2621
    125  O         79.5220   38.8330    1.7320 O.2   118  ASP118     -0.2715
    126  CB        80.3190   41.4210    2.4030 C.3   118  ASP118      0.1450
    127  CG        79.4120   41.1610    3.5880 C.2   118  ASP118      0.3671
    128  OD1       78.1910   41.3510    3.4510 O.co2 118  ASP118     -0.2456
    129  OD2       79.9270   40.7490    4.6500 O.co2 118  ASP118     -0.2456
    130  N         77.8310   39.5840    0.4610 N.am  119  GLU119     -0.1977
    131  CA        77.1760   38.2800    0.3630 C.3   119  GLU119      0.1602
    132  C         76.8480   37.9790   -1.0910 C.2   119  GLU119      0.2287
    133  O         76.4900   38.8760   -1.8580 O.2   119  GLU119     -0.2864
    134  CB        75.8760   38.2290    1.1720 C.3   119  GLU119      0.0415
    135  CG        76.0360   38.3260    2.6640 C.3   119  GLU119      0.1163
    136  CD        74.7000   38.1880    3.3730 C.2   119  GLU119      0.3649
    137  OE1       73.6770   38.0580    2.6780 O.co2 119  GLU119     -0.2457
    138  OE2       74.6620   38.2240    4.6160 O.co2 119  GLU119     -0.2457
    139  N         79.9600   30.5090   12.3400 N.3   227  LYS227     -0.1245
    140  CA        80.7750   31.6680   11.9510 C.3   227  LYS227      0.1561
    141  C         81.8000   31.8870   13.0570 C.2   227  LYS227      0.2260
    142  O         81.5110   31.6120   14.2220 O.2   227  LYS227     -0.2867
    143  CB        79.9020   32.9210   11.7750 C.3   227  LYS227      0.0271
    144  CG        79.3070   33.1760   10.3860 C.3   227  LYS227      0.0035
    145  CD        78.9460   34.6900   10.2190 C.3   227  LYS227      0.0206
    146  CE        78.7990   35.1520    8.7410 C.3   227  LYS227      0.1093
    147  NZ        80.0510   35.7890    8.1150 N.3   227  LYS227     -0.1314
@<TRIPOS>BOND
     1   133   132    2
     2   111   110    2
     3   108   109    1
     4   132   131    1
     5   110   109    1
     6   110   114   am
     7   117   116    2
     8   109   112    1
     9   115   116    1
    10   115   114    1
    11   115   118    1
    12   103   102    2
    13   102   101    1
    14   116   122   am
    15   119   121    1
    16   119   118    1
    17   118   120    1
    18   131   130    1
    19   131   134    1
    20   130   124   am
    21   122   123    1
    22   100   101    1
    23   101   104    1
    24   112   113    1
    25   123   124    1
    26   123   126    1
    27   124   125    2
    28   134   135    1
    29    41    40   ar
    30    41    39   ar
    31   104   105    1
    32    15    16    1
    33    15    14    1
    34    40    38   ar
    35    39    37   ar
    36    14    13    1
    37   105   106    1
    38   105   107    1
    39   126   127    1
    40   135   136    1
    41   137   136   ar
    42     1     2    1
    43    38    36   ar
    44    37    36   ar
    45   136   138   ar
    46   128   127   ar
    47   127   129   ar
    48     2     3    1
    49     2     5    1
    50    13    10    1
    51    36    35    1
    52     9     3   am
    53     9    10    1
    54    50    52   ar
    55    50    48   ar
    56     3     4    2
    57    52    51   ar
    58    10    11    1
    59     5     6    1
    60    48    47   ar
    61    35    32    1
    62    51    49   ar
    63     6     7   ar
    64     6     8   ar
    65    34    33    2
    66    11    12    2
    67    11    17   am
    68    47    49   ar
    69    47    46    1
    70    32    33    1
    71    32    31    1
    72    33    42   am
    73    43    42    1
    74    43    46    1
    75    43    44    1
    76    17    18    1
    77    45    44    2
    78    31    27   am
    79    60    58    1
    80    20    19    2
    81    18    19    1
    82    18    21    1
    83   147   146    1
    84    19    25   am
    85    24    22   ar
    86    27    28    2
    87    27    26    1
    88    22    23   ar
    89    22    21    1
    90   146   145    1
    91    58    57    1
    92    25    26    1
    93    26    29    1
    94    59    57    1
    95    57    54    1
    96   145   144    1
    97   144   143    1
    98    65    62    1
    99    98    97    1
   100    56    55    2
   101    29    30    1
   102    55    54    1
   103    55    61   am
   104    54    53    1
   105    97    96    2
   106    97    99    1
   107    96    95    1
   108   143   140    1
   109    62    61    1
   110    62    63    1
   111   140   139    1
   112   140   141    1
   113    77    76    1
   114    95    94    1
   115    74    76   ar
   116    74    72   ar
   117    88    86    1
   118    63    64    2
   119   141   142    2
   120    76    75   ar
   121    94    93    1
   122    72    71   ar
   123    86    87    1
   124    86    85    2
   125    93    90    1
   126    75    73   ar
   127    71    73   ar
   128    71    70    1
   129    85    84    1
   130    90    91    1
   131    90    89    1
   132    66    67    1
   133    91    92    2
   134    70    67    1
   135    84    83    1
   136    67    68    1
   137    83    82    1
   138    68    69    2
   139    82    79    1
   140    78    79    1
   141    79    80    1
   142    80    81    2
