@<TRIPOS>MOLECULE
tmp/5ewhA00.pdb
 114 113 0 0 0
SMALL
GASTEIGER

@<TRIPOS>ATOM
      1  N         15.7180  -12.6670    5.4540 N.3    26  ILE26      -0.1231
      2  CA        14.2700  -12.5000    5.3610 C.3    26  ILE26       0.1692
      3  C         13.5510  -13.8290    5.2250 C.2    26  ILE26       0.2592
      4  O         12.3370  -13.8880    5.4590 O.2    26  ILE26      -0.2718
      5  CB        13.8500  -11.5600    4.2190 C.3    26  ILE26       0.0266
      6  CG1       14.1860  -12.1410    2.8610 C.3    26  ILE26       0.0019
      7  CG2       14.5060  -10.1860    4.3860 C.3    26  ILE26       0.0020
      8  CD1       13.5170  -11.3860    1.7520 C.3    26  ILE26       0.0001
      9  N         14.2720  -14.9020    4.9010 N.am   27  PHE27      -0.1976
     10  CA        13.6960  -16.2390    4.7870 C.3    27  PHE27       0.1639
     11  C         14.1680  -17.1750    5.8890 C.2    27  PHE27       0.2290
     12  O         13.9770  -18.3920    5.7830 O.2    27  PHE27      -0.2864
     13  CB        14.0350  -16.8450    3.4270 C.3    27  PHE27       0.0560
     14  CG        13.7000  -15.9610    2.2650 C.ar   27  PHE27      -0.0200
     15  CD1       12.3870  -15.6440    1.9770 C.ar   27  PHE27      -0.0042
     16  CD2       14.7080  -15.4460    1.4650 C.ar   27  PHE27      -0.0042
     17  CE1       12.0790  -14.8190    0.8980 C.ar   27  PHE27      -0.0003
     18  CE2       14.4140  -14.6310    0.3960 C.ar   27  PHE27      -0.0003
     19  CZ        13.0850  -14.3310    0.1030 C.ar   27  PHE27      -0.0000
     20  N         13.1200  -17.5100    8.9730 N.3    29  GLU29      -0.1231
     21  CA        12.0410  -17.9810    9.8260 C.3    29  GLU29       0.1684
     22  C         10.7240  -17.8630    9.0740 C.2    29  GLU29       0.2434
     23  O         10.6510  -17.1810    8.0460 O.2    29  GLU29      -0.2733
     24  CB        12.0090  -17.1750   11.1340 C.3    29  GLU29       0.0402
     25  CG        13.3030  -17.3060   11.9250 C.3    29  GLU29       0.1161
     26  CD        13.2920  -16.5400   13.2330 C.2    29  GLU29       0.3649
     27  OE1       12.5050  -15.5790   13.3600 O.co2  29  GLU29      -0.2457
     28  OE2       14.0780  -16.9060   14.1350 O.co2  29  GLU29      -0.2457
     29  N          9.6700  -18.5370    9.5410 N.am   30  PRO30      -0.2718
     30  CA         8.3770  -18.4240    8.8590 C.3    30  PRO30       0.1535
     31  C          7.9510  -16.9680    8.7220 C.2    30  PRO30       0.2598
     32  O          8.2650  -16.1260    9.5660 O.2    30  PRO30      -0.2715
     33  CB         7.4210  -19.2030    9.7730 C.3    30  PRO30       0.0310
     34  CG         8.2910  -20.1980   10.4690 C.3    30  PRO30       0.0237
     35  CD         9.6340  -19.5200   10.6400 C.3    30  PRO30       0.0939
     36  N          7.2500  -16.6740    7.6290 N.am   31  VAL31      -0.1964
     37  CA         6.6150  -15.3670    7.4670 C.3    31  VAL31       0.1712
     38  C          5.7090  -15.1470    8.6730 C.2    31  VAL31       0.2458
     39  O          4.8420  -15.9890    8.9540 O.2    31  VAL31      -0.2730
     40  CB         5.8310  -15.2740    6.1470 C.3    31  VAL31       0.0289
     41  CG1        5.1220  -13.9290    6.0400 C.3    31  VAL31       0.0023
     42  CG2        6.7580  -15.4910    4.9540 C.3    31  VAL31       0.0023
     43  N          5.8860  -14.0540    9.4250 N.am   32  PRO32      -0.2727
     44  CA         5.0910  -13.8600   10.6470 C.3    32  PRO32       0.1402
     45  C          3.6450  -13.4990   10.3510 C.2    32  PRO32       0.2269
     46  O          3.3400  -12.3610    9.9810 O.2    32  PRO32      -0.2865
     47  CB         5.8260  -12.7190   11.3630 C.3    32  PRO32       0.0296
     48  CG         6.4750  -11.9500   10.2610 C.3    32  PRO32       0.0237
     49  CD         6.8640  -12.9710    9.2190 C.3    32  PRO32       0.0939
     50  N          1.9710  -10.2770   11.5570 N.3    35  GLU35      -0.1231
     51  CA         2.2080   -9.0260   10.8520 C.3    35  GLU35       0.1699
     52  C          1.7630   -9.0690    9.3970 C.2    35  GLU35       0.2592
     53  O          1.6800   -8.0150    8.7580 O.2    35  GLU35      -0.2718
     54  CB         3.6920   -8.6540   10.9220 C.3    35  GLU35       0.0402
     55  CG         4.2380   -8.6200   12.3360 C.3    35  GLU35       0.1161
     56  CD         5.7500   -8.5480   12.3710 C.2    35  GLU35       0.3649
     57  OE1        6.3600   -8.2980   11.3070 O.co2  35  GLU35      -0.2457
     58  OE2        6.3270   -8.7490   13.4610 O.co2  35  GLU35      -0.2457
     59  N          1.4880  -10.2520    8.8600 N.am   36  VAL36      -0.1980
     60  CA         0.9880  -10.4040    7.4960 C.3    36  VAL36       0.1595
     61  C         -0.3010  -11.2160    7.5610 C.2    36  VAL36       0.2287
     62  O         -0.3110  -12.3920    7.1740 O.2    36  VAL36      -0.2864
     63  CB         2.0290  -11.0750    6.5870 C.3    36  VAL36       0.0276
     64  CG1        1.5860  -11.0020    5.1440 C.3    36  VAL36       0.0022
     65  CG2        3.3980  -10.4220    6.7620 C.3    36  VAL36       0.0022
     66  N         -1.5300  -13.4540    4.5440 N.3    39  TYR39      -0.1241
     67  CA        -0.5220  -14.2410    3.8390 C.3    39  TYR39       0.1605
     68  C         -1.0710  -15.5870    3.3780 C.2    39  TYR39       0.2264
     69  O         -0.7830  -16.0320    2.2590 O.2    39  TYR39      -0.2867
     70  CB         0.6900  -14.4400    4.7410 C.3    39  TYR39       0.0534
     71  CG         1.8570  -15.0670    4.0300 C.ar   39  TYR39      -0.0201
     72  CD1        2.5800  -14.3460    3.0920 C.ar   39  TYR39      -0.0009
     73  CD2        2.2450  -16.3770    4.3010 C.ar   39  TYR39      -0.0009
     74  CE1        3.6530  -14.9180    2.4330 C.ar   39  TYR39       0.0417
     75  CE2        3.3330  -16.9530    3.6480 C.ar   39  TYR39       0.0417
     76  CZ         4.0270  -16.2110    2.7140 C.ar   39  TYR39       0.1957
     77  OH         5.1040  -16.7700    2.0560 O.3    39  TYR39      -0.2866
     78  N          7.4140  -16.1590   -2.2270 N.3    78  CYS78      -0.1235
     79  CA         7.7870  -14.7530   -2.0830 C.3    78  CYS78       0.1677
     80  C          7.5230  -13.9840   -3.3730 C.2    78  CYS78       0.2270
     81  O          7.0160  -12.8530   -3.3460 O.2    78  CYS78      -0.2867
     82  CB         9.2570  -14.6700   -1.6650 C.3    78  CYS78       0.0956
     83  SG         9.8270  -13.0130   -1.2570 S.3    78  CYS78      -0.0801
     84  N          3.5840  -13.6060   -3.3380 N.3    81  TYR81      -0.1227
     85  CA         2.9070  -12.7420   -2.3780 C.3    81  TYR81       0.1736
     86  C          3.2180  -11.2740   -2.6160 C.2    81  TYR81       0.2595
     87  O          2.3360  -10.4160   -2.4690 O.2    81  TYR81      -0.2718
     88  CB         3.2790  -13.1230   -0.9470 C.3    81  TYR81       0.0548
     89  CG         2.5530  -12.2430    0.0310 C.ar   81  TYR81      -0.0200
     90  CD1        1.2160  -12.4630    0.3130 C.ar   81  TYR81      -0.0009
     91  CD2        3.1800  -11.1580    0.6130 C.ar   81  TYR81      -0.0009
     92  CE1        0.5340  -11.6550    1.1760 C.ar   81  TYR81       0.0417
     93  CE2        2.5010  -10.3250    1.4820 C.ar   81  TYR81       0.0417
     94  CZ         1.1750  -10.5810    1.7570 C.ar   81  TYR81       0.1957
     95  OH         0.4730   -9.7690    2.6180 O.3    81  TYR81      -0.2866
     96  N          4.4560  -10.9640   -2.9770 N.am   82  ASN82      -0.1974
     97  CA         4.9350   -9.5900   -2.9650 C.3    82  ASN82       0.1688
     98  C          4.8960   -8.9770   -4.3520 C.2    82  ASN82       0.2292
     99  O          5.0830   -9.6580   -5.3610 O.2    82  ASN82      -0.2864
    100  CB         6.3560   -9.5380   -2.4110 C.3    82  ASN82       0.1181
    101  CG         6.4240  -10.0370   -0.9930 C.2    82  ASN82       0.2629
    102  OD1        6.0800   -9.3090   -0.0670 O.2    82  ASN82      -0.2716
    103  ND2        6.8050  -11.3070   -0.8160 N.am   82  ASN82      -0.0877
    104  N         11.3860   -7.3760   -1.2310 N.3    88  PHE88      -0.1241
    105  CA        11.1310   -8.7930   -0.9860 C.3    88  PHE88       0.1605
    106  C         11.0670   -9.5740   -2.2930 C.2    88  PHE88       0.2264
    107  O         11.6520  -10.6610   -2.4080 O.2    88  PHE88      -0.2867
    108  CB         9.8350   -8.9840   -0.1920 C.3    88  PHE88       0.0534
    109  CG         9.9410   -8.5920    1.2600 C.ar   88  PHE88      -0.0203
    110  CD1       11.1790   -8.4130    1.8590 C.ar   88  PHE88      -0.0042
    111  CD2        8.8010   -8.3950    2.0220 C.ar   88  PHE88      -0.0042
    112  CE1       11.2740   -8.0430    3.1950 C.ar   88  PHE88      -0.0003
    113  CE2        8.8910   -8.0290    3.3560 C.ar   88  PHE88      -0.0003
    114  CZ        10.1300   -7.8580    3.9410 C.ar   88  PHE88      -0.0000
@<TRIPOS>BOND
     1    99    98    2
     2    98    97    1
     3    80    81    2
     4    80    79    1
     5    84    85    1
     6    96    97    1
     7    96    86   am
     8    97   100    1
     9    86    87    2
    10    86    85    1
    11   100   101    1
    12   107   106    2
    13    85    88    1
    14   106   105    1
    15    78    79    1
    16    79    82    1
    17    82    83    1
    18   104   105    1
    19   101   103   am
    20   101   102    2
    21   105   108    1
    22    88    89    1
    23   108   109    1
    24    89    90   ar
    25    89    91   ar
    26    19    18   ar
    27    19    17   ar
    28    90    92   ar
    29    18    16   ar
    30    91    93   ar
    31    17    15   ar
    32    92    94   ar
    33   109   110   ar
    34   109   111   ar
    35    16    14   ar
    36    93    94   ar
    37     8     6    1
    38    94    95    1
    39   110   112   ar
    40    15    14   ar
    41   111   113   ar
    42    77    76    1
    43    69    68    2
    44    14    13    1
    45    74    76   ar
    46    74    72   ar
    47    76    75   ar
    48     6     5    1
    49    72    71   ar
    50   112   114   ar
    51   113   114   ar
    52    68    67    1
    53    13    10    1
    54    75    73   ar
    55    67    66    1
    56    67    70    1
    57    71    73   ar
    58    71    70    1
    59     5     7    1
    60     5     2    1
    61    10     9    1
    62    10    11    1
    63     9     3   am
    64    42    40    1
    65    64    63    1
    66     3     2    1
    67     3     4    2
    68     2     1    1
    69    12    11    2
    70    41    40    1
    71    40    37    1
    72    63    65    1
    73    63    60    1
    74    62    61    2
    75    37    36    1
    76    37    38    1
    77    60    61    1
    78    60    59    1
    79    36    31   am
    80    23    22    2
    81    38    39    2
    82    38    43   am
    83    31    30    1
    84    31    32    2
    85    53    52    2
    86    30    29    1
    87    30    33    1
    88    59    52   am
    89    20    21    1
    90    22    29   am
    91    22    21    1
    92    49    43    1
    93    49    48    1
    94    52    51    1
    95    43    44    1
    96    29    35    1
    97    33    34    1
    98    21    24    1
    99    46    45    2
   100    48    47    1
   101    45    44    1
   102    34    35    1
   103    44    47    1
   104    51    54    1
   105    51    50    1
   106    54    55    1
   107    24    25    1
   108    57    56   ar
   109    25    26    1
   110    55    56    1
   111    56    58   ar
   112    26    27   ar
   113    26    28   ar
