@<TRIPOS>MOLECULE
tmp/5ewkA00.pdb
 164 158 0 0 0
SMALL
GASTEIGER

@<TRIPOS>ATOM
      1  N         32.9410   32.4200   16.0700 N.3    41  TYR41      -0.1227
      2  CA        32.6270   31.3840   17.0380 C.3    41  TYR41       0.1736
      3  C         31.1550   31.4680   17.3990 C.2    41  TYR41       0.2595
      4  O         30.5450   32.5290   17.3340 O.2    41  TYR41      -0.2718
      5  CB        33.5110   31.4960   18.3060 C.3    41  TYR41       0.0548
      6  CG        34.9660   31.6150   17.9160 C.ar   41  TYR41      -0.0200
      7  CD1       35.5260   32.8510   17.6900 C.ar   41  TYR41      -0.0009
      8  CD2       35.7320   30.5110   17.7640 C.ar   41  TYR41      -0.0009
      9  CE1       36.8590   32.9840   17.2780 C.ar   41  TYR41       0.0417
     10  CE2       37.0700   30.6280   17.3560 C.ar   41  TYR41       0.0417
     11  CZ        37.5990   31.8610   17.1360 C.ar   41  TYR41       0.1957
     12  OH        38.9100   31.9690   16.7030 O.3    41  TYR41      -0.2866
     13  N         30.5890   30.3290   17.7720 N.am   42  ARG42      -0.1966
     14  CA        29.2390   30.3050   18.3290 C.3    42  ARG42       0.1729
     15  C         29.1590   29.2420   19.4090 C.2    42  ARG42       0.2617
     16  O         29.4150   28.0560   19.1480 O.2    42  ARG42      -0.2715
     17  CB        28.1830   30.0270   17.2490 C.3    42  ARG42       0.0348
     18  CG        26.7690   29.9660   17.8120 C.3    42  ARG42       0.0492
     19  CD        25.6970   29.7420   16.7180 C.3    42  ARG42       0.2205
     20  NE        24.4460   29.2880   17.3380 N.pl3  42  ARG42      -0.0865
     21  CZ        23.5290   30.0760   17.8700 C.cat  42  ARG42       0.5346
     22  NH1       22.4500   29.5270   18.4390 N.pl3  42  ARG42       0.1354
     23  NH2       23.6450   31.3970   17.8360 N.pl3  42  ARG42       0.1354
     24  N         28.7830   29.6940   20.6090 N.am   43  SER43      -0.1936
     25  CA        28.4120   28.8320   21.7160 C.3    43  SER43       0.2055
     26  C         26.9950   28.3100   21.4590 C.2    43  SER43       0.2643
     27  O         26.0860   29.0950   21.1740 O.2    43  SER43      -0.2714
     28  CB        28.4890   29.6550   23.0140 C.3    43  SER43       0.2130
     29  OG        28.0770   28.8450   24.0900 O.3    43  SER43      -0.2179
     30  N         26.8060   26.9960   21.5020 N.am   44  ASP44      -0.1971
     31  CA        25.4870   26.4250   21.2420 C.3    44  ASP44       0.1709
     32  C         25.3700   25.1080   22.0000 C.2    44  ASP44       0.2293
     33  O         26.3120   24.3070   22.0370 O.2    44  ASP44      -0.2864
     34  CB        25.2690   26.2210   19.7380 C.3    44  ASP44       0.1436
     35  CG        23.8210   26.2270   19.3250 C.2    44  ASP44       0.3671
     36  OD1       22.9560   25.6750   20.0510 O.co2  44  ASP44      -0.2456
     37  OD2       23.5340   26.7720   18.2340 O.co2  44  ASP44      -0.2456
     38  N         23.2650   22.8560   20.9740 N.3    46  ARG46      -0.1245
     39  CA        22.9130   21.8610   19.9710 C.3    46  ARG46       0.1563
     40  C         24.1570   21.1120   19.5290 C.2    46  ARG46       0.2260
     41  O         25.2330   21.7040   19.3980 O.2    46  ARG46      -0.2867
     42  CB        22.2380   22.5230   18.7750 C.3    46  ARG46       0.0307
     43  CG        20.8210   22.9960   19.0990 C.3    46  ARG46       0.0489
     44  CD        20.1970   23.6490   17.8990 C.3    46  ARG46       0.2205
     45  NE        19.3710   22.7150   17.1470 N.pl3  46  ARG46      -0.0865
     46  CZ        19.0250   22.8830   15.8760 C.cat  46  ARG46       0.5346
     47  NH1       19.4510   23.9480   15.2060 N.pl3  46  ARG46       0.1354
     48  NH2       18.2570   21.9820   15.2730 N.pl3  46  ARG46       0.1354
     49  N         20.4760   27.1190   11.5760 N.3    57  LEU57      -0.1245
     50  CA        19.2640   27.7220   11.0460 C.3    57  LEU57       0.1561
     51  C         18.7210   28.7490   12.0240 C.2    57  LEU57       0.2260
     52  O         18.7790   28.5330   13.2390 O.2    57  LEU57      -0.2867
     53  CB        18.2010   26.6600   10.7840 C.3    57  LEU57       0.0270
     54  CG        18.5180   25.6620    9.6750 C.3    57  LEU57       0.0019
     55  CD1       17.5940   24.4440    9.7880 C.3    57  LEU57       0.0001
     56  CD2       18.3630   26.3150    8.3130 C.3    57  LEU57       0.0001
     57  N         15.7790   30.9450   13.9980 N.3    59  LYS59      -0.1245
     58  CA        14.4860   30.5710   14.5680 C.3    59  LYS59       0.1561
     59  C         13.3210   30.9630   13.6540 C.2    59  LYS59       0.2260
     60  O         12.4060   30.1630   13.4380 O.2    59  LYS59      -0.2867
     61  CB        14.3250   31.2090   15.9430 C.3    59  LYS59       0.0271
     62  CG        15.2820   30.7060   17.0150 C.3    59  LYS59       0.0035
     63  CD        14.7890   31.1650   18.3900 C.3    59  LYS59       0.0206
     64  CE        15.9050   31.3100   19.4170 C.3    59  LYS59       0.1093
     65  NZ        16.2200   30.0420   20.1480 N.3    59  LYS59      -0.1314
     66  N         16.5490   42.4870   19.0310 N.3    71  TYR71      -0.1241
     67  CA        16.9980   41.0970   19.1610 C.3    71  TYR71       0.1605
     68  C         18.1010   40.9620   20.2100 C.2    71  TYR71       0.2264
     69  O         18.0780   40.0530   21.0600 O.2    71  TYR71      -0.2867
     70  CB        17.5030   40.6150   17.7840 C.3    71  TYR71       0.0534
     71  CG        18.3220   39.3430   17.7860 C.ar   71  TYR71      -0.0201
     72  CD1       17.7320   38.1400   18.1250 C.ar   71  TYR71      -0.0009
     73  CD2       19.6760   39.3290   17.4030 C.ar   71  TYR71      -0.0009
     74  CE1       18.4420   36.9610   18.1370 C.ar   71  TYR71       0.0417
     75  CE2       20.3990   38.1450   17.4120 C.ar   71  TYR71       0.0417
     76  CZ        19.7680   36.9580   17.7830 C.ar   71  TYR71       0.1957
     77  OH        20.4240   35.7430   17.8180 O.3    71  TYR71      -0.2866
     78  N         15.8640   38.8230   24.0170 N.3    75  ASN75      -0.1240
     79  CA        15.9790   37.6840   23.1260 C.3    75  ASN75       0.1653
     80  C         14.5850   37.2610   22.6890 C.2    75  ASN75       0.2266
     81  O         13.6710   37.1250   23.5070 O.2    75  ASN75      -0.2867
     82  CB        16.7310   36.5280   23.7850 C.3    75  ASN75       0.1155
     83  CG        17.1660   35.4690   22.7820 C.2    75  ASN75       0.2627
     84  OD1       18.1850   35.6200   22.1030 O.2    75  ASN75      -0.2716
     85  ND2       16.3900   34.3970   22.6790 N.am   75  ASN75      -0.0877
     86  N         18.1590   35.8380   12.5310 N.3    80  TYR80      -0.1227
     87  CA        19.6050   35.9010   12.6790 C.3    80  TYR80       0.1736
     88  C         20.1410   34.6920   13.4400 C.2    80  TYR80       0.2595
     89  O         19.5220   34.2040   14.3900 O.2    80  TYR80      -0.2718
     90  CB        20.0090   37.1760   13.4300 C.3    80  TYR80       0.0548
     91  CG        19.4990   38.4270   12.8030 C.ar   80  TYR80      -0.0200
     92  CD1       20.0350   38.9000   11.6220 C.ar   80  TYR80      -0.0009
     93  CD2       18.4660   39.1530   13.3900 C.ar   80  TYR80      -0.0009
     94  CE1       19.5610   40.0630   11.0240 C.ar   80  TYR80       0.0417
     95  CE2       17.9880   40.3130   12.8150 C.ar   80  TYR80       0.0417
     96  CZ        18.5350   40.7740   11.6350 C.ar   80  TYR80       0.1957
     97  OH        18.0590   41.9270   11.0490 O.3    80  TYR80      -0.2866
     98  N         21.3110   34.2240   13.0390 N.am   81  VAL81      -0.1966
     99  CA        22.1210   33.3560   13.8920 C.3    81  VAL81       0.1727
    100  C         23.2900   34.1700   14.4220 C.2    81  VAL81       0.2617
    101  O         24.1030   34.6870   13.6360 O.2    81  VAL81      -0.2715
    102  CB        22.6280   32.1100   13.1520 C.3    81  VAL81       0.0290
    103  CG1       23.5900   31.3110   14.0500 C.3    81  VAL81       0.0023
    104  CG2       21.4280   31.2330   12.7100 C.3    81  VAL81       0.0023
    105  N         23.4030   34.2270   15.7470 N.am   82  SER82      -0.1936
    106  CA        24.4390   35.0170   16.4030 C.3    82  SER82       0.2055
    107  C         25.7500   34.2530   16.4770 C.2    82  SER82       0.2644
    108  O         25.7880   33.0780   16.8460 O.2    82  SER82      -0.2714
    109  CB        24.0320   35.4020   17.8170 C.3    82  SER82       0.2130
    110  OG        22.9010   36.2440   17.7840 O.3    82  SER82      -0.2179
    111  N         26.8270   34.9610   16.1490 N.am   83  THR83      -0.1936
    112  CA        28.1960   34.4880   16.3270 C.3    83  THR83       0.2028
    113  C         28.9950   35.6080   16.9830 C.2    83  THR83       0.2642
    114  O         28.5120   36.7380   17.1430 O.2    83  THR83      -0.2714
    115  CB        28.8460   34.1010   14.9910 C.3    83  THR83       0.1808
    116  OG1       29.1100   35.2890   14.2540 O.3    83  THR83      -0.2208
    117  CG2       27.9320   33.1300   14.1950 C.3    83  THR83       0.0379
    118  N         30.2520   35.3250   17.3120 N.am   84  THR84      -0.1950
    119  CA        31.1200   36.2990   17.9450 C.3    84  THR84       0.1897
    120  C         32.5320   36.2530   17.3620 C.2    84  THR84       0.2313
    121  O         33.0190   35.2050   16.9300 O.2    84  THR84      -0.2863
    122  CB        31.1840   36.0690   19.4760 C.3    84  THR84       0.1794
    123  OG1       32.0560   37.0170   20.0850 O.3    84  THR84      -0.2208
    124  CG2       31.6290   34.6570   19.8190 C.3    84  THR84       0.0378
    125  N         34.1350   33.6400   24.2620 N.3    89  LEU89      -0.1245
    126  CA        32.8320   34.0460   24.7800 C.3    89  LEU89       0.1561
    127  C         32.0630   32.8520   25.3170 C.2    89  LEU89       0.2260
    128  O         31.1820   33.0180   26.1710 O.2    89  LEU89      -0.2867
    129  CB        32.0310   34.7570   23.6710 C.3    89  LEU89       0.0270
    130  CG        30.7750   35.4900   24.2510 C.3    89  LEU89       0.0019
    131  CD1       31.2050   36.6660   25.0730 C.3    89  LEU89       0.0001
    132  CD2       29.8710   35.9280   23.1060 C.3    89  LEU89       0.0001
    133  N         28.6350   31.5640   28.6460 N.3    93  TRP93      -0.1241
    134  CA        27.3710   30.8670   28.4190 C.3    93  TRP93       0.1605
    135  C         27.3690   29.6120   29.2750 C.2    93  TRP93       0.2264
    136  O         28.1450   28.6830   29.0320 O.2    93  TRP93      -0.2867
    137  CB        27.1860   30.5060   26.9460 C.3    93  TRP93       0.0550
    138  CG        27.1550   31.6640   26.0320 C.ar   93  TRP93       0.0003
    139  CD1       28.2150   32.2110   25.3820 C.ar   93  TRP93       0.0946
    140  CD2       26.0060   32.4330   25.6460 C.ar   93  TRP93       0.0152
    141  NE1       27.8070   33.2740   24.6220 N.ar   93  TRP93      -0.2442
    142  CE2       26.4580   33.4370   24.7640 C.ar   93  TRP93       0.0810
    143  CE3       24.6480   32.3790   25.9670 C.ar   93  TRP93       0.0012
    144  CZ2       25.6050   34.3710   24.1930 C.ar   93  TRP93       0.0191
    145  CZ3       23.8000   33.3090   25.3940 C.ar   93  TRP93       0.0001
    146  CH2       24.2810   34.2890   24.5160 C.ar   93  TRP93       0.0015
    147  N         29.9570   41.2750   23.7170 N.3   123  GLN123     -0.1245
    148  CA        29.7570   40.0200   23.0120 C.3   123  GLN123      0.1566
    149  C         30.3510   40.0540   21.6110 C.2   123  GLN123      0.2260
    150  O         30.4330   38.9930   20.9730 O.2   123  GLN123     -0.2867
    151  CB        28.2800   39.6790   22.8690 C.3   123  GLN123      0.0367
    152  CG        27.5290   39.4300   24.1700 C.3   123  GLN123      0.0905
    153  CD        26.1240   38.8950   23.8770 C.2   123  GLN123      0.2608
    154  OE1       25.3400   39.5140   23.1120 O.2   123  GLN123     -0.2717
    155  NE2       25.8050   37.7480   24.4590 N.am  123  GLN123     -0.0878
    156  N         29.4510   40.7610   18.6130 N.3   125  GLU125     -0.1245
    157  CA        28.6130   39.8460   17.8710 C.3   125  GLU125      0.1567
    158  C         28.6430   40.1390   16.3770 C.2   125  GLU125      0.2260
    159  O         28.7070   41.2970   15.9490 O.2   125  GLU125     -0.2867
    160  CB        27.1680   39.9500   18.3790 C.3   125  GLU125      0.0388
    161  CG        26.2150   39.0080   17.7050 C.3   125  GLU125      0.1160
    162  CD        24.7780   39.1240   18.1910 C.2   125  GLU125      0.3649
    163  OE1       24.5440   39.7390   19.2470 O.co2 125  GLU125     -0.2457
    164  OE2       23.9040   38.5630   17.4960 O.co2 125  GLU125     -0.2457
@<TRIPOS>BOND
     1    56    54    1
     2    54    55    1
     3    54    53    1
     4    53    50    1
     5    94    92   ar
     6    94    96   ar
     7    50    49    1
     8    50    51    1
     9    97    96    1
    10    92    91   ar
    11    96    95   ar
    12    51    52    2
    13    86    87    1
    14    87    90    1
    15    87    88    1
    16   104   102    1
    17    91    93   ar
    18    91    90    1
    19    95    93   ar
    20    98    88   am
    21    98    99    1
    22   102    99    1
    23   102   103    1
    24    60    59    2
    25    88    89    2
    26   101   100    2
    27    59    58    1
    28    99   100    1
    29    57    58    1
    30   117   115    1
    31   116   115    1
    32   100   105   am
    33    58    61    1
    34   115   112    1
    35    47    46    1
    36    48    46    1
    37   105   106    1
    38    46    45    2
    39    61    62    1
    40   159   158    2
    41     1     2    1
    42   111   112    1
    43   111   107   am
    44   112   113    1
    45   158   157    1
    46   106   107    1
    47   106   109    1
    48   107   108    2
    49    12    11    1
    50    19    20    1
    51    19    18    1
    52   121   120    2
    53   113   114    2
    54   113   118   am
    55    62    63    1
    56     2     3    1
    57     2     5    1
    58    11     9   ar
    59    11    10   ar
    60    45    44    1
    61    17    18    1
    62    17    14    1
    63     9     7   ar
    64   118   119    1
    65     4     3    2
    66    20    21    2
    67    10     8   ar
    68   120   119    1
    69     3    13   am
    70    73    75   ar
    71    73    71   ar
    72    75    76   ar
    73   164   162   ar
    74     7     6   ar
    75   161   162    1
    76   161   160    1
    77     8     6   ar
    78    13    14    1
    79    76    77    1
    80    76    74   ar
    81   110   109    1
    82    70    71    1
    83    70    67    1
    84    71    72   ar
    85    23    21    1
    86    21    22    1
    87   157   160    1
    88   157   156    1
    89    44    43    1
    90     6     5    1
    91   119   122    1
    92    72    74   ar
    93   162   163   ar
    94    37    35   ar
    95    14    15    1
    96    63    64    1
    97    42    43    1
    98    42    39    1
    99    66    67    1
   100    16    15    2
   101    67    68    1
   102    35    34    1
   103    35    36   ar
   104    41    40    2
   105    15    24   am
   106    64    65    1
   107   122   124    1
   108   122   123    1
   109    40    39    1
   110    34    31    1
   111    39    38    1
   112    68    69    2
   113    24    25    1
   114   150   149    2
   115    27    26    2
   116    31    30    1
   117    31    32    1
   118    26    30   am
   119    26    25    1
   120   149   148    1
   121    25    28    1
   122    32    33    2
   123    84    83    2
   124    85    83   am
   125    80    79    1
   126    80    81    2
   127    83    82    1
   128   151   148    1
   129   151   152    1
   130   148   147    1
   131    28    29    1
   132   132   130    1
   133   154   153    2
   134    79    82    1
   135    79    78    1
   136   129   130    1
   137   129   126    1
   138   153   152    1
   139   153   155   am
   140   144   146   ar
   141   144   142   ar
   142   130   131    1
   143   125   126    1
   144   146   145   ar
   145   141   142   ar
   146   141   139   ar
   147   142   140   ar
   148   126   127    1
   149   127   128    2
   150   139   138   ar
   151   145   143   ar
   152   140   143   ar
   153   140   138   ar
   154   138   137    1
   155   137   134    1
   156   134   133    1
   157   134   135    1
   158   136   135    2
