@<TRIPOS>MOLECULE
tmp/5ewlD00.pdb
 116 111 0 0 0
SMALL
GASTEIGER

@<TRIPOS>ATOM
      1  N         29.0130  -13.3290  -36.1220 N.3    41  PRO41      -0.2116
      2  CA        30.1330  -12.7500  -35.3490 C.3    41  PRO41       0.1372
      3  C         31.3990  -13.6020  -35.3410 C.2    41  PRO41       0.2244
      4  O         32.4690  -13.0660  -35.6670 O.2    41  PRO41      -0.2868
      5  CB        29.5540  -12.5420  -33.9470 C.3    41  PRO41       0.0268
      6  CG        28.1230  -12.4300  -34.1630 C.3    41  PRO41       0.0207
      7  CD        27.7940  -13.3730  -35.2970 C.3    41  PRO41       0.0892
      8  N         34.9750  -12.3470  -36.9080 N.3    45  ILE45      -0.1245
      9  CA        36.0490  -12.1340  -35.9230 C.3    45  ILE45       0.1561
     10  C         37.2280  -13.0400  -36.2630 C.2    45  ILE45       0.2260
     11  O         38.3330  -12.5330  -36.4360 O.2    45  ILE45      -0.2867
     12  CB        35.5890  -12.2530  -34.4320 C.3    45  ILE45       0.0252
     13  CG1       34.6260  -11.1310  -34.0370 C.3    45  ILE45       0.0019
     14  CG2       36.7870  -12.2610  -33.4860 C.3    45  ILE45       0.0019
     15  CD1       33.7960  -11.4130  -32.7620 C.3    45  ILE45       0.0001
     16  N         23.1450   -5.1540  -41.6050 N.3    69  GLU69      -0.1231
     17  CA        23.7220   -3.9500  -40.9930 C.3    69  GLU69       0.1699
     18  C         24.5510   -4.2270  -39.7290 C.2    69  GLU69       0.2592
     19  O         25.3110   -3.3430  -39.3270 O.2    69  GLU69      -0.2718
     20  CB        22.6460   -2.8630  -40.7340 C.3    69  GLU69       0.0402
     21  CG        21.7360   -3.0510  -39.5320 C.3    69  GLU69       0.1161
     22  CD        20.8500   -4.2790  -39.5360 C.2    69  GLU69       0.3649
     23  OE1       20.4280   -4.7290  -40.6280 O.co2  69  GLU69      -0.2457
     24  OE2       20.5870   -4.8000  -38.4320 O.co2  69  GLU69      -0.2457
     25  N         24.4130   -5.4320  -39.1130 N.am   70  ALA70      -0.1980
     26  CA        25.1920   -5.8060  -37.9220 C.3    70  ALA70       0.1597
     27  C         26.6470   -6.0570  -38.2990 C.2    70  ALA70       0.2287
     28  O         27.5350   -5.9380  -37.4490 O.2    70  ALA70      -0.2864
     29  CB        24.6070   -7.0320  -37.2410 C.3    70  ALA70       0.0319
     30  N         28.4250   -3.2810  -37.0800 N.3    73  GLN73      -0.1231
     31  CA        28.7310   -3.3610  -35.6500 C.3    73  GLN73       0.1698
     32  C         29.9510   -4.2770  -35.3990 C.2    73  GLN73       0.2592
     33  O         30.9200   -3.8260  -34.7800 O.2    73  GLN73      -0.2718
     34  CB        27.4970   -3.8000  -34.8450 C.3    73  GLN73       0.0381
     35  CG        27.6310   -3.6590  -33.3220 C.3    73  GLN73       0.0905
     36  CD        27.9950   -2.2840  -32.8370 C.2    73  GLN73       0.2608
     37  OE1       29.1680   -1.9270  -32.7920 O.2    73  GLN73      -0.2717
     38  NE2       27.0020   -1.5060  -32.4140 N.am   73  GLN73      -0.0878
     39  N         29.9360   -5.5240  -35.9500 N.am   74  ILE74      -0.1980
     40  CA        31.0420   -6.4930  -35.8270 C.3    74  ILE74       0.1595
     41  C         32.3520   -5.8670  -36.2580 C.2    74  ILE74       0.2287
     42  O         33.3590   -6.0720  -35.5760 O.2    74  ILE74      -0.2864
     43  CB        30.7940   -7.8420  -36.5580 C.3    74  ILE74       0.0276
     44  CG1       29.3550   -8.3670  -36.3120 C.3    74  ILE74       0.0022
     45  CG2       31.8240   -8.8880  -36.1110 C.3    74  ILE74       0.0022
     46  CD1       28.9340   -9.6520  -37.0890 C.3    74  ILE74       0.0001
     47  N         33.5960   -3.1880  -33.5830 N.3    77  PHE77      -0.1241
     48  CA        34.1320   -3.9410  -32.4630 C.3    77  PHE77       0.1605
     49  C         35.5380   -4.4470  -32.8230 C.2    77  PHE77       0.2264
     50  O         36.4880   -4.1140  -32.1050 O.2    77  PHE77      -0.2867
     51  CB        33.1790   -5.1030  -32.0850 C.3    77  PHE77       0.0534
     52  CG        33.7050   -6.0550  -31.0290 C.ar   77  PHE77      -0.0203
     53  CD1       33.5580   -5.7700  -29.6770 C.ar   77  PHE77      -0.0042
     54  CD2       34.3350   -7.2400  -31.3920 C.ar   77  PHE77      -0.0042
     55  CE1       34.0360   -6.6500  -28.7110 C.ar   77  PHE77      -0.0003
     56  CE2       34.8280   -8.1120  -30.4230 C.ar   77  PHE77      -0.0003
     57  CZ        34.6700   -7.8180  -29.0890 C.ar   77  PHE77      -0.0000
     58  N         25.2650    2.2930  -34.5190 N.3    98  ALA98      -0.1245
     59  CA        25.3020    2.8770  -33.1840 C.3    98  ALA98       0.1562
     60  C         26.4950    3.8790  -33.0610 C.2    98  ALA98       0.2260
     61  O         27.2020    4.1410  -34.0510 O.2    98  ALA98      -0.2867
     62  CB        25.4040    1.7530  -32.1530 C.3    98  ALA98       0.0290
     63  N         13.8490    1.1850  -32.1460 N.3   138  TYR138     -0.1227
     64  CA        14.9230    1.5930  -31.2430 C.3   138  TYR138      0.1736
     65  C         16.2740    1.4890  -31.9250 C.2   138  TYR138      0.2595
     66  O         17.2790    1.6810  -31.2750 O.2   138  TYR138     -0.2718
     67  CB        14.8930    0.8010  -29.9280 C.3   138  TYR138      0.0548
     68  CG        13.8930    1.3090  -28.9180 C.ar  138  TYR138     -0.0200
     69  CD1       12.5510    0.9430  -28.9890 C.ar  138  TYR138     -0.0009
     70  CD2       14.2930    2.1190  -27.8610 C.ar  138  TYR138     -0.0009
     71  CE1       11.6320    1.3710  -28.0360 C.ar  138  TYR138      0.0417
     72  CE2       13.3790    2.5660  -26.9080 C.ar  138  TYR138      0.0417
     73  CZ        12.0490    2.1820  -26.9940 C.ar  138  TYR138      0.1957
     74  OH        11.1470    2.6010  -26.0400 O.3   138  TYR138     -0.2866
     75  N         16.3060    1.2030  -33.2360 N.am  139  PHE139     -0.1963
     76  CA        17.5450    1.0850  -34.0020 C.3   139  PHE139      0.1756
     77  C         18.4950    2.2500  -33.6810 C.2   139  PHE139      0.2461
     78  O         18.0670    3.4160  -33.7260 O.2   139  PHE139     -0.2730
     79  CB        17.2980    0.9470  -35.5210 C.3   139  PHE139      0.0574
     80  CG        18.5890    0.6510  -36.2410 C.ar  139  PHE139     -0.0200
     81  CD1       19.1890   -0.6050  -36.1430 C.ar  139  PHE139     -0.0042
     82  CD2       19.2720    1.6560  -36.9160 C.ar  139  PHE139     -0.0042
     83  CE1       20.4120   -0.8670  -36.7590 C.ar  139  PHE139     -0.0003
     84  CE2       20.5020    1.3920  -37.5300 C.ar  139  PHE139     -0.0003
     85  CZ        21.0520    0.1270  -37.4620 C.ar  139  PHE139     -0.0000
     86  N         19.7590    1.9570  -33.2980 N.am  140  PRO140     -0.2727
     87  CA        20.6600    3.0380  -32.9060 C.3   140  PRO140      0.1402
     88  C         20.6680    4.2780  -33.8070 C.2   140  PRO140      0.2269
     89  O         20.8770    4.1800  -35.0240 O.2   140  PRO140     -0.2865
     90  CB        22.0030    2.3520  -32.8650 C.3   140  PRO140      0.0296
     91  CG        21.7150    0.9490  -32.5910 C.3   140  PRO140      0.0237
     92  CD        20.4090    0.6350  -33.1730 C.3   140  PRO140      0.0939
     93  N         10.5920   -3.2170  -30.9860 N.3   170  MET170     -0.1245
     94  CA        10.6560   -4.4380  -31.7620 C.3   170  MET170      0.1570
     95  C         11.2760   -5.6080  -31.0010 C.2   170  MET170      0.2261
     96  O         11.1260   -6.7550  -31.4280 O.2   170  MET170     -0.2867
     97  CB        11.3960   -4.1700  -33.0760 C.3   170  MET170      0.0387
     98  CG        10.5920   -3.3200  -34.0340 C.3   170  MET170      0.0595
     99  SD         9.1930   -4.1520  -34.8120 S.3   170  MET170     -0.1393
    100  CE         8.1060   -2.8630  -34.8980 C.3   170  MET170      0.0692
    101  N         15.3180   -0.9410  -39.4580 N.3   196  THR196     -0.1218
    102  CA        16.1040   -1.8520  -40.3050 C.3   196  THR196      0.1862
    103  C         15.2050   -2.4330  -41.3750 C.2   196  THR196      0.2287
    104  O         13.9870   -2.3420  -41.2470 O.2   196  THR196     -0.2866
    105  CB        16.7800   -2.9630  -39.4860 C.3   196  THR196      0.1770
    106  OG1       15.8070   -3.7460  -38.8180 O.3   196  THR196     -0.2211
    107  CG2       17.7160   -2.4370  -38.4690 C.3   196  THR196      0.0375
    108  N         12.9480   -5.0170  -39.7540 N.3   199  GLU199     -0.1245
    109  CA        11.9220   -4.3370  -38.9510 C.3   199  GLU199      0.1567
    110  C         10.8630   -3.7030  -39.8520 C.2   199  GLU199      0.2260
    111  O          9.6680   -3.7920  -39.5670 O.2   199  GLU199     -0.2867
    112  CB        12.5720   -3.2470  -38.0890 C.3   199  GLU199      0.0388
    113  CG        13.2690   -3.7890  -36.8600 C.3   199  GLU199      0.1160
    114  CD        13.9790   -2.7520  -36.0230 C.2   199  GLU199      0.3649
    115  OE1       14.4310   -1.7400  -36.6030 O.co2 199  GLU199     -0.2457
    116  OE2       14.1080   -2.9660  -34.7940 O.co2 199  GLU199     -0.2457
@<TRIPOS>BOND
     1    16    17    1
     2   103   104    2
     3   103   102    1
     4    17    20    1
     5    17    18    1
     6    20    21    1
     7    23    22   ar
     8   102   105    1
     9   102   101    1
    10   110   111    2
    11   110   109    1
    12   108   109    1
    13    18    19    2
    14    18    25   am
    15    22    21    1
    16    22    24   ar
    17   105   106    1
    18   105   107    1
    19    25    26    1
    20   109   112    1
    21    27    26    1
    22    27    28    2
    23   112   113    1
    24    26    29    1
    25    84    85   ar
    26    84    82   ar
    27    85    83   ar
    28    46    44    1
    29    30    31    1
    30    82    80   ar
    31     8     9    1
    32   113   114    1
    33    83    81   ar
    34   115   114   ar
    35    43    44    1
    36    43    45    1
    37    43    40    1
    38    11    10    2
    39    10     9    1
    40    41    40    1
    41    41    42    2
    42    80    81   ar
    43    80    79    1
    44     1     2    1
    45     1     7    1
    46   114   116   ar
    47    39    40    1
    48    39    32   am
    49     9    12    1
    50     4     3    2
    51    31    32    1
    52    31    34    1
    53    79    76    1
    54    32    33    2
    55     2     3    1
    56     2     5    1
    57     7     6    1
    58    89    88    2
    59   100    99    1
    60    34    35    1
    61    99    98    1
    62    58    59    1
    63    12    13    1
    64    12    14    1
    65     6     5    1
    66    61    60    2
    67    13    15    1
    68    98    97    1
    69    76    77    1
    70    76    75    1
    71    88    87    1
    72    78    77    2
    73    77    86   am
    74    47    48    1
    75    35    36    1
    76    86    92    1
    77    86    87    1
    78    75    65   am
    79    59    60    1
    80    59    62    1
    81    92    91    1
    82    97    94    1
    83    87    90    1
    84    90    91    1
    85    36    37    2
    86    36    38   am
    87    49    48    1
    88    49    50    2
    89    48    51    1
    90    63    64    1
    91    51    52    1
    92    65    66    2
    93    65    64    1
    94    94    95    1
    95    94    93    1
    96    96    95    2
    97    54    52   ar
    98    54    56   ar
    99    64    67    1
   100    52    53   ar
   101    56    57   ar
   102    67    68    1
   103    53    55   ar
   104    57    55   ar
   105    69    68   ar
   106    69    71   ar
   107    68    70   ar
   108    71    73   ar
   109    70    72   ar
   110    73    72   ar
   111    73    74    1
