@<TRIPOS>MOLECULE
tmp/5ewlC01.pdb
 88 84 0 0 0
SMALL
GASTEIGER

@<TRIPOS>ATOM
      1  N         34.0150  -12.7720  -26.7850 N.3    53  ALA53      -0.1245
      2  CA        32.9850  -12.8990  -27.8300 C.3    53  ALA53       0.1562
      3  C         33.0610  -14.2750  -28.4780 C.2    53  ALA53       0.2260
      4  O         32.0450  -14.9250  -28.6840 O.2    53  ALA53      -0.2867
      5  CB        33.1790  -11.8240  -28.8910 C.3    53  ALA53       0.0290
      6  N         30.7980   -7.4680  -24.9620 N.3    78  PRO78      -0.2116
      7  CA        30.9730   -8.5210  -25.9810 C.3    78  PRO78       0.1372
      8  C         29.9440   -9.6330  -25.8420 C.2    78  PRO78       0.2244
      9  O         29.4740  -10.1280  -26.8640 O.2    78  PRO78      -0.2868
     10  CB        32.3870   -9.0320  -25.7160 C.3    78  PRO78       0.0268
     11  CG        33.0520   -7.9020  -25.1170 C.3    78  PRO78       0.0207
     12  CD        32.0490   -7.2640  -24.2240 C.3    78  PRO78       0.0892
     13  N         26.4630   -8.0200  -27.0250 N.3    81  TYR81      -0.1227
     14  CA        26.4240   -7.9210  -28.4810 C.3    81  TYR81       0.1736
     15  C         26.2660   -9.2840  -29.1820 C.2    81  TYR81       0.2596
     16  O         25.3750   -9.4190  -30.0200 O.2    81  TYR81      -0.2718
     17  CB        27.6490   -7.1700  -29.0140 C.3    81  TYR81       0.0548
     18  CG        27.6690   -5.6740  -28.7600 C.ar   81  TYR81      -0.0200
     19  CD1       26.6280   -5.0410  -28.0770 C.ar   81  TYR81      -0.0009
     20  CD2       28.7370   -4.8940  -29.1860 C.ar   81  TYR81      -0.0009
     21  CE1       26.6590   -3.6710  -27.8160 C.ar   81  TYR81       0.0417
     22  CE2       28.7710   -3.5190  -28.9480 C.ar   81  TYR81       0.0417
     23  CZ        27.7310   -2.9120  -28.2620 C.ar   81  TYR81       0.1957
     24  OH        27.8000   -1.5620  -28.0220 O.3    81  TYR81      -0.2866
     25  N         27.0990  -10.2970  -28.8300 N.am   82  THR82      -0.1953
     26  CA        27.0190  -11.6350  -29.4400 C.3    82  THR82       0.1897
     27  C         25.6190  -12.2750  -29.2190 C.2    82  THR82       0.2313
     28  O         24.9930  -12.7690  -30.1680 O.2    82  THR82      -0.2863
     29  CB        28.1270  -12.5450  -28.9250 C.3    82  THR82       0.1794
     30  OG1       29.3660  -11.8510  -28.9460 O.3    82  THR82      -0.2208
     31  CG2       28.2540  -13.7910  -29.7500 C.3    82  THR82       0.0378
     32  N         22.8790  -10.6150  -28.2650 N.3    84  GLY84      -0.1210
     33  CA        21.9210   -9.6730  -28.8340 C.3    84  GLY84       0.1956
     34  C         21.7130   -9.8850  -30.3170 C.2    84  GLY84       0.2611
     35  O         20.5870   -9.7930  -30.8020 O.2    84  GLY84      -0.2717
     36  N         22.7980  -10.2100  -31.0390 N.am   85  PHE85      -0.1976
     37  CA        22.7970  -10.5240  -32.4610 C.3    85  PHE85       0.1639
     38  C         21.7320  -11.5980  -32.7860 C.2    85  PHE85       0.2290
     39  O         21.0780  -11.5050  -33.8350 O.2    85  PHE85      -0.2864
     40  CB        24.1890  -11.0200  -32.8610 C.3    85  PHE85       0.0560
     41  CG        24.3670  -11.3920  -34.3050 C.ar   85  PHE85      -0.0200
     42  CD1       24.7930  -10.4540  -35.2300 C.ar   85  PHE85      -0.0042
     43  CD2       24.1640  -12.6960  -34.7320 C.ar   85  PHE85      -0.0042
     44  CE1       24.9920  -10.8120  -36.5710 C.ar   85  PHE85      -0.0003
     45  CE2       24.3460  -13.0510  -36.0720 C.ar   85  PHE85      -0.0003
     46  CZ        24.7740  -12.1110  -36.9810 C.ar   85  PHE85      -0.0000
     47  N         19.2730  -12.4170  -30.4350 N.3    87  ARG87      -0.1245
     48  CA        18.1380  -12.0400  -29.5850 C.3    87  ARG87       0.1563
     49  C         17.9910  -12.9780  -28.3970 C.2    87  ARG87       0.2260
     50  O         16.8810  -13.1520  -27.8500 O.2    87  ARG87      -0.2867
     51  CB        16.8210  -11.8560  -30.3560 C.3    87  ARG87       0.0307
     52  CG        16.8840  -10.8870  -31.5150 C.3    87  ARG87       0.0489
     53  CD        16.8510   -9.4320  -31.1010 C.3    87  ARG87       0.2205
     54  NE        16.5740   -8.5570  -32.2480 N.pl3  87  ARG87      -0.0865
     55  CZ        17.4890   -8.1230  -33.1170 C.cat  87  ARG87       0.5346
     56  NH1       18.7580   -8.4770  -32.9880 N.pl3  87  ARG87       0.1354
     57  NH2       17.1390   -7.3300  -34.1170 N.pl3  87  ARG87       0.1354
     58  N         18.1530    0.1960  -24.4240 N.3   103  LYS103     -0.1231
     59  CA        17.3720   -0.7780  -25.1920 C.3   103  LYS103      0.1693
     60  C         17.7920   -0.8630  -26.6540 C.2   103  LYS103      0.2593
     61  O         17.5310   -1.8850  -27.2980 O.2   103  LYS103     -0.2718
     62  CB        15.8790   -0.3930  -25.1130 C.3   103  LYS103      0.0285
     63  CG        14.9120   -1.5560  -24.9570 C.3   103  LYS103      0.0035
     64  CD        13.4020   -1.1550  -25.0610 C.3   103  LYS103      0.0206
     65  CE        12.9580    0.0460  -24.2410 C.3   103  LYS103      0.1093
     66  NZ        13.3000   -0.0790  -22.7940 N.3   103  LYS103     -0.1314
     67  N         18.3780    0.2390  -27.1910 N.am  104  SER104     -0.1938
     68  CA        18.8130    0.3800  -28.5740 C.3   104  SER104      0.2055
     69  C         20.1120   -0.4310  -28.8340 C.2   104  SER104      0.2642
     70  O         20.1790   -1.1590  -29.8120 O.2   104  SER104     -0.2714
     71  CB        18.9820    1.8630  -28.8790 C.3   104  SER104      0.2130
     72  OG        19.6650    2.1020  -30.0890 O.3   104  SER104     -0.2179
     73  N         21.1260   -0.3100  -27.9580 N.am  105  ILE105     -0.1977
     74  CA        22.4130   -1.0060  -28.1100 C.3   105  ILE105      0.1596
     75  C         22.4550   -2.3690  -27.3260 C.2   105  ILE105      0.2287
     76  O         23.0220   -3.3520  -27.8270 O.2   105  ILE105     -0.2864
     77  CB        23.6240   -0.0720  -27.8050 C.3   105  ILE105      0.0276
     78  CG1       23.6430    0.3870  -26.3350 C.3   105  ILE105      0.0022
     79  CG2       23.5870    1.1330  -28.7500 C.3   105  ILE105      0.0022
     80  CD1       24.8770    0.9950  -25.8700 C.3   105  ILE105      0.0001
     81  N         19.8550   -4.6430  -26.5270 N.3   107  LEU107     -0.1245
     82  CA        18.4870   -4.9580  -26.9750 C.3   107  LEU107      0.1561
     83  C         17.8270   -6.2130  -26.4330 C.2   107  LEU107      0.2260
     84  O         16.7110   -6.5210  -26.8650 O.2   107  LEU107     -0.2867
     85  CB        18.4060   -4.9840  -28.5300 C.3   107  LEU107      0.0270
     86  CG        19.3190   -5.9510  -29.3460 C.3   107  LEU107      0.0019
     87  CD1       19.1880   -7.3720  -28.9100 C.3   107  LEU107      0.0001
     88  CD2       19.0860   -5.7990  -30.8140 C.3   107  LEU107      0.0001
@<TRIPOS>BOND
     1    46    44   ar
     2    46    45   ar
     3    44    42   ar
     4    45    43   ar
     5    42    41   ar
     6    43    41   ar
     7    41    40    1
     8    57    55    1
     9    39    38    2
    10    55    56    1
    11    55    54    2
    12    40    37    1
    13    38    37    1
    14    37    36    1
    15    54    53    1
    16    52    53    1
    17    52    51    1
    18    36    34   am
    19    88    86    1
    20    35    34    2
    21    47    48    1
    22    51    48    1
    23    34    33    1
    24    28    27    2
    25    72    71    1
    26    16    15    2
    27    70    69    2
    28    31    29    1
    29    48    49    1
    30    26    27    1
    31    26    29    1
    32    26    25    1
    33    86    87    1
    34    86    85    1
    35    20    22   ar
    36    20    18   ar
    37    15    25   am
    38    15    14    1
    39    17    18    1
    40    17    14    1
    41    22    23   ar
    42    30    29    1
    43     5     2    1
    44    71    68    1
    45    69    68    1
    46    69    73   am
    47    33    32    1
    48    18    19   ar
    49    79    77    1
    50     4     3    2
    51    68    67    1
    52    85    82    1
    53    14    13    1
    54     3     2    1
    55    49    50    2
    56    23    24    1
    57    23    21   ar
    58    74    73    1
    59    74    77    1
    60    74    75    1
    61    19    21   ar
    62     2     1    1
    63    76    75    2
    64    77    78    1
    65    61    60    2
    66    67    60   am
    67    82    81    1
    68    82    83    1
    69    84    83    2
    70     9     8    2
    71    60    59    1
    72    78    80    1
    73     7     8    1
    74     7    10    1
    75     7     6    1
    76    10    11    1
    77    59    62    1
    78    59    58    1
    79    11    12    1
    80    62    63    1
    81    64    63    1
    82    64    65    1
    83     6    12    1
    84    65    66    1
