@<TRIPOS>MOLECULE
tmp/5ewmB00.pdb
 95 92 0 0 0
SMALL
GASTEIGER

@<TRIPOS>ATOM
      1  N         83.1480   -2.3980  -26.9190 N.3    41  PRO41      -0.2116
      2  CA        81.8930   -2.3870  -27.6890 C.3    41  PRO41       0.1372
      3  C         81.0270   -3.6500  -27.5480 C.2    41  PRO41       0.2244
      4  O         79.8120   -3.5190  -27.2850 O.2    41  PRO41      -0.2868
      5  CB        82.3480   -2.1410  -29.1400 C.3    41  PRO41       0.0268
      6  CG        83.8380   -2.3440  -29.1510 C.3    41  PRO41       0.0207
      7  CD        84.3010   -2.0220  -27.7720 C.3    41  PRO41       0.0892
      8  N         77.2280   -3.6090  -25.9810 N.3    45  ILE45      -0.1245
      9  CA        76.1450   -3.9560  -26.9180 C.3    45  ILE45       0.1561
     10  C         75.4160   -5.1750  -26.3760 C.2    45  ILE45       0.2260
     11  O         74.2140   -5.1030  -26.1760 O.2    45  ILE45      -0.2867
     12  CB        76.6470   -4.1520  -28.3930 C.3    45  ILE45       0.0252
     13  CG1       77.0830   -2.8240  -29.0270 C.3    45  ILE45       0.0019
     14  CG2       75.5950   -4.8360  -29.2590 C.3    45  ILE45       0.0019
     15  CD1       77.9290   -2.9500  -30.2400 C.3    45  ILE45       0.0001
     16  N         84.9030    6.8500  -25.3030 N.3    70  ALA70      -0.1245
     17  CA        84.3170    5.9760  -26.3330 C.3    70  ALA70       0.1562
     18  C         83.0430    5.3060  -25.8180 C.2    70  ALA70       0.2260
     19  O         82.1740    4.9490  -26.6290 O.2    70  ALA70      -0.2867
     20  CB        85.3180    4.9470  -26.7880 C.3    70  ALA70       0.0290
     21  N         80.1260    7.1940  -27.1280 N.3    73  GLN73      -0.1231
     22  CA        79.9670    6.8510  -28.5310 C.3    73  GLN73       0.1698
     23  C         79.2430    5.5360  -28.6960 C.2    73  GLN73       0.2592
     24  O         78.2390    5.5180  -29.4090 O.2    73  GLN73      -0.2718
     25  CB        81.3070    6.8620  -29.2530 C.3    73  GLN73       0.0381
     26  CG        82.0460    8.1630  -29.0640 C.3    73  GLN73       0.0905
     27  CD        83.4780    8.0790  -29.4860 C.2    73  GLN73       0.2608
     28  OE1       83.9070    7.1670  -30.2160 O.2    73  GLN73      -0.2717
     29  NE2       84.2410    9.0700  -29.0590 N.am   73  GLN73      -0.0878
     30  N         79.6920    4.4610  -28.0060 N.am   74  ILE74      -0.1980
     31  CA        79.0070    3.1560  -28.0460 C.3    74  ILE74       0.1595
     32  C         77.5380    3.3060  -27.6370 C.2    74  ILE74       0.2287
     33  O         76.6620    2.8150  -28.3620 O.2    74  ILE74      -0.2864
     34  CB        79.7380    2.0600  -27.2350 C.3    74  ILE74       0.0276
     35  CG1       81.0800    1.6900  -27.9250 C.3    74  ILE74       0.0022
     36  CG2       78.8900    0.8090  -27.1030 C.3    74  ILE74       0.0022
     37  CD1       82.1580    1.3500  -26.9950 C.3    74  ILE74       0.0001
     38  N         75.6150    6.1510  -27.6800 N.3    76  ASP76      -0.1225
     39  CA        74.8810    6.9430  -28.6780 C.3    76  ASP76       0.1805
     40  C         74.4200    6.0360  -29.8130 C.2    76  ASP76       0.2597
     41  O         73.2410    6.0520  -30.1840 O.2    76  ASP76      -0.2718
     42  CB        75.7380    8.0890  -29.2370 C.3    76  ASP76       0.1424
     43  CG        74.9150    9.0980  -30.0060 C.2    76  ASP76       0.3668
     44  OD1       74.1520    9.8280  -29.3700 O.co2  76  ASP76      -0.2456
     45  OD2       75.0050    9.1210  -31.2660 O.co2  76  ASP76      -0.2456
     46  N         75.3490    5.2220  -30.3370 N.am   77  PHE77      -0.1976
     47  CA        75.0960    4.2350  -31.3920 C.3    77  PHE77       0.1639
     48  C         73.9070    3.2920  -30.9820 C.2    77  PHE77       0.2290
     49  O         72.8980    3.2580  -31.6890 O.2    77  PHE77      -0.2864
     50  CB        76.3820    3.4390  -31.6560 C.3    77  PHE77       0.0560
     51  CG        76.2530    2.3270  -32.6570 C.ar   77  PHE77      -0.0200
     52  CD1       76.1750    2.6030  -34.0310 C.ar   77  PHE77      -0.0042
     53  CD2       76.2320    0.9950  -32.2420 C.ar   77  PHE77      -0.0042
     54  CE1       76.0700    1.5640  -34.9640 C.ar   77  PHE77      -0.0003
     55  CE2       76.1300   -0.0450  -33.1810 C.ar   77  PHE77      -0.0003
     56  CZ        76.0380    0.2470  -34.5320 C.ar   77  PHE77      -0.0000
     57  N         80.1300   13.9600  -26.2850 N.3    97  MET97      -0.1230
     58  CA        79.8770   13.1890  -27.4920 C.3    97  MET97       0.1702
     59  C         79.2750   14.1600  -28.4500 C.2    97  MET97       0.2592
     60  O         78.0730   14.4000  -28.4070 O.2    97  MET97      -0.2718
     61  CB        78.9540   11.9930  -27.2180 C.3    97  MET97       0.0401
     62  CG        79.2720   10.7890  -28.0690 C.3    97  MET97       0.0596
     63  SD        78.3750   10.9130  -29.5740 S.3    97  MET97      -0.1393
     64  CE        79.1010    9.7940  -30.4990 C.3    97  MET97       0.0692
     65  N         80.1330   14.8200  -29.2360 N.am   98  ALA98      -0.1966
     66  CA        79.7640   15.8520  -30.2080 C.3    98  ALA98       0.1728
     67  C         79.0570   15.1990  -31.3440 C.2    98  ALA98       0.2616
     68  O         79.3680   14.0570  -31.6490 O.2    98  ALA98      -0.2715
     69  CB        81.0110   16.5370  -30.7380 C.3    98  ALA98       0.0334
     70  N         78.1320   15.9090  -32.0010 N.am   99  ASP99      -0.1971
     71  CA        77.3960   15.4150  -33.1600 C.3    99  ASP99       0.1709
     72  C         76.7410   14.0530  -32.9470 C.2    99  ASP99       0.2293
     73  O         76.9450   13.1240  -33.7370 O.2    99  ASP99      -0.2864
     74  CB        78.2600   15.4200  -34.4260 C.3    99  ASP99       0.1436
     75  CG        79.0190   16.7070  -34.6140 C.2    99  ASP99       0.3671
     76  OD1       78.3610   17.7780  -34.7310 O.co2  99  ASP99      -0.2456
     77  OD2       80.2750   16.6550  -34.6200 O.co2  99  ASP99      -0.2456
     78  N         89.6690   15.1140  -31.9380 N.3   139  PHE139     -0.1228
     79  CA        88.5950   14.6090  -31.0910 C.3   139  PHE139      0.1721
     80  C         87.3050   15.3920  -31.4130 C.2   139  PHE139      0.2437
     81  O         87.3500   16.6380  -31.4730 O.2   139  PHE139     -0.2733
     82  CB        88.9570   14.6850  -29.6010 C.3   139  PHE139      0.0547
     83  CG        87.8420   14.1540  -28.7350 C.ar  139  PHE139     -0.0202
     84  CD1       87.4350   12.8290  -28.8330 C.ar  139  PHE139     -0.0042
     85  CD2       87.1830   14.9880  -27.8300 C.ar  139  PHE139     -0.0042
     86  CE1       86.4020   12.3420  -28.0390 C.ar  139  PHE139     -0.0003
     87  CE2       86.1240   14.5070  -27.0480 C.ar  139  PHE139     -0.0003
     88  CZ        85.7490   13.1870  -27.1520 C.ar  139  PHE139     -0.0000
     89  N         86.2010   14.6810  -31.7810 N.am  140  PRO140     -0.2729
     90  CA        84.9870   15.3840  -32.1970 C.3   140  PRO140      0.1401
     91  C         84.5630   16.4430  -31.2070 C.2   140  PRO140      0.2269
     92  O         84.5450   16.2090  -29.9930 O.2   140  PRO140     -0.2865
     93  CB        83.9880   14.2620  -32.3500 C.3   140  PRO140      0.0296
     94  CG        84.8240   13.0940  -32.7080 C.3   140  PRO140      0.0237
     95  CD        86.0010   13.2180  -31.8550 C.3   140  PRO140      0.0939
@<TRIPOS>BOND
     1    54    56   ar
     2    54    52   ar
     3    76    75   ar
     4    77    75   ar
     5    75    74    1
     6    56    55   ar
     7    74    71    1
     8    52    51   ar
     9    73    72    2
    10    55    53   ar
    11    71    72    1
    12    71    70    1
    13    94    93    1
    14    94    95    1
    15    51    53   ar
    16    51    50    1
    17    93    90    1
    18    90    89    1
    19    90    91    1
    20    70    67   am
    21    78    79    1
    22    95    89    1
    23    89    80   am
    24    49    48    2
    25    50    47    1
    26    68    67    2
    27    81    80    2
    28    80    79    1
    29    47    48    1
    30    47    46    1
    31    67    66    1
    32    45    43   ar
    33    91    92    2
    34    79    82    1
    35    69    66    1
    36    64    63    1
    37    46    40   am
    38    15    13    1
    39    28    27    2
    40    66    65    1
    41    41    40    2
    42    43    44   ar
    43    43    42    1
    44    40    39    1
    45    82    83    1
    46    63    62    1
    47    27    26    1
    48    27    29   am
    49    24    23    2
    50    14    12    1
    51    25    26    1
    52    25    22    1
    53    42    39    1
    54    65    59   am
    55     6     5    1
    56     6     7    1
    57     5     2    1
    58    13    12    1
    59    84    83   ar
    60    84    86   ar
    61    83    85   ar
    62    23    22    1
    63    23    30   am
    64    39    38    1
    65    22    21    1
    66    59    60    2
    67    59    58    1
    68    12     9    1
    69    33    32    2
    70    62    61    1
    71    31    30    1
    72    31    32    1
    73    31    34    1
    74    86    88   ar
    75    35    34    1
    76    35    37    1
    77    85    87   ar
    78     7     1    1
    79     2     3    1
    80     2     1    1
    81     3     4    2
    82    58    61    1
    83    58    57    1
    84    34    36    1
    85    88    87   ar
    86     9    10    1
    87     9     8    1
    88    20    17    1
    89    19    18    2
    90    10    11    2
    91    17    18    1
    92    17    16    1
