@<TRIPOS>MOLECULE
tmp/5ewvA00.pdb
 107 104 0 0 0
SMALL
GASTEIGER

@<TRIPOS>ATOM
      1  N         15.8210  -12.9290    5.3800 N.3    26  ILE26      -0.1231
      2  CA        14.3790  -12.7780    5.2740 C.3    26  ILE26       0.1692
      3  C         13.7080  -14.1240    5.0740 C.2    26  ILE26       0.2592
      4  O         12.4910  -14.2380    5.2720 O.2    26  ILE26      -0.2718
      5  CB        14.0100  -11.7810    4.1650 C.3    26  ILE26       0.0266
      6  CG1       14.1640  -12.4010    2.7900 C.3    26  ILE26       0.0019
      7  CG2       14.8790  -10.5240    4.2690 C.3    26  ILE26       0.0020
      8  CD1       13.5760  -11.5430    1.7180 C.3    26  ILE26       0.0001
      9  N         14.4780  -15.1580    4.7400 N.am   27  PHE27      -0.1976
     10  CA        13.9470  -16.5040    4.5530 C.3    27  PHE27       0.1639
     11  C         14.3760  -17.4630    5.6640 C.2    27  PHE27       0.2290
     12  O         14.1540  -18.6760    5.5460 O.2    27  PHE27      -0.2864
     13  CB        14.3800  -17.0460    3.1930 C.3    27  PHE27       0.0560
     14  CG        14.0360  -16.1490    2.0370 C.ar   27  PHE27      -0.0200
     15  CD1       12.7230  -15.9410    1.6720 C.ar   27  PHE27      -0.0042
     16  CD2       15.0310  -15.4970    1.3260 C.ar   27  PHE27      -0.0042
     17  CE1       12.4020  -15.1260    0.6170 C.ar   27  PHE27      -0.0003
     18  CE2       14.7130  -14.6650    0.2720 C.ar   27  PHE27      -0.0003
     19  CZ        13.3890  -14.4890   -0.0890 C.ar   27  PHE27      -0.0000
     20  N         13.2920  -17.8150    8.8230 N.3    29  GLU29      -0.1245
     21  CA        12.2300  -18.3220    9.6740 C.3    29  GLU29       0.1567
     22  C         10.9010  -18.1970    8.9440 C.2    29  GLU29       0.2260
     23  O         10.8150  -17.5140    7.9190 O.2    29  GLU29      -0.2867
     24  CB        12.2070  -17.5580   11.0080 C.3    29  GLU29       0.0388
     25  CG        13.3820  -17.9250   11.9020 C.3    29  GLU29       0.1160
     26  CD        13.8460  -16.7780   12.7680 C.2    29  GLU29       0.3649
     27  OE1       12.9910  -15.9790   13.2050 O.co2  29  GLU29      -0.2457
     28  OE2       15.0690  -16.6730   13.0080 O.co2  29  GLU29      -0.2457
     29  N          7.4350  -17.0430    7.5070 N.3    31  VAL31      -0.1231
     30  CA         6.7850  -15.7450    7.3400 C.3    31  VAL31       0.1678
     31  C          5.8660  -15.5410    8.5370 C.2    31  VAL31       0.2434
     32  O          5.0100  -16.3960    8.8030 O.2    31  VAL31      -0.2733
     33  CB         6.0100  -15.6720    6.0150 C.3    31  VAL31       0.0265
     34  CG1        5.2330  -14.3620    5.9160 C.3    31  VAL31       0.0020
     35  CG2        6.9640  -15.8180    4.8350 C.3    31  VAL31       0.0020
     36  N          6.0200  -14.4520    9.3010 N.am   32  PRO32      -0.2729
     37  CA         5.2040  -14.2730   10.5120 C.3    32  PRO32       0.1401
     38  C          3.7280  -14.0840   10.2060 C.2    32  PRO32       0.2269
     39  O          3.3000  -12.9880    9.8320 O.2    32  PRO32      -0.2865
     40  CB         5.8070  -13.0180   11.1570 C.3    32  PRO32       0.0296
     41  CG         6.4680  -12.2890   10.0180 C.3    32  PRO32       0.0237
     42  CD         6.9880  -13.3590    9.1130 C.3    32  PRO32       0.0939
     43  N          1.8960  -11.1610   11.5130 N.3    35  GLU35      -0.1231
     44  CA         2.0940   -9.8900   10.8320 C.3    35  GLU35       0.1699
     45  C          1.5280   -9.8820    9.4220 C.2    35  GLU35       0.2592
     46  O          1.2730   -8.8030    8.8770 O.2    35  GLU35      -0.2718
     47  CB         3.5870   -9.5400   10.7770 C.3    35  GLU35       0.0402
     48  CG         4.2380   -9.4490   12.1460 C.3    35  GLU35       0.1161
     49  CD         5.6860   -9.0090   12.0810 C.2    35  GLU35       0.3649
     50  OE1        6.2230   -8.8840   10.9590 O.co2  35  GLU35      -0.2457
     51  OE2        6.2840   -8.7850   13.1560 O.co2  35  GLU35      -0.2457
     52  N          1.3210  -11.0540    8.8300 N.am   36  VAL36      -0.1980
     53  CA         0.8080  -11.1750    7.4690 C.3    36  VAL36       0.1595
     54  C         -0.4380  -12.0510    7.5060 C.2    36  VAL36       0.2287
     55  O         -0.3870  -13.2210    7.0970 O.2    36  VAL36      -0.2864
     56  CB         1.8750  -11.7570    6.5310 C.3    36  VAL36       0.0276
     57  CG1        1.5870  -11.3600    5.1100 C.3    36  VAL36       0.0022
     58  CG2        3.2580  -11.2860    6.9470 C.3    36  VAL36       0.0022
     59  N         -1.5830  -14.2550    4.4420 N.3    39  TYR39      -0.1241
     60  CA        -0.5340  -14.9810    3.7340 C.3    39  TYR39       0.1605
     61  C         -1.0000  -16.3750    3.3300 C.2    39  TYR39       0.2264
     62  O         -0.8040  -16.7970    2.1840 O.2    39  TYR39      -0.2867
     63  CB         0.7170  -15.0580    4.6030 C.3    39  TYR39       0.0534
     64  CG         1.9180  -15.6450    3.8960 C.ar   39  TYR39      -0.0201
     65  CD1        2.6550  -14.8880    2.9940 C.ar   39  TYR39      -0.0009
     66  CD2        2.3220  -16.9540    4.1350 C.ar   39  TYR39      -0.0009
     67  CE1        3.7560  -15.4210    2.3460 C.ar   39  TYR39       0.0417
     68  CE2        3.4330  -17.4920    3.4890 C.ar   39  TYR39       0.0417
     69  CZ         4.1390  -16.7210    2.5990 C.ar   39  TYR39       0.1957
     70  OH         5.2440  -17.2540    1.9580 O.3    39  TYR39      -0.2866
     71  N          7.5080  -16.4760   -2.2920 N.3    78  CYS78      -0.1235
     72  CA         7.8180  -15.0580   -2.1560 C.3    78  CYS78       0.1677
     73  C          7.5200  -14.2900   -3.4450 C.2    78  CYS78       0.2270
     74  O          6.9880  -13.1720   -3.4050 O.2    78  CYS78      -0.2867
     75  CB         9.2870  -14.9200   -1.7550 C.3    78  CYS78       0.0956
     76  SG         9.8030  -13.2570   -1.2920 S.3    78  CYS78      -0.0801
     77  N          3.6150  -13.9840   -3.5130 N.3    81  TYR81      -0.1227
     78  CA         2.9270  -13.1240   -2.5530 C.3    81  TYR81       0.1736
     79  C          3.2340  -11.6430   -2.7620 C.2    81  TYR81       0.2595
     80  O          2.3660  -10.7950   -2.5110 O.2    81  TYR81      -0.2718
     81  CB         3.2720  -13.5280   -1.1140 C.3    81  TYR81       0.0548
     82  CG         2.4810  -12.7190   -0.1120 C.ar   81  TYR81      -0.0200
     83  CD1        1.1370  -12.9780    0.0930 C.ar   81  TYR81      -0.0009
     84  CD2        3.0630  -11.6700    0.5880 C.ar   81  TYR81      -0.0009
     85  CE1        0.3910  -12.2280    0.9840 C.ar   81  TYR81       0.0417
     86  CE2        2.3230  -10.9110    1.4830 C.ar   81  TYR81       0.0417
     87  CZ         0.9900  -11.2010    1.6750 C.ar   81  TYR81       0.1957
     88  OH         0.2370  -10.4560    2.5560 O.3    81  TYR81      -0.2866
     89  N          4.4380  -11.3020   -3.2270 N.am   82  ASN82      -0.1974
     90  CA         4.8900   -9.9170   -3.2320 C.3    82  ASN82       0.1688
     91  C          4.8960   -9.3090   -4.6250 C.2    82  ASN82       0.2292
     92  O          5.1430   -9.9870   -5.6190 O.2    82  ASN82      -0.2864
     93  CB         6.2840   -9.8100   -2.6260 C.3    82  ASN82       0.1181
     94  CG         6.3130  -10.2930   -1.2030 C.2    82  ASN82       0.2629
     95  OD1        5.9320   -9.5680   -0.2960 O.2    82  ASN82      -0.2716
     96  ND2        6.7150  -11.5420   -1.0030 N.am   82  ASN82      -0.0877
     97  N         11.3220   -7.7310   -1.2100 N.3    88  PHE88      -0.1241
     98  CA        11.0920   -9.1630   -1.0460 C.3    88  PHE88       0.1605
     99  C         11.1290   -9.8700   -2.3900 C.2    88  PHE88       0.2264
    100  O         11.7890  -10.9040   -2.5450 O.2    88  PHE88      -0.2867
    101  CB         9.7550   -9.4220   -0.3460 C.3    88  PHE88       0.0534
    102  CG         9.7520   -9.0680    1.1190 C.ar   88  PHE88      -0.0203
    103  CD1       10.8910   -9.2340    1.8910 C.ar   88  PHE88      -0.0042
    104  CD2        8.6100   -8.5630    1.7230 C.ar   88  PHE88      -0.0042
    105  CE1       10.8900   -8.9010    3.2420 C.ar   88  PHE88      -0.0003
    106  CE2        8.6050   -8.2270    3.0760 C.ar   88  PHE88      -0.0003
    107  CZ         9.7450   -8.4070    3.8310 C.ar   88  PHE88      -0.0000
@<TRIPOS>BOND
     1    92    91    2
     2    91    90    1
     3    77    78    1
     4    73    74    2
     5    73    72    1
     6    90    89    1
     7    90    93    1
     8    89    79   am
     9    79    78    1
    10    79    80    2
    11    93    94    1
    12    78    81    1
    13   100    99    2
    14    99    98    1
    15    71    72    1
    16    72    75    1
    17    75    76    1
    18    97    98    1
    19    94    96   am
    20    94    95    2
    21    81    82    1
    22    98   101    1
    23   101   102    1
    24    82    83   ar
    25    82    84   ar
    26    19    18   ar
    27    19    17   ar
    28    83    85   ar
    29    18    16   ar
    30    84    86   ar
    31    17    15   ar
    32    85    87   ar
    33   102   104   ar
    34   102   103   ar
    35    16    14   ar
    36    86    87   ar
    37    15    14   ar
    38    87    88    1
    39     8     6    1
    40   104   106   ar
    41   103   105   ar
    42    70    69    1
    43    14    13    1
    44    62    61    2
    45    67    69   ar
    46    67    65   ar
    47    69    68   ar
    48     6     5    1
    49    65    64   ar
    50   106   107   ar
    51    13    10    1
    52   105   107   ar
    53    61    60    1
    54    68    66   ar
    55    60    59    1
    56    60    63    1
    57    64    66   ar
    58    64    63    1
    59     5     7    1
    60     5     2    1
    61    10     9    1
    62    10    11    1
    63     9     3   am
    64    35    33    1
    65     3     4    2
    66     3     2    1
    67    57    56    1
    68     2     1    1
    69    12    11    2
    70    34    33    1
    71    33    30    1
    72    56    58    1
    73    56    53    1
    74    55    54    2
    75    30    29    1
    76    30    31    1
    77    53    54    1
    78    53    52    1
    79    23    22    2
    80    31    32    2
    81    31    36   am
    82    20    21    1
    83    52    45   am
    84    46    45    2
    85    22    21    1
    86    42    36    1
    87    42    41    1
    88    36    37    1
    89    45    44    1
    90    21    24    1
    91    39    38    2
    92    41    40    1
    93    38    37    1
    94    37    40    1
    95    47    44    1
    96    47    48    1
    97    44    43    1
    98    50    49   ar
    99    24    25    1
   100    25    26    1
   101    49    48    1
   102    49    51   ar
   103    26    28   ar
   104    26    27   ar
