@<TRIPOS>MOLECULE
tmp/5ewwA00.pdb
 114 113 0 0 0
SMALL
GASTEIGER

@<TRIPOS>ATOM
      1  N         15.9410  -12.5610    5.4330 N.3    26  ILE26      -0.1231
      2  CA        14.4950  -12.4070    5.3110 C.3    26  ILE26       0.1692
      3  C         13.8010  -13.7370    5.0890 C.2    26  ILE26       0.2592
      4  O         12.5670  -13.8030    5.1640 O.2    26  ILE26      -0.2718
      5  CB        14.1160  -11.4250    4.1900 C.3    26  ILE26       0.0266
      6  CG1       14.4860  -11.9860    2.8290 C.3    26  ILE26       0.0019
      7  CG2       14.8090  -10.0850    4.4010 C.3    26  ILE26       0.0020
      8  CD1       13.9190  -11.1740    1.7000 C.3    26  ILE26       0.0001
      9  N         14.5610  -14.8050    4.8380 N.am   27  PHE27      -0.1976
     10  CA        13.9900  -16.1330    4.6600 C.3    27  PHE27       0.1639
     11  C         14.4180  -17.0920    5.7600 C.2    27  PHE27       0.2290
     12  O         14.1760  -18.3020    5.6450 O.2    27  PHE27      -0.2864
     13  CB        14.3820  -16.6950    3.2900 C.3    27  PHE27       0.0560
     14  CG        13.9850  -15.8110    2.1350 C.ar   27  PHE27      -0.0200
     15  CD1       12.6480  -15.5470    1.8730 C.ar   27  PHE27      -0.0042
     16  CD2       14.9460  -15.2580    1.3120 C.ar   27  PHE27      -0.0042
     17  CE1       12.2800  -14.7350    0.8090 C.ar   27  PHE27      -0.0003
     18  CE2       14.5870  -14.4400    0.2510 C.ar   27  PHE27      -0.0003
     19  CZ        13.2490  -14.1950   -0.0110 C.ar   27  PHE27      -0.0000
     20  N         13.4060  -17.4060    8.9380 N.3    29  GLU29      -0.1231
     21  CA        12.3410  -17.8600    9.8160 C.3    29  GLU29       0.1684
     22  C         11.0150  -17.7490    9.0840 C.2    29  GLU29       0.2434
     23  O         10.9150  -17.0460    8.0730 O.2    29  GLU29      -0.2733
     24  CB        12.3060  -17.0240   11.1060 C.3    29  GLU29       0.0402
     25  CG        13.5940  -17.0790   11.9100 C.3    29  GLU29       0.1161
     26  CD        13.5420  -16.2280   13.1670 C.2    29  GLU29       0.3649
     27  OE1       13.0600  -15.0770   13.0940 O.co2  29  GLU29      -0.2457
     28  OE2       13.9790  -16.7140   14.2310 O.co2  29  GLU29      -0.2457
     29  N          9.9760  -18.4380    9.5620 N.am   30  PRO30      -0.2718
     30  CA         8.6600  -18.3040    8.9270 C.3    30  PRO30       0.1535
     31  C          8.2010  -16.8540    8.8790 C.2    30  PRO30       0.2598
     32  O          8.4780  -16.0570    9.7810 O.2    30  PRO30      -0.2715
     33  CB         7.7420  -19.1440    9.8250 C.3    30  PRO30       0.0310
     34  CG         8.6460  -20.1300   10.4750 C.3    30  PRO30       0.0237
     35  CD         9.9790  -19.4540   10.6310 C.3    30  PRO30       0.0939
     36  N          7.4940  -16.5180    7.8050 N.am   31  VAL31      -0.1964
     37  CA         6.8590  -15.2100    7.6890 C.3    31  VAL31       0.1712
     38  C          5.9590  -15.0410    8.9060 C.2    31  VAL31       0.2458
     39  O          5.0920  -15.8920    9.1470 O.2    31  VAL31      -0.2730
     40  CB         6.0690  -15.0800    6.3790 C.3    31  VAL31       0.0289
     41  CG1        5.3650  -13.7350    6.3170 C.3    31  VAL31       0.0023
     42  CG2        6.9960  -15.2710    5.1750 C.3    31  VAL31       0.0023
     43  N          6.1440  -13.9870    9.7130 N.am   32  PRO32      -0.2727
     44  CA         5.3370  -13.8440   10.9340 C.3    32  PRO32       0.1402
     45  C          3.8800  -13.5600   10.6180 C.2    32  PRO32       0.2269
     46  O          3.5150  -12.4250   10.2880 O.2    32  PRO32      -0.2865
     47  CB         5.9990  -12.6670   11.6580 C.3    32  PRO32       0.0296
     48  CG         6.6100  -11.8590   10.5690 C.3    32  PRO32       0.0237
     49  CD         7.0700  -12.8560    9.5280 C.3    32  PRO32       0.0939
     50  N          2.2800  -10.4480   11.8420 N.3    35  GLU35      -0.1231
     51  CA         2.6290   -9.1880   11.2010 C.3    35  GLU35       0.1699
     52  C          2.1460   -9.1120    9.7620 C.2    35  GLU35       0.2592
     53  O          2.0440   -8.0110    9.2100 O.2    35  GLU35      -0.2718
     54  CB         4.1460   -8.9770   11.2350 C.3    35  GLU35       0.0402
     55  CG         4.7480   -9.0260   12.6280 C.3    35  GLU35       0.1161
     56  CD         6.2590   -8.9050   12.6100 C.2    35  GLU35       0.3649
     57  OE1        6.8190   -8.6170   11.5290 O.co2  35  GLU35      -0.2457
     58  OE2        6.8850   -9.1000   13.6760 O.co2  35  GLU35      -0.2457
     59  N          1.8570  -10.2550    9.1480 N.am   36  VAL36      -0.1980
     60  CA         1.3590  -10.3340    7.7780 C.3    36  VAL36       0.1595
     61  C          0.0780  -11.1610    7.8120 C.2    36  VAL36       0.2287
     62  O          0.0770  -12.3180    7.3660 O.2    36  VAL36      -0.2864
     63  CB         2.4110  -10.9500    6.8420 C.3    36  VAL36       0.0276
     64  CG1        1.9780  -10.8280    5.3970 C.3    36  VAL36       0.0022
     65  CG2        3.7680  -10.2890    7.0540 C.3    36  VAL36       0.0022
     66  N         -1.1730  -13.5210    4.8950 N.3    39  TYR39      -0.1241
     67  CA        -0.1690  -14.2980    4.1740 C.3    39  TYR39       0.1605
     68  C         -0.6870  -15.6860    3.8210 C.2    39  TYR39       0.2264
     69  O         -0.5250  -16.1520    2.6850 O.2    39  TYR39      -0.2867
     70  CB         1.1050  -14.3950    5.0040 C.3    39  TYR39       0.0534
     71  CG         2.2400  -15.0570    4.2590 C.ar   39  TYR39      -0.0201
     72  CD1        2.9730  -14.3530    3.3100 C.ar   39  TYR39      -0.0009
     73  CD2        2.5770  -16.3860    4.4970 C.ar   39  TYR39      -0.0009
     74  CE1        4.0160  -14.9510    2.6210 C.ar   39  TYR39       0.0417
     75  CE2        3.6310  -16.9960    3.8080 C.ar   39  TYR39       0.0417
     76  CZ         4.3400  -16.2690    2.8720 C.ar   39  TYR39       0.1957
     77  OH         5.3850  -16.8600    2.1800 O.3    39  TYR39      -0.2866
     78  N          7.6020  -16.1080   -2.1410 N.3    78  CYS78      -0.1235
     79  CA         7.9650  -14.7000   -2.0450 C.3    78  CYS78       0.1677
     80  C          7.6390  -13.9580   -3.3350 C.2    78  CYS78       0.2270
     81  O          7.1220  -12.8300   -3.3020 O.2    78  CYS78      -0.2867
     82  CB         9.4510  -14.5910   -1.6980 C.3    78  CYS78       0.0956
     83  SG        10.0130  -12.9010   -1.3170 S.3    78  CYS78      -0.0801
     84  N          3.7500  -13.5910   -3.3240 N.3    81  TYR81      -0.1227
     85  CA         3.0790  -12.7240   -2.3570 C.3    81  TYR81       0.1736
     86  C          3.3860  -11.2470   -2.5630 C.2    81  TYR81       0.2595
     87  O          2.5290  -10.3950   -2.2800 O.2    81  TYR81      -0.2718
     88  CB         3.4540  -13.1230   -0.9310 C.3    81  TYR81       0.0548
     89  CG         2.7260  -12.2750    0.0820 C.ar   81  TYR81      -0.0200
     90  CD1        1.3740  -12.4750    0.3410 C.ar   81  TYR81      -0.0009
     91  CD2        3.3770  -11.2510    0.7450 C.ar   81  TYR81      -0.0009
     92  CE1        0.6960  -11.6800    1.2550 C.ar   81  TYR81       0.0417
     93  CE2        2.7110  -10.4520    1.6570 C.ar   81  TYR81       0.0417
     94  CZ         1.3760  -10.6680    1.9080 C.ar   81  TYR81       0.1957
     95  OH         0.7280   -9.8630    2.8160 O.3    81  TYR81      -0.2866
     96  N          4.5770  -10.9160   -3.0480 N.am   82  ASN82      -0.1974
     97  CA         5.0680   -9.5430   -3.0230 C.3    82  ASN82       0.1688
     98  C          5.0060   -8.9270   -4.4110 C.2    82  ASN82       0.2292
     99  O          5.2420   -9.6110   -5.4080 O.2    82  ASN82      -0.2864
    100  CB         6.5010   -9.5030   -2.5000 C.3    82  ASN82       0.1181
    101  CG         6.5850   -9.8960   -1.0550 C.2    82  ASN82       0.2629
    102  OD1        6.2940   -9.0860   -0.1720 O.2    82  ASN82      -0.2716
    103  ND2        6.9450  -11.1480   -0.7950 N.am   82  ASN82      -0.0877
    104  N         11.5030   -7.2930   -1.3520 N.3    88  PHE88      -0.1241
    105  CA        11.2770   -8.7240   -1.1310 C.3    88  PHE88       0.1605
    106  C         11.2590   -9.4920   -2.4440 C.2    88  PHE88       0.2264
    107  O         11.9020  -10.5430   -2.5680 O.2    88  PHE88      -0.2867
    108  CB         9.9660   -8.9680   -0.3790 C.3    88  PHE88       0.0534
    109  CG        10.0260   -8.6230    1.0840 C.ar   88  PHE88      -0.0203
    110  CD1       10.9330   -9.2470    1.9200 C.ar   88  PHE88      -0.0042
    111  CD2        9.1560   -7.6900    1.6280 C.ar   88  PHE88      -0.0042
    112  CE1       10.9880   -8.9360    3.2690 C.ar   88  PHE88      -0.0003
    113  CE2        9.2110   -7.3730    2.9730 C.ar   88  PHE88      -0.0003
    114  CZ        10.1250   -8.0020    3.7950 C.ar   88  PHE88      -0.0000
@<TRIPOS>BOND
     1    99    98    2
     2    98    97    1
     3    80    81    2
     4    80    79    1
     5    84    85    1
     6    96    97    1
     7    96    86   am
     8    97   100    1
     9   107   106    2
    10    86    85    1
    11    86    87    2
    12   100   101    1
    13   106   105    1
    14    85    88    1
    15    78    79    1
    16    79    82    1
    17    82    83    1
    18   104   105    1
    19   105   108    1
    20   101   103   am
    21   101   102    2
    22    88    89    1
    23   108   109    1
    24    19    18   ar
    25    19    17   ar
    26    89    90   ar
    27    89    91   ar
    28    18    16   ar
    29    90    92   ar
    30    91    93   ar
    31    17    15   ar
    32   109   111   ar
    33   109   110   ar
    34    92    94   ar
    35    16    14   ar
    36   111   113   ar
    37    93    94   ar
    38     8     6    1
    39    15    14   ar
    40    94    95    1
    41   110   112   ar
    42    14    13    1
    43    77    76    1
    44    74    76   ar
    45    74    72   ar
    46    69    68    2
    47     6     5    1
    48    76    75   ar
    49   113   114   ar
    50   112   114   ar
    51    13    10    1
    52    72    71   ar
    53    75    73   ar
    54    68    67    1
    55    67    66    1
    56    67    70    1
    57     5     7    1
    58     5     2    1
    59    71    73   ar
    60    71    70    1
    61    10     9    1
    62    10    11    1
    63     9     3   am
    64     3     4    2
    65     3     2    1
    66    42    40    1
    67     2     1    1
    68    64    63    1
    69    12    11    2
    70    41    40    1
    71    40    37    1
    72    63    65    1
    73    63    60    1
    74    62    61    2
    75    37    36    1
    76    37    38    1
    77    60    61    1
    78    60    59    1
    79    36    31   am
    80    23    22    2
    81    31    30    1
    82    31    32    2
    83    38    39    2
    84    38    43   am
    85    30    29    1
    86    30    33    1
    87    20    21    1
    88    22    29   am
    89    22    21    1
    90    59    52   am
    91    53    52    2
    92    49    43    1
    93    49    48    1
    94    29    35    1
    95    43    44    1
    96    52    51    1
    97    21    24    1
    98    33    34    1
    99    46    45    2
   100    34    35    1
   101    48    47    1
   102    45    44    1
   103    44    47    1
   104    24    25    1
   105    51    54    1
   106    51    50    1
   107    54    55    1
   108    57    56   ar
   109    25    26    1
   110    56    55    1
   111    56    58   ar
   112    27    26   ar
   113    26    28   ar
