@<TRIPOS>MOLECULE
tmp/5ewyA00.pdb
 132 126 0 0 0
SMALL
GASTEIGER

@<TRIPOS>ATOM
      1  N         32.9130   32.4320   16.0620 N.3    41  TYR41      -0.1227
      2  CA        32.5750   31.3920   17.0210 C.3    41  TYR41       0.1736
      3  C         31.1070   31.4800   17.3950 C.2    41  TYR41       0.2595
      4  O         30.4970   32.5390   17.3280 O.2    41  TYR41      -0.2718
      5  CB        33.4600   31.4680   18.2970 C.3    41  TYR41       0.0548
      6  CG        34.9050   31.6160   17.9220 C.ar   41  TYR41      -0.0200
      7  CD1       35.4470   32.8720   17.6830 C.ar   41  TYR41      -0.0009
      8  CD2       35.7020   30.5130   17.7420 C.ar   41  TYR41      -0.0009
      9  CE1       36.7650   33.0070   17.2530 C.ar   41  TYR41       0.0417
     10  CE2       37.0260   30.6450   17.3220 C.ar   41  TYR41       0.0417
     11  CZ        37.5140   31.8930   17.1260 C.ar   41  TYR41       0.1957
     12  OH        38.8120   32.0120   16.6790 O.3    41  TYR41      -0.2866
     13  N         30.5520   30.3360   17.7580 N.am   42  ARG42      -0.1966
     14  CA        29.1980   30.2950   18.2890 C.3    42  ARG42       0.1729
     15  C         29.1300   29.2360   19.3790 C.2    42  ARG42       0.2617
     16  O         29.4010   28.0580   19.1070 O.2    42  ARG42      -0.2715
     17  CB        28.1780   29.9860   17.1920 C.3    42  ARG42       0.0348
     18  CG        26.7740   29.8530   17.7640 C.3    42  ARG42       0.0492
     19  CD        25.7120   29.6920   16.6790 C.3    42  ARG42       0.2205
     20  NE        24.4500   29.2460   17.2840 N.pl3  42  ARG42      -0.0865
     21  CZ        23.5500   30.0330   17.8560 C.cat  42  ARG42       0.5346
     22  NH1       22.4670   29.4930   18.4040 N.pl3  42  ARG42       0.1354
     23  NH2       23.6770   31.3500   17.8640 N.pl3  42  ARG42       0.1354
     24  N         28.7410   29.6570   20.5890 N.am   43  SER43      -0.1936
     25  CA        28.3950   28.7480   21.6780 C.3    43  SER43       0.2055
     26  C         26.9810   28.2390   21.4060 C.2    43  SER43       0.2643
     27  O         26.0890   29.0320   21.1280 O.2    43  SER43      -0.2714
     28  CB        28.4520   29.5480   22.9930 C.3    43  SER43       0.2130
     29  OG        28.0680   28.7290   24.0650 O.3    43  SER43      -0.2179
     30  N         26.7970   26.9230   21.4060 N.am   44  ASP44      -0.1971
     31  CA        25.4730   26.3590   21.1710 C.3    44  ASP44       0.1709
     32  C         25.3750   25.0480   21.9350 C.2    44  ASP44       0.2293
     33  O         26.3120   24.2480   21.9430 O.2    44  ASP44      -0.2864
     34  CB        25.2630   26.1630   19.6590 C.3    44  ASP44       0.1436
     35  CG        23.8120   26.1340   19.2510 C.2    44  ASP44       0.3671
     36  OD1       22.9860   25.5250   19.9810 O.co2  44  ASP44      -0.2456
     37  OD2       23.4830   26.7190   18.1870 O.co2  44  ASP44      -0.2456
     38  N         15.7560   30.8610   13.7530 N.3    59  LYS59      -0.1245
     39  CA        14.4860   30.4530   14.3520 C.3    59  LYS59       0.1561
     40  C         13.2850   30.8750   13.5060 C.2    59  LYS59       0.2260
     41  O         12.3530   30.0830   13.3230 O.2    59  LYS59      -0.2867
     42  CB        14.4120   30.9610   15.7950 C.3    59  LYS59       0.0271
     43  CG        15.2720   30.1250   16.7330 C.3    59  LYS59       0.0035
     44  CD        15.1810   30.5430   18.1840 C.3    59  LYS59       0.0206
     45  CE        15.9650   29.5620   19.0440 C.3    59  LYS59       0.1093
     46  NZ        15.8620   29.8210   20.5020 N.3    59  LYS59      -0.1314
     47  N         16.6300   42.3470   18.9880 N.3    71  TYR71      -0.1241
     48  CA        17.0370   40.9460   19.0980 C.3    71  TYR71       0.1605
     49  C         18.1620   40.7780   20.1140 C.2    71  TYR71       0.2264
     50  O         18.1540   39.8380   20.9190 O.2    71  TYR71      -0.2867
     51  CB        17.4950   40.4640   17.7150 C.3    71  TYR71       0.0534
     52  CG        18.3070   39.1850   17.7130 C.ar   71  TYR71      -0.0201
     53  CD1       17.7120   37.9700   18.0110 C.ar   71  TYR71      -0.0009
     54  CD2       19.6640   39.1900   17.3940 C.ar   71  TYR71      -0.0009
     55  CE1       18.4370   36.7960   18.0100 C.ar   71  TYR71       0.0417
     56  CE2       20.3980   38.0190   17.3920 C.ar   71  TYR71       0.0417
     57  CZ        19.7760   36.8220   17.7010 C.ar   71  TYR71       0.1957
     58  OH        20.4830   35.6380   17.7070 O.3    71  TYR71      -0.2866
     59  N         15.8340   38.5110   24.0430 N.3    75  ASN75      -0.1240
     60  CA        15.8480   37.2550   23.3060 C.3    75  ASN75       0.1653
     61  C         14.4640   36.9880   22.7320 C.2    75  ASN75       0.2266
     62  O         13.4640   36.9910   23.4580 O.2    75  ASN75      -0.2867
     63  CB        16.2820   36.1130   24.2310 C.3    75  ASN75       0.1155
     64  CG        16.5160   34.8090   23.4870 C.2    75  ASN75       0.2627
     65  OD1       16.6490   34.7910   22.2620 O.2    75  ASN75      -0.2716
     66  ND2       16.5770   33.7090   24.2290 N.am   75  ASN75      -0.0877
     67  N         23.3770   34.1910   15.7510 N.3    82  SER82      -0.1202
     68  CA        24.4090   34.9780   16.4080 C.3    82  SER82       0.2020
     69  C         25.7170   34.2190   16.4460 C.2    82  SER82       0.2619
     70  O         25.7620   33.0280   16.7460 O.2    82  SER82      -0.2717
     71  CB        24.0230   35.2800   17.8440 C.3    82  SER82       0.2103
     72  OG        22.8790   36.1250   17.8720 O.3    82  SER82      -0.2182
     73  N         26.7950   34.9450   16.1720 N.am   83  THR83      -0.1938
     74  CA        28.1660   34.4630   16.3020 C.3    83  THR83       0.2028
     75  C         28.9530   35.5880   16.9450 C.2    83  THR83       0.2642
     76  O         28.4610   36.7040   17.1150 O.2    83  THR83      -0.2714
     77  CB        28.7900   34.0980   14.9430 C.3    83  THR83       0.1808
     78  OG1       29.0510   35.2870   14.1860 O.3    83  THR83      -0.2208
     79  CG2       27.8620   33.1390   14.1420 C.3    83  THR83       0.0379
     80  N         30.2190   35.3130   17.2470 N.am   84  THR84      -0.1950
     81  CA        31.0670   36.3140   17.8700 C.3    84  THR84       0.1897
     82  C         32.4700   36.2840   17.2830 C.2    84  THR84       0.2313
     83  O         32.9790   35.2360   16.9010 O.2    84  THR84      -0.2863
     84  CB        31.1250   36.1040   19.4110 C.3    84  THR84       0.1794
     85  OG1       32.0060   37.0440   20.0080 O.3    84  THR84      -0.2208
     86  CG2       31.5510   34.7090   19.7680 C.3    84  THR84       0.0378
     87  N         34.0200   33.6760   24.2130 N.3    89  LEU89      -0.1245
     88  CA        32.7170   34.0750   24.7180 C.3    89  LEU89       0.1561
     89  C         31.9640   32.8760   25.2660 C.2    89  LEU89       0.2260
     90  O         31.0710   33.0330   26.1120 O.2    89  LEU89      -0.2867
     91  CB        31.9160   34.7820   23.6180 C.3    89  LEU89       0.0270
     92  CG        30.6490   35.5030   24.1530 C.3    89  LEU89       0.0019
     93  CD1       31.0610   36.7030   24.9380 C.3    89  LEU89       0.0001
     94  CD2       29.8140   35.9280   22.9910 C.3    89  LEU89       0.0001
     95  N         28.5620   31.5970   28.5290 N.3    93  TRP93      -0.1241
     96  CA        27.3060   30.9280   28.2200 C.3    93  TRP93       0.1605
     97  C         27.2550   29.6430   29.0310 C.2    93  TRP93       0.2264
     98  O         27.9040   28.6520   28.6810 O.2    93  TRP93      -0.2867
     99  CB        27.2200   30.6330   26.7290 C.3    93  TRP93       0.0550
    100  CG        27.0110   31.8430   25.8940 C.ar   93  TRP93       0.0003
    101  CD1       27.9250   32.4670   25.0970 C.ar   93  TRP93       0.0946
    102  CD2       25.8040   32.5860   25.7700 C.ar   93  TRP93       0.0152
    103  NE1       27.3530   33.5580   24.4860 N.ar   93  TRP93      -0.2442
    104  CE2       26.0460   33.6450   24.8760 C.ar   93  TRP93       0.0810
    105  CE3       24.5290   32.4510   26.3250 C.ar   93  TRP93       0.0012
    106  CZ2       25.0650   34.5680   24.5380 C.ar   93  TRP93       0.0191
    107  CZ3       23.5570   33.3660   25.9810 C.ar   93  TRP93       0.0001
    108  CH2       23.8270   34.4010   25.0920 C.ar   93  TRP93       0.0015
    109  N         26.2800   25.9040   27.7420 N.3    96  SER96      -0.1217
    110  CA        26.3090   25.7960   26.2830 C.3    96  SER96       0.1889
    111  C         27.4240   24.7850   26.1640 C.2    96  SER96       0.2288
    112  O         28.5040   25.0420   26.5400 O.2    96  SER96      -0.2866
    113  CB        26.6110   27.0910   25.5300 C.3    96  SER96       0.2089
    114  OG        26.0910   27.1160   24.1970 O.3    96  SER96      -0.2183
    115  N         29.9500   41.3410   23.7310 N.3   123  GLN123     -0.1245
    116  CA        29.8140   40.0830   23.0230 C.3   123  GLN123      0.1566
    117  C         30.4020   40.1280   21.6160 C.2   123  GLN123      0.2260
    118  O         30.5050   39.0760   20.9720 O.2   123  GLN123     -0.2867
    119  CB        28.3480   39.6960   22.8820 C.3   123  GLN123      0.0367
    120  CG        27.5990   39.4560   24.1590 C.3   123  GLN123      0.0905
    121  CD        26.2150   38.9100   23.8520 C.2   123  GLN123      0.2608
    122  OE1       25.4220   39.5260   23.0920 O.2   123  GLN123     -0.2717
    123  NE2       25.9200   37.7510   24.4050 N.am  123  GLN123     -0.0878
    124  N         29.4120   40.7530   18.5840 N.3   125  GLU125     -0.1245
    125  CA        28.5540   39.8360   17.8520 C.3   125  GLU125      0.1567
    126  C         28.5770   40.1340   16.3600 C.2   125  GLU125      0.2260
    127  O         28.6630   41.2900   15.9290 O.2   125  GLU125     -0.2867
    128  CB        27.1210   39.9520   18.3780 C.3   125  GLU125      0.0388
    129  CG        26.1710   38.9870   17.7360 C.3   125  GLU125      0.1160
    130  CD        24.7800   39.0550   18.2920 C.2   125  GLU125      0.3649
    131  OE1       24.5940   39.7030   19.3420 O.co2 125  GLU125     -0.2457
    132  OE2       23.8880   38.4490   17.6580 O.co2 125  GLU125     -0.2457
@<TRIPOS>BOND
     1    41    40    2
     2    40    39    1
     3    38    39    1
     4    79    77    1
     5    78    77    1
     6    39    42    1
     7    77    74    1
     8    67    68    1
     9    42    43    1
    10   127   126    2
    11     1     2    1
    12    73    74    1
    13    73    69   am
    14    74    75    1
    15   126   125    1
    16    68    69    1
    17    68    71    1
    18    69    70    2
    19    12    11    1
    20    19    20    1
    21    19    18    1
    22    43    44    1
    23    83    82    2
    24    75    76    2
    25    75    80   am
    26     2     3    1
    27     2     5    1
    28    11     9   ar
    29    11    10   ar
    30    17    18    1
    31    17    14    1
    32    80    81    1
    33     9     7   ar
    34    82    81    1
    35    20    21    2
    36    10     8   ar
    37     4     3    2
    38    56    54   ar
    39    56    57   ar
    40    54    52   ar
    41     3    13   am
    42   132   130   ar
    43     7     6   ar
    44    57    58    1
    45    57    55   ar
    46    52    51    1
    47    52    53   ar
    48    51    48    1
    49   129   130    1
    50   129   128    1
    51     8     6   ar
    52    13    14    1
    53    71    72    1
    54   125   128    1
    55   125   124    1
    56    21    23    1
    57    21    22    1
    58    81    84    1
    59     6     5    1
    60    55    53   ar
    61    44    45    1
    62    37    35   ar
    63    14    15    1
    64   130   131   ar
    65    47    48    1
    66    45    46    1
    67    48    49    1
    68    16    15    2
    69    35    34    1
    70    35    36   ar
    71    15    24   am
    72    84    86    1
    73    84    85    1
    74    34    31    1
    75    49    50    2
    76    24    25    1
    77   118   117    2
    78    27    26    2
    79    31    30    1
    80    31    32    1
    81    26    30   am
    82    26    25    1
    83   117   116    1
    84    25    28    1
    85    32    33    2
    86    65    64    2
    87    61    60    1
    88    61    62    2
    89   119   116    1
    90   119   120    1
    91    94    92    1
    92    28    29    1
    93   116   115    1
    94   122   121    2
    95    60    59    1
    96    60    63    1
    97    64    66   am
    98    64    63    1
    99    91    92    1
   100    91    88    1
   101   121   120    1
   102   121   123   am
   103    92    93    1
   104   114   113    1
   105    87    88    1
   106   103   104   ar
   107   103   101   ar
   108   106   104   ar
   109   106   108   ar
   110    88    89    1
   111   104   102   ar
   112   108   107   ar
   113   101   100   ar
   114    89    90    2
   115   113   110    1
   116   102   100   ar
   117   102   105   ar
   118   100    99    1
   119   107   105   ar
   120   111   110    1
   121   111   112    2
   122   110   109    1
   123    99    96    1
   124    96    95    1
   125    96    97    1
   126    98    97    2
