@<TRIPOS>MOLECULE
tmp/5ewzA00.pdb
 218 205 0 0 0
SMALL
GASTEIGER

@<TRIPOS>ATOM
      1  N         11.8620    1.9230   16.2100 N.3    44  SER44      -0.1202
      2  CA        11.2000    2.7120   15.2000 C.3    44  SER44       0.2020
      3  C         12.1960    3.2650   14.0950 C.2    44  SER44       0.2618
      4  O         11.9000    3.1580   12.9150 O.2    44  SER44      -0.2717
      5  CB        10.3720    3.7950   15.9250 C.3    44  SER44       0.2103
      6  OG         9.9400    4.8020   15.0360 O.3    44  SER44      -0.2182
      7  N         13.3830    3.7710   14.4880 N.am   45  VAL45      -0.1979
      8  CA        14.4320    4.1970   13.5500 C.3    45  VAL45       0.1595
      9  C         14.9990    3.0560   12.6290 C.2    45  VAL45       0.2287
     10  O         15.2040    3.2720   11.4120 O.2    45  VAL45      -0.2864
     11  CB        15.6490    4.9440   14.2970 C.3    45  VAL45       0.0276
     12  CG1       16.8890    5.0880   13.3690 C.3    45  VAL45       0.0022
     13  CG2       15.2500    6.3200   14.8290 C.3    45  VAL45       0.0022
     14  N         12.0980    2.1120   10.1320 N.3    48  LYS48      -0.1231
     15  CA        11.8240    3.1960    9.1960 C.3    48  LYS48       0.1693
     16  C         12.8270    3.1670    8.0200 C.2    48  LYS48       0.2592
     17  O         12.4100    3.2610    6.8700 O.2    48  LYS48      -0.2718
     18  CB        11.8630    4.5410    9.9050 C.3    48  LYS48       0.0285
     19  CG        11.7240    5.7760    8.9950 C.3    48  LYS48       0.0035
     20  CD        10.2370    6.0670    8.7310 C.3    48  LYS48       0.0206
     21  CE        10.0360    6.9860    7.5040 C.3    48  LYS48       0.1093
     22  NZ         8.6330    6.9670    7.0690 N.3    48  LYS48      -0.1314
     23  N         14.1180    3.0180    8.3260 N.am   49  ASN49      -0.1974
     24  CA        15.1610    2.9600    7.3170 C.3    49  ASN49       0.1688
     25  C         15.1530    1.6820    6.4580 C.2    49  ASN49       0.2292
     26  O         15.4630    1.7750    5.2880 O.2    49  ASN49      -0.2864
     27  CB        16.5650    3.1270    7.9390 C.3    49  ASN49       0.1181
     28  CG        16.8620    4.5680    8.3620 C.2    49  ASN49       0.2629
     29  OD1       17.2620    5.3870    7.5460 O.2    49  ASN49      -0.2716
     30  ND2       16.6750    4.8750    9.6450 N.am   49  ASN49      -0.0877
     31  N         11.8640    2.0790    4.2610 N.3    52  GLY52      -0.1210
     32  CA        12.1060    3.2340    3.3790 C.3    52  GLY52       0.1956
     33  C         12.9340    2.9130    2.1250 C.2    52  GLY52       0.2611
     34  O         12.6140    3.3630    0.9850 O.2    52  GLY52      -0.2717
     35  N         13.9960    2.1290    2.2960 N.am   53  ALA53      -0.1979
     36  CA        14.8060    1.7660    1.1490 C.3    53  ALA53       0.1597
     37  C         13.9800    1.0740    0.0330 C.2    53  ALA53       0.2287
     38  O         14.1380    1.4150   -1.1480 O.2    53  ALA53      -0.2864
     39  CB        15.9710    0.8900    1.5680 C.3    53  ALA53       0.0319
     40  N         10.5170    1.1230   -0.3500 N.3    55  ARG55      -0.1231
     41  CA         9.4840    1.9880   -0.8870 C.3    55  ARG55       0.1694
     42  C         10.0860    2.9240   -1.9810 C.2    55  ARG55       0.2592
     43  O          9.4380    3.1710   -3.0140 O.2    55  ARG55      -0.2718
     44  CB         8.8060    2.8520    0.2030 C.3    55  ARG55       0.0321
     45  CG         7.9920    2.1000    1.2940 C.3    55  ARG55       0.0489
     46  CD         7.5240    3.0150    2.4810 C.3    55  ARG55       0.2205
     47  NE         6.5320    4.1080    2.2040 N.pl3  55  ARG55      -0.0865
     48  CZ         6.5700    5.3190    2.7970 C.cat  55  ARG55       0.5346
     49  NH1        7.5510    5.6040    3.6580 N.pl3  55  ARG55       0.1354
     50  NH2        5.6490    6.2470    2.5890 N.pl3  55  ARG55       0.1354
     51  N         11.2520    3.5190   -1.6960 N.am   56  SER56      -0.1952
     52  CA        11.9140    4.4140   -2.6300 C.3    56  SER56       0.1924
     53  C         12.2300    3.6600   -3.9490 C.2    56  SER56       0.2314
     54  O         11.8800    4.1420   -5.0280 O.2    56  SER56      -0.2863
     55  CB        13.1710    5.0410   -2.0210 C.3    56  SER56       0.2116
     56  OG        14.0310    5.5850   -3.0280 O.3    56  SER56      -0.2180
     57  N          8.9440    2.8980   -6.1200 N.3    59  ARG59      -0.1245
     58  CA         8.4310    4.0290   -6.8760 C.3    59  ARG59       0.1563
     59  C          9.2570    4.2210   -8.1460 C.2    59  ARG59       0.2260
     60  O          8.6670    4.4280   -9.2010 O.2    59  ARG59      -0.2867
     61  CB         8.3410    5.3510   -6.0490 C.3    59  ARG59       0.0307
     62  CG         7.4180    5.2130   -4.7850 C.3    59  ARG59       0.0489
     63  CD         7.1840    6.5380   -4.0030 C.3    59  ARG59       0.2205
     64  NE         8.4100    7.1440   -3.4720 N.pl3  59  ARG59      -0.0865
     65  CZ         8.8270    7.0770   -2.1950 C.cat  59  ARG59       0.5346
     66  NH1        9.9610    7.6890   -1.8370 N.pl3  59  ARG59       0.1354
     67  NH2        8.1340    6.4190   -1.2620 N.pl3  59  ARG59       0.1354
     68  N         -0.2680    4.4210   16.3070 N.3   119  LYS119     -0.1245
     69  CA         0.1180    5.2250   15.1110 C.3   119  LYS119      0.1561
     70  C          1.0290    4.3980   14.1850 C.2   119  LYS119      0.2260
     71  O          0.8070    4.3470   12.9410 O.2   119  LYS119     -0.2867
     72  CB         0.7990    6.5320   15.4950 C.3   119  LYS119      0.0271
     73  CG         1.5100    7.3220   14.3110 C.3   119  LYS119      0.0035
     74  CD         2.3810    8.4390   14.9250 C.3   119  LYS119      0.0206
     75  CE         3.2320    9.0990   13.8970 C.3   119  LYS119      0.1093
     76  NZ         4.0900    8.0040   13.2890 N.3   119  LYS119     -0.1314
     77  N          0.5650    3.2150   10.2450 N.3   123  ASP123     -0.1239
     78  CA         1.6230    3.5310    9.2580 C.3   123  ASP123      0.1674
     79  C          1.9600    2.2930    8.4160 C.2   123  ASP123      0.2266
     80  O          2.0930    2.3950    7.1780 O.2   123  ASP123     -0.2867
     81  CB         2.9310    4.0380    9.9370 C.3   123  ASP123      0.1410
     82  CG         2.8310    5.4810   10.5210 C.2   123  ASP123      0.3668
     83  OD1        1.9720    6.2950   10.0980 O.co2 123  ASP123     -0.2456
     84  OD2        3.6480    5.7980   11.4410 O.co2 123  ASP123     -0.2456
     85  N         -0.7900    1.2430    6.1320 N.3   126  ARG126     -0.1231
     86  CA        -0.7140    2.1900    4.9950 C.3   126  ARG126      0.1694
     87  C          0.4180    1.8260    3.9910 C.2   126  ARG126      0.2592
     88  O          0.2140    1.9440    2.7840 O.2   126  ARG126     -0.2718
     89  CB        -0.5840    3.7030    5.4860 C.3   126  ARG126      0.0321
     90  CG        -0.2620    4.7790    4.4290 C.3   126  ARG126      0.0489
     91  CD        -0.5360    6.2450    4.9440 C.3   126  ARG126      0.2205
     92  NE         0.3940    6.5760    6.0390 N.pl3 126  ARG126     -0.0865
     93  CZ         1.6730    6.9750    5.9190 C.cat 126  ARG126      0.5346
     94  NH1        2.2400    7.1780    4.7130 N.pl3 126  ARG126      0.1354
     95  NH2        2.3900    7.2180    7.0280 N.pl3 126  ARG126      0.1354
     96  N          1.6060    1.4260    4.4620 N.am  127  TYR127     -0.1976
     97  CA         2.6440    0.9920    3.5060 C.3   127  TYR127      0.1639
     98  C          2.1860   -0.2230    2.6950 C.2   127  TYR127      0.2290
     99  O          2.4300   -0.2520    1.4840 O.2   127  TYR127     -0.2864
    100  CB         4.0560    0.7730    4.1290 C.3   127  TYR127      0.0560
    101  CG         4.5720    1.9530    4.9660 C.ar  127  TYR127     -0.0198
    102  CD1        4.2070    3.2760    4.6610 C.ar  127  TYR127     -0.0009
    103  CD2        5.4310    1.7390    6.0730 C.ar  127  TYR127     -0.0009
    104  CE1        4.6560    4.3570    5.4470 C.ar  127  TYR127      0.0417
    105  CE2        5.9050    2.8440    6.8980 C.ar  127  TYR127      0.0417
    106  CZ         5.5360    4.1320    6.5690 C.ar  127  TYR127      0.1957
    107  OH         5.9880    5.2080    7.3330 O.3   127  TYR127     -0.2866
    108  N         -0.1390    1.0020   -0.1300 N.3   130  GLU130     -0.1196
    109  CA         0.4850    1.6620   -1.2910 C.3   130  GLU130      0.1783
    110  C          0.7300    0.6500   -2.4260 C.2   130  GLU130      0.2306
    111  O          0.7780    1.0390   -3.5760 O.2   130  GLU130     -0.2863
    112  CB         1.8280    2.3470   -0.9200 C.2   130  GLU130      0.0071
    113  CG         1.6910    3.6730   -0.1450 C.2   130  GLU130      0.0834
    114  CD         3.0210    4.2040    0.5080 C.2   130  GLU130      0.3877
    115  OE1        4.1080    3.5040    0.5190 O.co2 130  GLU130     -0.2406
    116  OE2        2.9470    5.3320    1.0550 O.co2 130  GLU130     -0.2406
    117  N          2.3950   14.5290   15.5280 N.3   168  GLY168     -0.1225
    118  CA         2.8700   13.5660   14.5240 C.3   168  GLY168      0.1811
    119  C          1.7580   12.6130   14.0530 C.2   168  GLY168      0.2280
    120  O          1.7250   12.2070   12.8490 O.2   168  GLY168     -0.2866
    121  N         -0.4570   14.6580   11.6190 N.3   171  LEU171     -0.1231
    122  CA         0.2980   14.7750   10.3890 C.3   171  LEU171      0.1693
    123  C          0.1530   13.5250    9.5270 C.2   171  LEU171      0.2592
    124  O         -0.2410   13.6560    8.3460 O.2   171  LEU171     -0.2718
    125  CB         1.7620   15.0980   10.6370 C.3   171  LEU171      0.0284
    126  CG         2.6470   15.1750    9.3830 C.3   171  LEU171      0.0019
    127  CD1        2.5000   16.5350    8.6740 C.3   171  LEU171      0.0001
    128  CD2        4.1340   14.9330    9.7190 C.3   171  LEU171      0.0001
    129  N          0.4210   12.3360   10.0960 N.am  172  ASN172     -0.1974
    130  CA         0.2820   11.0710    9.3050 C.3   172  ASN172      0.1688
    131  C         -1.1880   10.6710    8.9270 C.2   172  ASN172      0.2292
    132  O         -1.4060   10.1760    7.8280 O.2   172  ASN172     -0.2864
    133  CB         1.0540    9.8850    9.9290 C.3   172  ASN172      0.1181
    134  CG         2.6120   10.0580    9.8690 C.2   172  ASN172      0.2629
    135  OD1        3.1270   11.1230    9.5620 O.2   172  ASN172     -0.2716
    136  ND2        3.3300    9.0020   10.1900 N.am  172  ASN172     -0.0877
    137  N         -2.3820   12.7480    5.9560 N.3   175  VAL175     -0.1245
    138  CA        -1.8150   12.2430    4.6840 C.3   175  VAL175      0.1561
    139  C         -2.5560   10.9210    4.2200 C.2   175  VAL175      0.2260
    140  O         -2.6780   10.6470    2.9950 O.2   175  VAL175     -0.2867
    141  CB        -0.2950   11.9820    4.8600 C.3   175  VAL175      0.0252
    142  CG1        0.2970   11.0260    3.7720 C.3   175  VAL175      0.0019
    143  CG2        0.5160   13.3300    4.9160 C.3   175  VAL175      0.0019
    144  N         -5.6870   12.1900    2.4900 N.3   178  TYR178     -0.1227
    145  CA        -5.3320   12.7440    1.1650 C.3   178  TYR178      0.1736
    146  C         -4.9570   11.6830    0.1140 C.2   178  TYR178      0.2595
    147  O         -5.5060   11.7010   -0.9570 O.2   178  TYR178     -0.2718
    148  CB        -4.2370   13.8080    1.2410 C.3   178  TYR178      0.0548
    149  CG        -4.0390   14.5990   -0.0550 C.ar  178  TYR178     -0.0200
    150  CD1       -4.7210   15.7850   -0.2610 C.ar  178  TYR178     -0.0009
    151  CD2       -3.1250   14.1880   -1.0440 C.ar  178  TYR178     -0.0009
    152  CE1       -4.5680   16.5440   -1.4630 C.ar  178  TYR178      0.0417
    153  CE2       -2.9560   14.9360   -2.2570 C.ar  178  TYR178      0.0417
    154  CZ        -3.6890   16.1150   -2.4280 C.ar  178  TYR178      0.1957
    155  OH        -3.5580   16.9180   -3.5470 O.3   178  TYR178     -0.2866
    156  N         -4.0410   10.7650    0.4190 N.am  179  GLU179     -0.1979
    157  CA        -3.4880    9.8390   -0.5940 C.3   179  GLU179      0.1602
    158  C         -4.1240    8.4940   -0.6530 C.2   179  GLU179      0.2287
    159  O         -4.0370    7.8290   -1.6920 O.2   179  GLU179     -0.2864
    160  CB        -2.0160    9.5170   -0.3120 C.3   179  GLU179      0.0415
    161  CG        -1.0440   10.4910   -0.8870 C.3   179  GLU179      0.1163
    162  CD         0.4140   10.3020   -0.3950 C.2   179  GLU179      0.3649
    163  OE1        0.8470    9.1900    0.0280 O.co2 179  GLU179     -0.2457
    164  OE2        1.1250   11.3270   -0.4470 O.co2 179  GLU179     -0.2457
    165  N          7.1150   20.1850   13.8510 N.3   216  ILE216     -0.1245
    166  CA         5.9830   19.4360   13.2780 C.3   216  ILE216      0.1561
    167  C          4.7890   20.3560   12.9120 C.2   216  ILE216      0.2260
    168  O          4.0760   20.1180   11.9200 O.2   216  ILE216     -0.2867
    169  CB         5.4670   18.3050   14.2350 C.3   216  ILE216      0.0252
    170  CG1        6.6110   17.3170   14.6250 C.3   216  ILE216      0.0019
    171  CG2        4.2010   17.5840   13.5950 C.3   216  ILE216      0.0019
    172  CD1        6.2980   16.4340   15.8820 C.3   216  ILE216      0.0001
    173  N          5.6170   21.4750    9.6090 N.3   219  LEU219     -0.1245
    174  CA         5.2800   20.4090    8.6060 C.3   219  LEU219      0.1561
    175  C          3.7800   20.3350    8.2380 C.2   219  LEU219      0.2260
    176  O          3.4400   20.1590    7.0570 O.2   219  LEU219     -0.2867
    177  CB         5.8360   19.0290    8.9470 C.3   219  LEU219      0.0270
    178  CG         7.3470   18.8790    9.0920 C.3   219  LEU219      0.0019
    179  CD1        7.6560   17.4800    9.7190 C.3   219  LEU219      0.0001
    180  CD2        8.0880   19.0460    7.7460 C.3   219  LEU219      0.0001
    181  N          3.0410   23.3560    5.8940 N.3   222  ASP222     -0.1225
    182  CA         3.6070   23.1360    4.5330 C.3   222  ASP222      0.1805
    183  C          2.6910   22.1700    3.7230 C.2   222  ASP222      0.2597
    184  O          2.5160   22.3470    2.4890 O.2   222  ASP222     -0.2718
    185  CB         5.0520   22.5630    4.5550 C.3   222  ASP222      0.1424
    186  CG         6.1160   23.5650    5.1690 C.2   222  ASP222      0.3668
    187  OD1        5.8640   24.7880    5.2490 O.co2 222  ASP222     -0.2456
    188  OD2        7.2260   23.1180    5.5780 O.co2 222  ASP222     -0.2456
    189  N          2.1120   21.1610    4.3890 N.am  223  ASN223     -0.1974
    190  CA         1.1830   20.2800    3.6860 C.3   223  ASN223      0.1688
    191  C         -0.0540   21.0460    3.2460 C.2   223  ASN223      0.2292
    192  O         -0.5190   20.8190    2.1090 O.2   223  ASN223     -0.2864
    193  CB         0.8010   19.0110    4.4800 C.3   223  ASN223      0.1181
    194  CG         1.8680   17.9120    4.3910 C.2   223  ASN223      0.2629
    195  OD1        2.8020   18.0130    3.5810 O.2   223  ASN223     -0.2716
    196  ND2        1.7490   16.8580    5.2490 N.am  223  ASN223     -0.0877
    197  N          0.7580   23.1210    0.1790 N.3   226  LEU226     -0.1231
    198  CA         0.8910   22.2530   -1.0100 C.3   226  LEU226      0.1693
    199  C         -0.4680   21.8260   -1.5360 C.2   226  LEU226      0.2592
    200  O         -0.6520   21.7530   -2.7310 O.2   226  LEU226     -0.2718
    201  CB         1.7320   20.9930   -0.7200 C.3   226  LEU226      0.0284
    202  CG         1.8970   19.8750   -1.8050 C.3   226  LEU226      0.0019
    203  CD1        2.7630   20.3110   -3.0580 C.3   226  LEU226      0.0001
    204  CD2        2.5240   18.6050   -1.2120 C.3   226  LEU226      0.0001
    205  N         -1.4200   21.5380   -0.6460 N.am  227  TRP227     -0.1976
    206  CA        -2.7150   20.9870   -1.0520 C.3   227  TRP227      0.1640
    207  C         -3.7120   22.0890   -1.4560 C.2   227  TRP227      0.2290
    208  O         -4.7750   21.7940   -1.9920 O.2   227  TRP227     -0.2864
    209  CB        -3.3340   20.0860    0.0500 C.3   227  TRP227      0.0576
    210  CG        -2.5680   18.8610    0.3720 C.ar  227  TRP227      0.0006
    211  CD1       -1.7070   18.1650   -0.4770 C.ar  227  TRP227      0.0946
    212  CD2       -2.5450   18.1440    1.6350 C.ar  227  TRP227      0.0152
    213  NE1       -1.1900   17.0740    0.1780 N.ar  227  TRP227     -0.2442
    214  CE2       -1.6820   17.0290    1.4630 C.ar  227  TRP227      0.0810
    215  CE3       -3.1770   18.3320    2.8730 C.ar  227  TRP227      0.0012
    216  CZ2       -1.4080   16.1080    2.5010 C.ar  227  TRP227      0.0191
    217  CZ3       -2.9330   17.4030    3.9260 C.ar  227  TRP227      0.0001
    218  CH2       -2.0350   16.3120    3.7380 C.ar  227  TRP227      0.0015
@<TRIPOS>BOND
     1    60    59    2
     2    59    58    1
     3    58    57    1
     4    58    61    1
     5    61    62    1
     6    54    53    2
     7    62    63    1
     8    63    64    1
     9    53    52    1
    10   111   110    2
    11   155   154    1
    12    64    65    2
    13   203   202    1
    14    56    55    1
    15    43    42    2
    16   200   199    2
    17    52    55    1
    18    52    51    1
    19   154   153   ar
    20   154   152   ar
    21   110   109    1
    22   153   151   ar
    23    65    66    1
    24    65    67    1
    25   208   207    2
    26    42    51   am
    27    42    41    1
    28   202   204    1
    29   202   201    1
    30   159   158    2
    31   199   198    1
    32   199   205   am
    33   152   150   ar
    34   207   206    1
    35   109   112    1
    36   109   108    1
    37    38    37    2
    38   206   205    1
    39   206   209    1
    40   151   149   ar
    41   198   201    1
    42   198   197    1
    43   147   146    2
    44   112   113    2
    45   161   162    1
    46   161   160    1
    47    41    40    1
    48    41    44    1
    49   158   157    1
    50   157   160    1
    51   157   156    1
    52   211   213   ar
    53   211   210   ar
    54   164   162   ar
    55   162   163   ar
    56   150   149   ar
    57   113   114    1
    58   149   148    1
    59    37    36    1
    60   209   210    1
    61   146   156   am
    62   146   145    1
    63   213   214   ar
    64    44    45    1
    65   210   212   ar
    66   114   115   ar
    67   114   116   ar
    68    34    33    2
    69    36    39    1
    70    36    35    1
    71   145   148    1
    72   145   144    1
    73    45    46    1
    74   214   212   ar
    75   214   216   ar
    76    99    98    2
    77   212   215   ar
    78   192   191    2
    79    33    35   am
    80    33    32    1
    81    47    46    1
    82    47    48    2
    83   184   183    2
    84   216   218   ar
    85    50    48    1
    86    98    97    1
    87    88    87    2
    88    48    49    1
    89   215   217   ar
    90   140   139    2
    91   191   190    1
    92    32    31    1
    93    97   100    1
    94    97    96    1
    95   195   194    2
    96   190   189    1
    97   190   193    1
    98   183   189   am
    99   183   182    1
   100   218   217   ar
   101   142   141    1
   102    87    96   am
   103    87    86    1
   104   100   101    1
   105   139   138    1
   106   194   193    1
   107   194   196   am
   108    90    91    1
   109    90    89    1
   110   182   185    1
   111   182   181    1
   112   185   186    1
   113   102   101   ar
   114   102   104   ar
   115   138   141    1
   116   138   137    1
   117    94    93    1
   118   141   143    1
   119    91    92    1
   120   101   103   ar
   121    86    89    1
   122    86    85    1
   123   186   187   ar
   124   186   188   ar
   125    26    25    2
   126   104   106   ar
   127    93    92    2
   128    93    95    1
   129   103   105   ar
   130    25    24    1
   131   106   105   ar
   132   106   107    1
   133    17    16    2
   134   176   175    2
   135    22    21    1
   136    80    79    2
   137    24    27    1
   138    24    23    1
   139    21    20    1
   140    29    28    2
   141   180   178    1
   142   132   131    2
   143    27    28    1
   144    16    23   am
   145    16    15    1
   146   175   174    1
   147   124   123    2
   148    28    30   am
   149    79    78    1
   150   174   177    1
   151   174   173    1
   152   127   126    1
   153    20    19    1
   154   131   130    1
   155   177   178    1
   156    19    18    1
   157   178   179    1
   158    15    18    1
   159    15    14    1
   160    78    81    1
   161    78    77    1
   162   130   133    1
   163   130   129    1
   164   126   128    1
   165   126   125    1
   166   123   129   am
   167   123   122    1
   168   135   134    2
   169   134   133    1
   170   134   136   am
   171    81    82    1
   172    83    82   ar
   173   122   125    1
   174   122   121    1
   175    82    84   ar
   176    10     9    2
   177   168   167    2
   178     9     8    1
   179   120   119    2
   180   167   166    1
   181     4     3    2
   182    71    70    2
   183   166   165    1
   184   166   169    1
   185    76    75    1
   186    12    11    1
   187     8    11    1
   188     8     7    1
   189   171   169    1
   190    75    74    1
   191   119   118    1
   192     3     7   am
   193     3     2    1
   194    70    69    1
   195   169   170    1
   196    11    13    1
   197    73    74    1
   198    73    72    1
   199   118   117    1
   200   170   172    1
   201     6     5    1
   202    69    72    1
   203    69    68    1
   204     2     5    1
   205     2     1    1
