@<TRIPOS>MOLECULE
tmp/5ewzB00.pdb
 196 184 0 0 0
SMALL
GASTEIGER

@<TRIPOS>ATOM
      1  N         32.1240   -1.7620  -12.8130 N.3    45  SER45      -0.1217
      2  CA        33.0050   -0.9990  -11.9610 C.3    45  SER45       0.1889
      3  C         32.1890   -0.1110  -10.9970 C.2    45  SER45       0.2288
      4  O         32.5300   -0.0170   -9.8130 O.2    45  SER45      -0.2866
      5  CB        33.9370   -0.1740  -12.8210 C.3    45  SER45       0.2089
      6  OG        34.6990    0.7320  -12.0440 O.3    45  SER45      -0.2183
      7  N         32.1250   -0.7270   -6.8080 N.3    49  LYS49      -0.1245
      8  CA        32.5990    0.4210   -6.0520 C.3    49  LYS49       0.1561
      9  C         31.5900    0.8490   -4.9440 C.2    49  LYS49       0.2260
     10  O         32.0090    1.2110   -3.8310 O.2    49  LYS49      -0.2867
     11  CB        32.8900    1.5610   -6.9800 C.3    49  LYS49       0.0271
     12  CG        32.7640    2.9570   -6.3310 C.3    49  LYS49       0.0035
     13  CD        33.9850    3.7900   -6.7390 C.3    49  LYS49       0.0206
     14  CE        35.3420    3.2530   -6.0430 C.3    49  LYS49       0.1093
     15  NZ        35.8350    4.2190   -4.9830 N.3    49  LYS49      -0.1314
     16  N         33.7300   -0.2830    3.6880 N.3    56  ARG56      -0.1245
     17  CA        34.8910    0.5080    4.0730 C.3    56  ARG56       0.1563
     18  C         34.4400    1.6290    5.0140 C.2    56  ARG56       0.2260
     19  O         35.0850    1.9120    6.0330 O.2    56  ARG56      -0.2867
     20  CB        35.5670    1.1560    2.8230 C.3    56  ARG56       0.0307
     21  CG        36.4730    0.2330    1.9850 C.3    56  ARG56       0.0489
     22  CD        36.8700    0.8870    0.5860 C.3    56  ARG56       0.2205
     23  NE        37.9200    1.9150    0.7080 N.pl3  56  ARG56      -0.0865
     24  CZ        38.0880    2.9510   -0.1100 C.cat  56  ARG56       0.5346
     25  NH1       37.2810    3.1270   -1.1520 N.pl3  56  ARG56       0.1354
     26  NH2       39.0960    3.7860    0.1030 N.pl3  56  ARG56       0.1354
     27  N         35.6320    2.0630    9.0460 N.3    60  ARG60      -0.1245
     28  CA        36.2750    3.2180    9.6350 C.3    60  ARG60       0.1563
     29  C         35.5500    3.6980   10.9110 C.2    60  ARG60       0.2260
     30  O         36.2340    4.0420   11.8830 O.2    60  ARG60      -0.2867
     31  CB        36.4740    4.3940    8.6520 C.3    60  ARG60       0.0307
     32  CG        37.5050    4.0550    7.5390 C.3    60  ARG60       0.0489
     33  CD        37.8290    5.2300    6.6010 C.3    60  ARG60       0.2205
     34  NE        36.6570    5.8530    5.9820 N.pl3  60  ARG60      -0.0865
     35  CZ        36.2840    5.6290    4.7170 C.cat  60  ARG60       0.5346
     36  NH1       35.1980    6.2170    4.2130 N.pl3  60  ARG60       0.1354
     37  NH2       36.9970    4.7990    3.9520 N.pl3  60  ARG60       0.1354
     38  N         44.6750   -0.8490  -13.2480 N.3   117  LYS117     -0.1245
     39  CA        44.3050    0.1620  -12.2780 C.3   117  LYS117      0.1561
     40  C         43.2390   -0.3490  -11.3100 C.2   117  LYS117      0.2260
     41  O         43.2250    0.0570  -10.1480 O.2   117  LYS117     -0.2867
     42  CB        43.8100    1.4260  -12.9840 C.3   117  LYS117      0.0271
     43  CG        43.4460    2.5620  -12.0420 C.3   117  LYS117      0.0035
     44  CD        42.3150    3.4060  -12.6050 C.3   117  LYS117      0.0206
     45  CE        41.2680    3.7050  -11.5440 C.3   117  LYS117      0.1093
     46  NZ        41.1990    5.1580  -11.2270 N.3   117  LYS117     -0.1314
     47  N         43.6870   -0.8490   -7.1340 N.3   121  ASP121     -0.1239
     48  CA        42.6590   -0.3810   -6.1780 C.3   121  ASP121      0.1674
     49  C         42.1590   -1.4660   -5.1870 C.2   121  ASP121      0.2266
     50  O         41.9980   -1.1600   -3.9930 O.2   121  ASP121     -0.2867
     51  CB        41.4300    0.1460   -6.8990 C.3   121  ASP121      0.1410
     52  CG        41.6770    1.4660   -7.6820 C.2   121  ASP121      0.3668
     53  OD1       42.6230    2.2130   -7.3750 O.co2 121  ASP121     -0.2456
     54  OD2       40.8510    1.7800   -8.5840 O.co2 121  ASP121     -0.2456
     55  N         44.8180   -2.4670   -2.7690 N.3   124  ARG124     -0.1231
     56  CA        44.9020   -1.3620   -1.8080 C.3   124  ARG124      0.1694
     57  C         43.7660   -1.4190   -0.7100 C.2   124  ARG124      0.2592
     58  O         44.0110   -1.1240    0.5110 O.2   124  ARG124     -0.2718
     59  CB        45.0130    0.0070   -2.4950 C.3   124  ARG124      0.0321
     60  CG        44.6750    1.2490   -1.5820 C.3   124  ARG124      0.0489
     61  CD        45.0900    2.5900   -2.2160 C.3   124  ARG124      0.2205
     62  NE        44.2320    2.9260   -3.3570 N.pl3 124  ARG124     -0.0865
     63  CZ        43.0740    3.5970   -3.2850 C.cat 124  ARG124      0.5346
     64  NH1       42.6270    4.0460   -2.0960 N.pl3 124  ARG124      0.1354
     65  NH2       42.3560    3.8240   -4.4130 N.pl3 124  ARG124      0.1354
     66  N         42.5650   -1.8260   -1.1130 N.am  125  TYR125     -0.1976
     67  CA        41.4810   -1.9490   -0.1420 C.3   125  TYR125      0.1639
     68  C         41.7770   -3.0350    0.8700 C.2   125  TYR125      0.2290
     69  O         41.4670   -2.8510    2.0560 O.2   125  TYR125     -0.2864
     70  CB        40.0700   -2.1330   -0.7820 C.3   125  TYR125      0.0560
     71  CG        39.6890   -1.0000   -1.7730 C.ar  125  TYR125     -0.0198
     72  CD1       40.1800    0.3320   -1.6020 C.ar  125  TYR125     -0.0009
     73  CD2       38.8200   -1.2480   -2.8400 C.ar  125  TYR125     -0.0009
     74  CE1       39.8360    1.3460   -2.5090 C.ar  125  TYR125      0.0417
     75  CE2       38.4900   -0.2510   -3.7540 C.ar  125  TYR125      0.0417
     76  CZ        38.9910    1.0430   -3.5870 C.ar  125  TYR125      0.1957
     77  OH        38.6380    2.0210   -4.5040 O.3   125  TYR125     -0.2866
     78  N         44.3820   -1.6810    3.5440 N.3   128  GLU128     -0.1245
     79  CA        43.7860   -0.8630    4.6250 C.3   128  GLU128      0.1567
     80  C         43.3970   -1.6480    5.8900 C.2   128  GLU128      0.2260
     81  O         43.4560   -1.1230    6.9870 O.2   128  GLU128     -0.2867
     82  CB        42.5180   -0.1050    4.1490 C.3   128  GLU128      0.0388
     83  CG        42.7930    1.0980    3.1980 C.3   128  GLU128      0.1160
     84  CD        41.5360    1.6600    2.4520 C.2   128  GLU128      0.3649
     85  OE1       40.3630    1.1290    2.5690 O.co2 128  GLU128     -0.2457
     86  OE2       41.7600    2.6580    1.7210 O.co2 128  GLU128     -0.2457
     87  N         43.1430    9.4980  -13.9980 N.3   166  GLY166     -0.1225
     88  CA        42.5310    8.7470  -12.8730 C.3   166  GLY166      0.1811
     89  C         43.5360    7.7880  -12.1660 C.2   166  GLY166      0.2280
     90  O         43.5710    7.6800  -10.9030 O.2   166  GLY166     -0.2866
     91  N         46.0300    9.9300  -10.1300 N.3   169  LEU169     -0.1231
     92  CA        45.3690   10.2680   -8.8250 C.3   169  LEU169      0.1693
     93  C         45.4060    9.1390   -7.7750 C.2   169  LEU169      0.2592
     94  O         45.8130    9.3850   -6.6300 O.2   169  LEU169     -0.2718
     95  CB        43.9580   10.7570   -8.9940 C.3   169  LEU169      0.0284
     96  CG        43.1820   11.1260   -7.7340 C.3   169  LEU169      0.0019
     97  CD1       43.5800   12.5360   -7.1430 C.3   169  LEU169      0.0001
     98  CD2       41.6790   11.0430   -8.0090 C.3   169  LEU169      0.0001
     99  N         45.0350    7.9140   -8.1630 N.am  170  ASN170     -0.1974
    100  CA        44.9350    6.8320   -7.1980 C.3   170  ASN170      0.1688
    101  C         46.3560    6.2650   -6.7340 C.2   170  ASN170      0.2292
    102  O         46.5030    5.8200   -5.5730 O.2   170  ASN170     -0.2864
    103  CB        44.0290    5.7040   -7.7630 C.3   170  ASN170      0.1181
    104  CG        42.4990    6.0460   -7.7170 C.2   170  ASN170      0.2629
    105  OD1       42.1100    7.1650   -7.4870 O.2   170  ASN170     -0.2716
    106  ND2       41.6630    5.0460   -7.9580 N.am  170  ASN170     -0.0877
    107  N         47.6740    8.4410   -4.2340 N.3   173  VAL173     -0.1245
    108  CA        47.0010    8.1740   -2.9310 C.3   173  VAL173      0.1561
    109  C         47.6570    6.9770   -2.2510 C.2   173  VAL173      0.2260
    110  O         47.8890    7.0040   -1.0390 O.2   173  VAL173     -0.2867
    111  CB        45.4080    8.0460   -2.9970 C.3   173  VAL173      0.0252
    112  CG1       44.7980    7.5840   -1.6400 C.3   173  VAL173      0.0019
    113  CG2       44.7770    9.4020   -3.3650 C.3   173  VAL173      0.0019
    114  N         50.9130    8.0860   -0.5140 N.3   176  TYR176     -0.1227
    115  CA        50.6930    8.8990    0.6410 C.3   176  TYR176      0.1736
    116  C         50.2030    8.0650    1.8200 C.2   176  TYR176      0.2595
    117  O         50.6650    8.2350    2.9370 O.2   176  TYR176     -0.2718
    118  CB        49.7110   10.0740    0.3640 C.3   176  TYR176      0.0548
    119  CG        49.5600   11.0320    1.5650 C.ar  176  TYR176     -0.0200
    120  CD1       50.3940   12.1550    1.7190 C.ar  176  TYR176     -0.0009
    121  CD2       48.6230   10.7660    2.5690 C.ar  176  TYR176     -0.0009
    122  CE1       50.3090   13.0000    2.8610 C.ar  176  TYR176      0.0417
    123  CE2       48.5060   11.5970    3.6970 C.ar  176  TYR176      0.0417
    124  CZ        49.3650   12.6990    3.8230 C.ar  176  TYR176      0.1957
    125  OH        49.1920   13.4930    4.9110 O.3   176  TYR176     -0.2866
    126  N         49.2970    7.1310    1.5650 N.am  177  GLU177     -0.1979
    127  CA        48.4650    6.5830    2.6120 C.3   177  GLU177      0.1602
    128  C         48.8320    5.1640    2.9620 C.2   177  GLU177      0.2287
    129  O         48.6160    4.7300    4.0970 O.2   177  GLU177     -0.2864
    130  CB        47.0400    6.6220    2.1030 C.3   177  GLU177      0.0415
    131  CG        46.0020    6.7440    3.1620 C.3   177  GLU177      0.1163
    132  CD        44.6300    7.1350    2.5800 C.2   177  GLU177      0.3649
    133  OE1       44.3830    8.3570    2.3280 O.co2 177  GLU177     -0.2457
    134  OE2       43.8030    6.2050    2.3780 O.co2 177  GLU177     -0.2457
    135  N         37.5120   17.4600  -14.1580 N.3   213  LEU213     -0.1231
    136  CA        37.1480   17.1690  -12.7470 C.3   213  LEU213      0.1693
    137  C         38.2580   16.4000  -11.9760 C.2   213  LEU213      0.2591
    138  O         38.4610   16.6400  -10.7760 O.2   213  LEU213     -0.2718
    139  CB        35.8030   16.4360  -12.6300 C.3   213  LEU213      0.0284
    140  CG        35.4660   15.7730  -11.2670 C.3   213  LEU213      0.0019
    141  CD1       35.5360   16.7190   -9.9290 C.3   213  LEU213      0.0001
    142  CD2       34.0940   14.9890  -11.3790 C.3   213  LEU213      0.0001
    143  N         39.0060   15.5320  -12.6730 N.am  214  ILE214     -0.1980
    144  CA        40.1380   14.8390  -12.0510 C.3   214  ILE214      0.1595
    145  C         41.3410   15.7710  -11.7910 C.2   214  ILE214      0.2287
    146  O         42.0150   15.6590  -10.7440 O.2   214  ILE214     -0.2864
    147  CB        40.5640   13.5720  -12.8660 C.3   214  ILE214      0.0276
    148  CG1       39.3630   12.6070  -13.0480 C.3   214  ILE214      0.0022
    149  CG2       41.7140   12.8680  -12.2130 C.3   214  ILE214      0.0022
    150  CD1       39.6500   11.5580  -14.2150 C.3   214  ILE214      0.0001
    151  N         40.5730   17.3650   -8.6150 N.3   217  LEU217     -0.1245
    152  CA        40.8610   16.4610   -7.4620 C.3   217  LEU217      0.1561
    153  C         42.3730   16.3280   -7.1810 C.2   217  LEU217      0.2260
    154  O         42.7870   16.2000   -6.0120 O.2   217  LEU217     -0.2867
    155  CB        40.2060   15.0790   -7.6160 C.3   217  LEU217      0.0270
    156  CG        38.6780   14.9840   -7.6940 C.3   217  LEU217      0.0019
    157  CD1       38.2570   13.5550   -7.9940 C.3   217  LEU217      0.0001
    158  CD2       37.9380   15.5370   -6.3760 C.3   217  LEU217      0.0001
    159  N         43.4160   19.5350   -5.2860 N.3   220  ASP220     -0.1225
    160  CA        42.8000   19.5380   -3.9480 C.3   220  ASP220      0.1805
    161  C         43.6590   18.6400   -3.0030 C.2   220  ASP220      0.2597
    162  O         43.8990   19.0080   -1.8350 O.2   220  ASP220     -0.2718
    163  CB        41.3420   19.0370   -3.9910 C.3   220  ASP220      0.1424
    164  CG        40.3290   20.0800   -4.5530 C.2   220  ASP220      0.3668
    165  OD1       40.6880   21.2730   -4.8000 O.co2 220  ASP220     -0.2456
    166  OD2       39.1210   19.7000   -4.7160 O.co2 220  ASP220     -0.2456
    167  N         44.1660   17.5010   -3.5190 N.am  221  ASN221     -0.1974
    168  CA        45.0000   16.6090   -2.7180 C.3   221  ASN221      0.1688
    169  C         46.3220   17.2810   -2.3360 C.2   221  ASN221      0.2292
    170  O         46.8270   17.1570   -1.2080 O.2   221  ASN221     -0.2864
    171  CB        45.2190   15.2440   -3.4320 C.3   221  ASN221      0.1181
    172  CG        44.0700   14.2630   -3.1760 C.2   221  ASN221      0.2629
    173  OD1       43.1770   14.5260   -2.3520 O.2   221  ASN221     -0.2716
    174  ND2       44.1000   13.1220   -3.8500 N.am  221  ASN221     -0.0877
    175  N         45.8300   19.8500    0.3940 N.3   224  LEU224     -0.1231
    176  CA        45.6650   19.0940    1.6480 C.3   224  LEU224      0.1693
    177  C         47.0290   18.6180    2.1970 C.2   224  LEU224      0.2592
    178  O         47.2820   18.7490    3.3680 O.2   224  LEU224     -0.2718
    179  CB        44.6670   17.9200    1.4850 C.3   224  LEU224      0.0284
    180  CG        44.4640   16.9130    2.6540 C.3   224  LEU224      0.0019
    181  CD1       43.7860   17.5700    3.8820 C.3   224  LEU224      0.0001
    182  CD2       43.6780   15.6300    2.2680 C.3   224  LEU224      0.0001
    183  N         47.9180   18.1130    1.3420 N.am  225  TRP225     -0.1976
    184  CA        49.1160   17.4100    1.7810 C.3   225  TRP225      0.1640
    185  C         50.2560   18.3910    2.0310 C.2   225  TRP225      0.2290
    186  O         51.3210   18.0280    2.5680 O.2   225  TRP225     -0.2864
    187  CB        49.5600   16.3980    0.7210 C.3   225  TRP225      0.0576
    188  CG        48.6220   15.2140    0.5070 C.ar  225  TRP225      0.0006
    189  CD1       47.7310   14.6890    1.4080 C.ar  225  TRP225      0.0946
    190  CD2       48.5460   14.3830   -0.6600 C.ar  225  TRP225      0.0152
    191  NE1       47.0920   13.6020    0.8690 N.ar  225  TRP225     -0.2442
    192  CE2       47.5640   13.3990   -0.4060 C.ar  225  TRP225      0.0810
    193  CE3       49.1960   14.3920   -1.9040 C.ar  225  TRP225      0.0012
    194  CZ2       47.2210   12.4160   -1.3460 C.ar  225  TRP225      0.0191
    195  CZ3       48.8670   13.4010   -2.8520 C.ar  225  TRP225      0.0001
    196  CH2       47.8860   12.4230   -2.5560 C.ar  225  TRP225      0.0015
@<TRIPOS>BOND
     1   150   148    1
     2   135   136    1
     3    87    88    1
     4    38    39    1
     5   148   147    1
     6    42    39    1
     7    42    43    1
     8    88    89    1
     9   147   149    1
    10   147   144    1
    11     5     6    1
    12     5     2    1
    13     1     2    1
    14   136   139    1
    15   136   137    1
    16   143   144    1
    17   143   137   am
    18   139   140    1
    19    44    43    1
    20    44    45    1
    21    39    40    1
    22    89    90    2
    23   144   145    1
    24   137   138    2
    25     2     3    1
    26   145   146    2
    27    45    46    1
    28   142   140    1
    29    40    41    2
    30   140   141    1
    31     3     4    2
    32    91    92    1
    33    95    92    1
    34    95    96    1
    35    92    93    1
    36   151   152    1
    37    54    52   ar
    38    99    93   am
    39    99   100    1
    40    98    96    1
    41   157   156    1
    42   106   104   am
    43    93    94    2
    44   103   104    1
    45   103   100    1
    46    96    97    1
    47   104   105    2
    48   156   155    1
    49   156   158    1
    50    52    53   ar
    51    52    51    1
    52   155   152    1
    53   152   153    1
    54   100   101    1
    55   153   154    2
    56    47    48    1
    57    11    12    1
    58    11     8    1
    59    51    48    1
    60     7     8    1
    61    13    12    1
    62    13    14    1
    63   101   102    2
    64    48    49    1
    65     8     9    1
    66    14    15    1
    67   159   160    1
    68    49    50    2
    69     9    10    2
    70   165   164   ar
    71   166   164   ar
    72   164   163    1
    73    77    76    1
    74    65    63    1
    75   107   108    1
    76   163   160    1
    77   160   161    1
    78   174   172   am
    79    75    76   ar
    80    75    73   ar
    81    76    74   ar
    82   167   161   am
    83   167   168    1
    84   171   172    1
    85   171   168    1
    86   113   111    1
    87    62    63    2
    88    62    61    1
    89    63    64    1
    90   172   173    2
    91   161   162    2
    92   111   108    1
    93   111   112    1
    94   108   109    1
    95   195   196   ar
    96   195   193   ar
    97    73    71   ar
    98    55    56    1
    99   168   169    1
   100   196   194   ar
   101    74    72   ar
   102    59    56    1
   103    59    60    1
   104   169   170    2
   105   109   110    2
   106    61    60    1
   107   193   190   ar
   108    56    57    1
   109    71    72   ar
   110    71    70    1
   111   194   192   ar
   112    25    24    1
   113    66    57   am
   114    66    67    1
   115    70    67    1
   116    57    58    2
   117   190   192   ar
   118   190   188   ar
   119   114   115    1
   120   192   191   ar
   121    67    68    1
   122    24    26    1
   123    24    23    2
   124   118   115    1
   125   118   119    1
   126   175   176    1
   127   188   187    1
   128   188   189   ar
   129    22    23    1
   130    22    21    1
   131   115   116    1
   132   187   184    1
   133   191   189   ar
   134    68    69    2
   135   183   184    1
   136   183   177   am
   137   179   176    1
   138   179   180    1
   139   119   120   ar
   140   119   121   ar
   141   126   116   am
   142   126   127    1
   143   176   177    1
   144   120   122   ar
   145    86    84   ar
   146   184   185    1
   147   116   117    2
   148    21    20    1
   149   185   186    2
   150   130   127    1
   151   130   131    1
   152   177   178    2
   153   182   180    1
   154   133   132   ar
   155   134   132   ar
   156    84    85   ar
   157    84    83    1
   158   121   123   ar
   159   132   131    1
   160   127   128    1
   161   180   181    1
   162    20    17    1
   163   122   124   ar
   164   128   129    2
   165    83    82    1
   166    78    79    1
   167    16    17    1
   168   123   124   ar
   169   124   125    1
   170    37    35    1
   171    17    18    1
   172    82    79    1
   173    36    35    1
   174    79    80    1
   175    35    34    2
   176    18    19    2
   177    80    81    2
   178    34    33    1
   179    33    32    1
   180    32    31    1
   181    31    28    1
   182    27    28    1
   183    28    29    1
   184    29    30    2
