@<TRIPOS>MOLECULE
tmp/5ex0A01.pdb
 187 183 0 0 0
SMALL
GASTEIGER

@<TRIPOS>ATOM
      1  N         37.1440    5.8360    3.2170 N.3    14  ASN14      -0.1225
      2  CA        36.1530    6.8950    3.0600 C.3    14  ASN14       0.1785
      3  C         34.7040    6.4610    3.2950 C.2    14  ASN14       0.2597
      4  O         33.8540    7.2830    3.6350 O.2    14  ASN14      -0.2718
      5  CB        36.2790    7.4940    1.6600 C.3    14  ASN14       0.1169
      6  CG        37.6770    8.0020    1.3740 C.2    14  ASN14       0.2627
      7  OD1       38.2400    8.7680    2.1580 O.2    14  ASN14      -0.2716
      8  ND2       38.2540    7.5630    0.2580 N.am   14  ASN14      -0.0877
      9  N         34.4290    5.1730    3.1190 N.am   15  ARG15      -0.1966
     10  CA        33.0600    4.6650    3.1630 C.3    15  ARG15       0.1729
     11  C         32.5790    4.3250    4.5760 C.2    15  ARG15       0.2617
     12  O         31.5800    3.6320    4.7400 O.2    15  ARG15      -0.2715
     13  CB        32.9410    3.4230    2.2760 C.3    15  ARG15       0.0348
     14  CG        33.4200    3.6230    0.8580 C.3    15  ARG15       0.0492
     15  CD        33.8310    2.2980    0.2310 C.3    15  ARG15       0.2205
     16  NE        33.1930    2.0970   -1.0680 N.pl3  15  ARG15      -0.0865
     17  CZ        33.3530    1.0140   -1.8230 C.cat  15  ARG15       0.5346
     18  NH1       34.1410    0.0270   -1.4140 N.pl3  15  ARG15       0.1354
     19  NH2       32.7260    0.9180   -2.9900 N.pl3  15  ARG15       0.1354
     20  N         33.2790    4.8120    5.5940 N.am   16  GLY16      -0.1940
     21  CA        32.9710    4.4290    6.9620 C.3    16  GLY16       0.2014
     22  C         33.4060    2.9970    7.2180 C.2    16  GLY16       0.2638
     23  O         34.4250    2.5510    6.6910 O.2    16  GLY16      -0.2714
     24  N         32.6390    2.2680    8.0220 N.am   17  ASN17      -0.1972
     25  CA        32.9410    0.8620    8.2530 C.3    17  ASN17       0.1688
     26  C         32.4620    0.0010    7.1010 C.2    17  ASN17       0.2292
     27  O         31.5750    0.3930    6.3390 O.2    17  ASN17      -0.2864
     28  CB        32.3160    0.3690    9.5520 C.3    17  ASN17       0.1181
     29  CG        33.0150    0.9090   10.7810 C.2    17  ASN17       0.2629
     30  OD1       32.3700    1.4150   11.6960 O.2    17  ASN17      -0.2716
     31  ND2       34.3390    0.7970   10.8120 N.am   17  ASN17      -0.0877
     32  N         28.0580   -6.1160   14.5850 N.3   125  TYR125     -0.1241
     33  CA        27.6300   -4.7270   14.5140 C.3   125  TYR125      0.1605
     34  C         26.2870   -4.5970   15.2160 C.2   125  TYR125      0.2264
     35  O         25.3620   -5.3470   14.9150 O.2   125  TYR125     -0.2867
     36  CB        27.5240   -4.2940   13.0510 C.3   125  TYR125      0.0534
     37  CG        27.9620   -2.8850   12.7340 C.ar  125  TYR125     -0.0201
     38  CD1       29.1890   -2.3960   13.1670 C.ar  125  TYR125     -0.0009
     39  CD2       27.1650   -2.0560   11.9530 C.ar  125  TYR125     -0.0009
     40  CE1       29.5950   -1.1060   12.8520 C.ar  125  TYR125      0.0417
     41  CE2       27.5600   -0.7680   11.6360 C.ar  125  TYR125      0.0417
     42  CZ        28.7750   -0.2990   12.0820 C.ar  125  TYR125      0.1957
     43  OH        29.1610    0.9790   11.7570 O.3   125  TYR125     -0.2866
     44  N         24.9480    3.3230   11.0810 N.3   131  GLU131     -0.1245
     45  CA        25.0920    4.6680   10.5540 C.3   131  GLU131      0.1567
     46  C         23.7350    5.3490   10.4830 C.2   131  GLU131      0.2260
     47  O         22.7340    4.7260   10.1380 O.2   131  GLU131     -0.2867
     48  CB        25.7510    4.6360    9.1720 C.3   131  GLU131      0.0388
     49  CG        25.9400    6.0120    8.5330 C.3   131  GLU131      0.1160
     50  CD        26.7760    6.9610    9.3890 C.2   131  GLU131      0.3649
     51  OE1       27.9880    6.7020    9.5580 O.co2 131  GLU131     -0.2457
     52  OE2       26.2210    7.9660    9.8900 O.co2 131  GLU131     -0.2457
     53  N         23.7650    8.9160    9.4390 N.3   133  ASN133     -0.1240
     54  CA        24.0160   10.0180    8.5110 C.3   133  ASN133      0.1653
     55  C         23.3400   11.3230    8.9200 C.2   133  ASN133      0.2266
     56  O         22.9220   12.0960    8.0610 O.2   133  ASN133     -0.2867
     57  CB        23.5620    9.6480    7.0970 C.3   133  ASN133      0.1155
     58  CG        24.4850    8.6600    6.4280 C.2   133  ASN133      0.2627
     59  OD1       24.0350    7.6700    5.8580 O.2   133  ASN133     -0.2716
     60  ND2       25.7870    8.9260    6.4870 N.am  133  ASN133     -0.0877
     61  N         24.6380   14.6640    7.5300 N.3   136  LYS136     -0.1245
     62  CA        24.4650   14.8320    6.0920 C.3   136  LYS136      0.1561
     63  C         23.0000   14.9800    5.6910 C.2   136  LYS136      0.2260
     64  O         22.7000   15.2580    4.5340 O.2   136  LYS136     -0.2867
     65  CB        25.0840   13.6500    5.3410 C.3   136  LYS136      0.0271
     66  CG        26.5510   13.3940    5.6390 C.3   136  LYS136      0.0035
     67  CD        26.9840   12.0750    5.0280 C.3   136  LYS136      0.0206
     68  CE        28.4330   11.7520    5.3270 C.3   136  LYS136      0.1093
     69  NZ        29.3490   12.6560    4.5930 N.3   136  LYS136     -0.1314
     70  N         18.2410    4.1170    6.6750 N.3   181  CYS181     -0.1221
     71  CA        19.5890    3.9690    6.1570 C.3   181  CYS181      0.1808
     72  C         20.0830    2.5210    6.0830 C.2   181  CYS181      0.2601
     73  O         20.9590    2.2030    5.2840 O.2   181  CYS181     -0.2717
     74  CB        20.5360    4.7840    7.0340 C.3   181  CYS181      0.0970
     75  SG        22.0430    5.2590    6.2460 S.3   181  CYS181     -0.0800
     76  N         19.5290    1.6480    6.9180 N.am  182  ASN182     -0.1974
     77  CA        20.1140    0.3250    7.1080 C.3   182  ASN182      0.1688
     78  C         19.1450   -0.8470    6.9670 C.2   182  ASN182      0.2292
     79  O         19.5490   -2.0070    7.0560 O.2   182  ASN182     -0.2864
     80  CB        20.7780    0.2570    8.4840 C.3   182  ASN182      0.1181
     81  CG        22.0170    1.1200    8.5740 C.2   182  ASN182      0.2629
     82  OD1       23.0800    0.7520    8.0710 O.2   182  ASN182     -0.2716
     83  ND2       21.8900    2.2750    9.2170 N.am  182  ASN182     -0.0877
     84  N         24.3680   -5.0720    7.7370 N.3   203  SER203     -0.1202
     85  CA        24.3350   -3.6600    7.3720 C.3   203  SER203      0.2020
     86  C         25.7330   -3.0540    7.2780 C.2   203  SER203      0.2619
     87  O         25.8860   -1.8860    6.9310 O.2   203  SER203     -0.2717
     88  CB        23.4940   -2.8730    8.3760 C.3   203  SER203      0.2103
     89  OG        22.1590   -3.3420    8.3970 O.3   203  SER203     -0.2182
     90  N         26.7520   -3.8450    7.5960 N.am  204  LEU204     -0.1965
     91  CA        28.1300   -3.3990    7.4490 C.3   204  LEU204      0.1728
     92  C         28.5480   -3.2850    5.9810 C.2   204  LEU204      0.2616
     93  O         29.4570   -2.5280    5.6410 O.2   204  LEU204     -0.2715
     94  CB        29.0770   -4.3480    8.1730 C.3   204  LEU204      0.0311
     95  CG        29.4580   -3.9520    9.5950 C.3   204  LEU204      0.0022
     96  CD1       30.2910   -5.0500   10.2280 C.3   204  LEU204      0.0001
     97  CD2       30.2150   -2.6390    9.5700 C.3   204  LEU204      0.0001
     98  N         27.8850   -4.0420    5.1160 N.am  205  LEU205     -0.1963
     99  CA        28.2540   -4.0950    3.7090 C.3   205  LEU205      0.1728
    100  C         28.0300   -2.7750    3.0050 C.2   205  LEU205      0.2616
    101  O         26.9450   -2.2130    3.0600 O.2   205  LEU205     -0.2715
    102  CB        27.4630   -5.1860    2.9980 C.3   205  LEU205      0.0311
    103  CG        27.8360   -6.6240    3.3360 C.3   205  LEU205      0.0022
    104  CD1       26.7000   -7.5490    2.9630 C.3   205  LEU205      0.0001
    105  CD2       29.0840   -7.0070    2.5900 C.3   205  LEU205      0.0001
    106  N         29.0590   -2.2850    2.3290 N.am  206  ASN206     -0.1958
    107  CA        28.9250   -1.0670    1.5450 C.3   206  ASN206      0.1819
    108  C         28.4020   -1.3740    0.1510 C.2   206  ASN206      0.2621
    109  O         28.3960   -2.5250   -0.2840 O.2   206  ASN206     -0.2715
    110  CB        30.2570   -0.3260    1.4760 C.3   206  ASN206      0.1195
    111  CG        30.6190    0.3200    2.7920 C.2   206  ASN206      0.2630
    112  OD1       29.7920    0.9970    3.4040 O.2   206  ASN206     -0.2716
    113  ND2       31.8480    0.1020    3.2500 N.am  206  ASN206     -0.0877
    114  N         27.9570   -0.3390   -0.5460 N.am  207  HIS207     -0.1973
    115  CA        27.2710   -0.5200   -1.8100 C.3   207  HIS207      0.1656
    116  C         28.2030   -0.5060   -3.0140 C.2   207  HIS207      0.2291
    117  O         29.1890    0.2240   -3.0460 O.2   207  HIS207     -0.2864
    118  CB        26.2100    0.5640   -1.9870 C.3   207  HIS207      0.0771
    119  CG        25.7160    0.6950   -3.3950 C.ar  207  HIS207      0.0820
    120  ND1       24.6280   -0.0050   -3.8710 N.ar  207  HIS207     -0.2267
    121  CD2       26.1770    1.4290   -4.4370 C.ar  207  HIS207      0.1154
    122  CE1       24.4300    0.3040   -5.1400 C.ar  207  HIS207      0.1986
    123  NE2       25.3580    1.1700   -5.5090 N.ar  207  HIS207     -0.2212
    124  N         22.5790   -1.9630   -3.1930 N.3   240  TYR240     -0.1241
    125  CA        21.4400   -1.4520   -2.4340 C.3   240  TYR240      0.1605
    126  C         20.1950   -1.2760   -3.2920 C.2   240  TYR240      0.2264
    127  O         19.0790   -1.2290   -2.7770 O.2   240  TYR240     -0.2867
    128  CB        21.7740   -0.1060   -1.7940 C.3   240  TYR240      0.0534
    129  CG        22.8120   -0.1350   -0.6980 C.ar  240  TYR240     -0.0201
    130  CD1       23.4550   -1.3150   -0.3410 C.ar  240  TYR240     -0.0009
    131  CD2       23.1380    1.0260   -0.0100 C.ar  240  TYR240     -0.0009
    132  CE1       24.4050   -1.3310    0.6670 C.ar  240  TYR240      0.0417
    133  CE2       24.0800    1.0190    0.9950 C.ar  240  TYR240      0.0417
    134  CZ        24.7120   -0.1590    1.3320 C.ar  240  TYR240      0.1957
    135  OH        25.6520   -0.1540    2.3370 O.3   240  TYR240     -0.2866
    136  N         20.7290    7.3890    1.0990 N.3   258  TYR258     -0.1227
    137  CA        21.9080    6.8500    1.7630 C.3   258  TYR258      0.1736
    138  C         23.0100    7.8930    1.9440 C.2   258  TYR258      0.2596
    139  O         24.0540    7.6050    2.5300 O.2   258  TYR258     -0.2718
    140  CB        22.4340    5.6370    0.9890 C.3   258  TYR258      0.0548
    141  CG        21.4360    4.4980    0.9120 C.ar  258  TYR258     -0.0200
    142  CD1       21.2300    3.6510    1.9970 C.ar  258  TYR258     -0.0009
    143  CD2       20.6910    4.2740   -0.2400 C.ar  258  TYR258     -0.0009
    144  CE1       20.3150    2.6130    1.9330 C.ar  258  TYR258      0.0417
    145  CE2       19.7760    3.2360   -0.3120 C.ar  258  TYR258      0.0417
    146  CZ        19.5940    2.4100    0.7770 C.ar  258  TYR258      0.1957
    147  OH        18.6850    1.3790    0.7090 O.3   258  TYR258     -0.2866
    148  N         22.7610    9.0990    1.4420 N.am  259  CYS259     -0.1956
    149  CA        23.6520   10.2430    1.6330 C.3   259  CYS259      0.1843
    150  C         25.0750   10.0150    1.1350 C.2   259  CYS259      0.2625
    151  O         26.0360   10.3200    1.8370 O.2   259  CYS259     -0.2714
    152  CB        23.6890   10.6420    3.1110 C.3   259  CYS259      0.0997
    153  SG        22.1310   11.3240    3.7340 S.3   259  CYS259     -0.0797
    154  N         25.2060    9.4900   -0.0790 N.am  260  PHE260     -0.1960
    155  CA        26.5110    9.3590   -0.7180 C.3   260  PHE260      0.1771
    156  C         26.3590    9.2000   -2.2270 C.2   260  PHE260      0.2619
    157  O         25.3110    8.7710   -2.7130 O.2   260  PHE260     -0.2715
    158  CB        27.2940    8.1730   -0.1370 C.3   260  PHE260      0.0574
    159  CG        26.8970    6.8350   -0.7060 C.ar  260  PHE260     -0.0200
    160  CD1       27.5890    6.2870   -1.7780 C.ar  260  PHE260     -0.0042
    161  CD2       25.8400    6.1210   -0.1600 C.ar  260  PHE260     -0.0042
    162  CE1       27.2250    5.0680   -2.3030 C.ar  260  PHE260     -0.0003
    163  CE2       25.4760    4.8970   -0.6770 C.ar  260  PHE260     -0.0003
    164  CZ        26.1690    4.3690   -1.7510 C.ar  260  PHE260     -0.0000
    165  N         27.4130    9.5460   -2.9610 N.am  261  GLU261     -0.1963
    166  CA        27.4520    9.3290   -4.4050 C.3   261  GLU261      0.1733
    167  C         28.3620    8.1450   -4.7240 C.2   261  GLU261      0.2616
    168  O         29.4840    8.0530   -4.2230 O.2   261  GLU261     -0.2715
    169  CB        27.9280   10.5930   -5.1350 C.3   261  GLU261      0.0429
    170  CG        28.0300   10.4540   -6.6550 C.3   261  GLU261      0.1163
    171  CD        28.2840   11.7850   -7.3570 C.2   261  GLU261      0.3649
    172  OE1       27.3140   12.5510   -7.5550 O.co2 261  GLU261     -0.2457
    173  OE2       29.4520   12.0660   -7.7130 O.co2 261  GLU261     -0.2457
    174  N         27.8680    7.2330   -5.5530 N.am  262  CYS262     -0.1954
    175  CA        28.6140    6.0330   -5.8930 C.3   262  CYS262      0.1843
    176  C         29.7080    6.3250   -6.9140 C.2   262  CYS262      0.2625
    177  O         29.4730    7.0300   -7.8940 O.2   262  CYS262     -0.2714
    178  CB        27.6730    4.9640   -6.4300 C.3   262  CYS262      0.0997
    179  SG        28.5120    3.4370   -6.8380 S.3   262  CYS262     -0.0797
    180  N         30.8980    5.7770   -6.6820 N.am  263  ASP263     -0.1971
    181  CA        32.0350    6.0180   -7.5640 C.3   263  ASP263      0.1709
    182  C         32.4970    4.7420   -8.2630 C.2   263  ASP263      0.2293
    183  O         33.6400    4.6510   -8.7070 O.2   263  ASP263     -0.2864
    184  CB        33.2000    6.6440   -6.7850 C.3   263  ASP263      0.1436
    185  CG        33.8420    5.6760   -5.7970 C.2   263  ASP263      0.3671
    186  OD1       35.0450    5.8490   -5.4920 O.co2 263  ASP263     -0.2456
    187  OD2       33.1500    4.7440   -5.3250 O.co2 263  ASP263     -0.2456
@<TRIPOS>BOND
     1   183   182    2
     2   182   181    1
     3   177   176    2
     4   173   171   ar
     5   181   184    1
     6   181   180    1
     7   172   171   ar
     8   171   170    1
     9   176   180   am
    10   176   175    1
    11   179   178    1
    12   184   185    1
    13   170   169    1
    14   178   175    1
    15   175   174    1
    16   185   186   ar
    17   185   187   ar
    18   174   167   am
    19   123   122   ar
    20   123   121   ar
    21   122   120   ar
    22   169   166    1
    23   167   166    1
    24   167   168    2
    25   121   119   ar
    26   166   165    1
    27   120   119   ar
    28   119   118    1
    29   126   127    2
    30   126   125    1
    31   124   125    1
    32   117   116    2
    33   116   115    1
    34    19    17    1
    35   165   156   am
    36   157   156    2
    37   125   128    1
    38   162   160   ar
    39   162   164   ar
    40   156   155    1
    41   118   115    1
    42    17    18    1
    43    17    16    2
    44   115   114    1
    45   128   129    1
    46   160   159   ar
    47   164   163   ar
    48    16    15    1
    49   155   158    1
    50   155   154    1
    51   159   161   ar
    52   159   158    1
    53   129   130   ar
    54   129   131   ar
    55   163   161   ar
    56   114   108   am
    57   130   132   ar
    58   145   143   ar
    59   145   146   ar
    60   109   108    2
    61   143   141   ar
    62   154   150   am
    63   131   133   ar
    64   108   107    1
    65    15    14    1
    66     8     6   am
    67   132   134   ar
    68   147   146    1
    69   146   144   ar
    70    14    13    1
    71   141   140    1
    72   141   142   ar
    73   140   137    1
    74   133   134   ar
    75   136   137    1
    76   150   149    1
    77   150   151    2
    78   134   135    1
    79     6     5    1
    80     6     7    2
    81   148   149    1
    82   148   138   am
    83   110   107    1
    84   110   111    1
    85   107   106    1
    86   149   152    1
    87     5     2    1
    88   137   138    1
    89   144   142   ar
    90   138   139    2
    91    13    10    1
    92   106   100   am
    93   105   103    1
    94   111   113   am
    95   111   112    2
    96   104   103    1
    97   102   103    1
    98   102    99    1
    99   100   101    2
   100   100    99    1
   101     2     1    1
   102     2     3    1
   103   152   153    1
   104     9    10    1
   105     9     3   am
   106    10    11    1
   107     3     4    2
   108    99    98    1
   109    64    63    2
   110    11    12    2
   111    11    20   am
   112    69    68    1
   113    67    68    1
   114    67    66    1
   115    98    92   am
   116    73    72    2
   117    65    66    1
   118    65    62    1
   119    20    21    1
   120    93    92    2
   121    63    62    1
   122    59    58    2
   123    92    91    1
   124    72    71    1
   125    72    76   am
   126    62    61    1
   127    71    70    1
   128    71    74    1
   129    75    74    1
   130    27    26    2
   131    58    60   am
   132    58    57    1
   133    23    22    2
   134    76    77    1
   135    87    86    2
   136    21    22    1
   137    78    79    2
   138    78    77    1
   139    57    54    1
   140    26    25    1
   141    77    80    1
   142    22    24   am
   143    86    85    1
   144    86    90   am
   145    85    84    1
   146    85    88    1
   147    91    90    1
   148    91    94    1
   149    24    25    1
   150    56    55    2
   151    82    81    2
   152    94    95    1
   153    25    28    1
   154    88    89    1
   155    80    81    1
   156    54    55    1
   157    54    53    1
   158    49    48    1
   159    49    50    1
   160    81    83   am
   161    48    45    1
   162    50    51   ar
   163    50    52   ar
   164    28    29    1
   165    97    95    1
   166    95    96    1
   167    47    46    2
   168    46    45    1
   169    45    44    1
   170    29    31   am
   171    29    30    2
   172    41    39   ar
   173    41    42   ar
   174    43    42    1
   175    39    37   ar
   176    42    40   ar
   177    37    36    1
   178    37    38   ar
   179    40    38   ar
   180    36    33    1
   181    33    32    1
   182    33    34    1
   183    35    34    2
