@<TRIPOS>MOLECULE
tmp/5ex4B00.pdb
 72 69 0 0 0
SMALL
GASTEIGER

@<TRIPOS>ATOM
      1  N         12.8360  118.4720    5.6900 N.3     9  ILE9       -0.1231
      2  CA        13.9920  118.5260    4.8120 C.3     9  ILE9        0.1678
      3  C         13.8270  119.6190    3.7740 C.2     9  ILE9        0.2434
      4  O         12.8410  119.6290    3.0460 O.2     9  ILE9       -0.2733
      5  CB        14.2380  117.1430    4.1810 C.3     9  ILE9        0.0265
      6  CG1       15.0290  116.2800    5.1710 C.3     9  ILE9        0.0019
      7  CG2       15.0180  117.2590    2.8810 C.3     9  ILE9        0.0020
      8  CD1       14.9680  114.8030    4.8850 C.3     9  ILE9        0.0001
      9  N         14.7770  120.5710    3.7170 N.am   10  PRO10      -0.2729
     10  CA        14.6950  121.5860    2.6770 C.3    10  PRO10       0.1401
     11  C         14.8110  120.9630    1.2900 C.2    10  PRO10       0.2269
     12  O         15.3650  119.8580    1.1390 O.2    10  PRO10      -0.2865
     13  CB        15.9070  122.4860    2.9530 C.3    10  PRO10       0.0296
     14  CG        16.3290  122.1850    4.3450 C.3    10  PRO10       0.0237
     15  CD        15.9570  120.7620    4.5740 C.3    10  PRO10       0.0939
     16  N         15.7330  116.0150   -3.8600 N.3    51  VAL51      -0.1245
     17  CA        16.4880  115.6690   -2.6520 C.3    51  VAL51       0.1561
     18  C         17.4970  114.5400   -2.9370 C.2    51  VAL51       0.2260
     19  O         18.6360  114.6430   -2.5860 O.2    51  VAL51      -0.2867
     20  CB        15.5550  115.2410   -1.5080 C.3    51  VAL51       0.0252
     21  CG1       16.3620  114.8030   -0.3040 C.3    51  VAL51       0.0019
     22  CG2       14.6450  116.3900   -1.1120 C.3    51  VAL51       0.0019
     23  N         21.0580  115.1220   -4.7000 N.3    54  SER54      -0.1202
     24  CA        22.2300  115.6670   -4.0150 C.3    54  SER54       0.2020
     25  C         22.7190  114.8410   -2.7990 C.2    54  SER54       0.2619
     26  O         23.6630  115.2360   -2.1230 O.2    54  SER54      -0.2717
     27  CB        21.9060  117.0810   -3.5560 C.3    54  SER54       0.2103
     28  OG        20.7800  117.0020   -2.6890 O.3    54  SER54      -0.2182
     29  N         22.1040  113.7060   -2.5100 N.am   55  VAL55      -0.1966
     30  CA        22.6330  112.8710   -1.4310 C.3    55  VAL55       0.1712
     31  C         23.9300  112.1330   -1.8390 C.2    55  VAL55       0.2458
     32  O         24.1550  111.9200   -3.0100 O.2    55  VAL55      -0.2730
     33  CB        21.6040  111.8450   -0.9180 C.3    55  VAL55       0.0289
     34  CG1       20.3410  112.5550   -0.4330 C.3    55  VAL55       0.0023
     35  CG2       21.2710  110.7750   -1.9430 C.3    55  VAL55       0.0023
     36  N         24.7660  111.7480   -0.8530 N.am   56  PRO56      -0.2727
     37  CA        25.8810  110.7900   -1.0490 C.3    56  PRO56       0.1402
     38  C         25.3660  109.4630   -1.6170 C.2    56  PRO56       0.2269
     39  O         24.3910  108.8970   -1.1170 O.2    56  PRO56      -0.2865
     40  CB        26.4380  110.5800    0.3800 C.3    56  PRO56       0.0296
     41  CG        25.9830  111.8130    1.1510 C.3    56  PRO56       0.0237
     42  CD        24.6160  112.1170    0.5740 C.3    56  PRO56       0.0939
     43  N         12.6820  108.9430   -0.4190 N.3   170  VAL170     -0.1245
     44  CA        13.7440  109.4500    0.4420 C.3   170  VAL170      0.1561
     45  C         14.0240  108.4920    1.5940 C.2   170  VAL170      0.2260
     46  O         15.1750  108.2600    1.9590 O.2   170  VAL170     -0.2867
     47  CB        13.4050  110.8440    1.0040 C.3   170  VAL170      0.0252
     48  CG1       14.4560  111.2830    2.0120 C.3   170  VAL170      0.0019
     49  CG2       13.2880  111.8560   -0.1250 C.3   170  VAL170      0.0019
     50  N         16.1470  105.5770    0.4020 N.3   173  TYR173     -0.1227
     51  CA        17.5240  105.9930    0.3180 C.3   173  TYR173      0.1736
     52  C         18.1900  105.9580    1.7180 C.2   173  TYR173      0.2595
     53  O         19.2780  105.4280    1.8610 O.2   173  TYR173     -0.2718
     54  CB        17.6740  107.3890   -0.2570 C.3   173  TYR173      0.0548
     55  CG        19.0420  107.8940   -0.0120 C.ar  173  TYR173     -0.0200
     56  CD1       20.1330  107.3740   -0.7120 C.ar  173  TYR173     -0.0009
     57  CD2       19.2900  108.7960    0.9970 C.ar  173  TYR173     -0.0009
     58  CE1       21.4270  107.7830   -0.4190 C.ar  173  TYR173      0.0417
     59  CE2       20.5760  109.2090    1.2770 C.ar  173  TYR173      0.0417
     60  CZ        21.6320  108.6890    0.5630 C.ar  173  TYR173      0.1957
     61  OH        22.8850  109.1280    0.8560 O.3   173  TYR173     -0.2866
     62  N         17.5360  106.5220    2.7250 N.am  174  ALA174     -0.1980
     63  CA        18.1280  106.6040    4.0610 C.3   174  ALA174      0.1597
     64  C         18.3640  105.1950    4.5900 C.2   174  ALA174      0.2287
     65  O         19.4020  104.9120    5.0940 O.2   174  ALA174     -0.2864
     66  CB        17.2410  107.3880    5.0240 C.3   174  ALA174      0.0319
     67  N         21.3050  103.5100    2.4120 N.3   177  SER177     -0.1217
     68  CA        22.6290  103.9880    2.7030 C.3   177  SER177      0.1889
     69  C         23.1110  103.5090    4.0740 C.2   177  SER177      0.2288
     70  O         24.2860  103.2240    4.2510 O.2   177  SER177     -0.2866
     71  CB        22.6590  105.5030    2.6340 C.3   177  SER177      0.2089
     72  OG        21.6060  106.0130    3.4450 O.3   177  SER177     -0.2183
@<TRIPOS>BOND
     1    23    24    1
     2    24    27    1
     3    24    25    1
     4    16    17    1
     5    27    28    1
     6    32    31    2
     7    18    17    1
     8    18    19    2
     9    25    29   am
    10    25    26    2
    11    17    20    1
    12    29    30    1
    13    35    33    1
    14    31    30    1
    15    31    36   am
    16    38    39    2
    17    38    37    1
    18    20    22    1
    19    20    21    1
    20    30    33    1
    21    37    36    1
    22    37    40    1
    23    33    34    1
    24    36    42    1
    25    56    58   ar
    26    56    55   ar
    27    58    60   ar
    28    43    44    1
    29    54    55    1
    30    54    51    1
    31    49    47    1
    32    55    57   ar
    33    51    50    1
    34    51    52    1
    35    40    41    1
    36    44    47    1
    37    44    45    1
    38    60    61    1
    39    60    59   ar
    40    42    41    1
    41    57    59   ar
    42    47    48    1
    43    12    11    2
    44    11    10    1
    45    45    46    2
    46    52    53    2
    47    52    62   am
    48    67    68    1
    49    71    68    1
    50    71    72    1
    51    10    13    1
    52    10     9    1
    53    68    69    1
    54    62    63    1
    55     7     5    1
    56    13    14    1
    57     4     3    2
    58     9     3   am
    59     9    15    1
    60     3     2    1
    61    63    64    1
    62    63    66    1
    63    69    70    2
    64     5     2    1
    65     5     6    1
    66    14    15    1
    67    64    65    2
    68     2     1    1
    69     8     6    1
