@<TRIPOS>MOLECULE
tmp/5ex4B03.pdb
 120 114 0 0 0
SMALL
GASTEIGER

@<TRIPOS>ATOM
      1  N         23.1820  121.6820   -9.7370 N.3    15  LEU15      -0.1231
      2  CA        23.4130  120.3760  -10.3770 C.3    15  LEU15       0.1678
      3  C         24.0520  120.5230  -11.7610 C.2    15  LEU15       0.2434
      4  O         23.5060  121.2090  -12.6200 O.2    15  LEU15      -0.2733
      5  CB        22.1070  119.5920  -10.5070 C.3    15  LEU15       0.0284
      6  CG        22.2920  118.0900  -10.2730 C.3    15  LEU15       0.0019
      7  CD1       22.3150  117.8180   -8.7760 C.3    15  LEU15       0.0001
      8  CD2       21.2190  117.2560  -10.9630 C.3    15  LEU15       0.0001
      9  N         25.1990  119.8580  -11.9960 N.am   16  PRO16      -0.2718
     10  CA        25.8700  120.0760  -13.2800 C.3    16  PRO16       0.1520
     11  C         25.0450  119.5130  -14.4510 C.2    16  PRO16       0.2440
     12  O         24.3740  118.4720  -14.2960 O.2    16  PRO16      -0.2731
     13  CB        27.1850  119.3130  -13.1150 C.3    16  PRO16       0.0310
     14  CG        26.8470  118.1940  -12.1810 C.3    16  PRO16       0.0237
     15  CD        25.7640  118.7050  -11.2670 C.3    16  PRO16       0.0939
     16  N         25.0660  120.2010  -15.6110 N.am   17  PRO17      -0.2716
     17  CA        24.2760  119.6730  -16.7270 C.3    17  PRO17       0.1536
     18  C         24.9490  118.4490  -17.3260 C.2    17  PRO17       0.2598
     19  O         26.1670  118.4260  -17.5120 O.2    17  PRO17      -0.2715
     20  CB        24.2460  120.8380  -17.7400 C.3    17  PRO17       0.0310
     21  CG        25.0180  121.9610  -17.1140 C.3    17  PRO17       0.0237
     22  CD        25.8600  121.3670  -16.0230 C.3    17  PRO17       0.0939
     23  N         24.1680  117.4330  -17.6200 N.am   18  LEU18      -0.1978
     24  CA        24.6900  116.2960  -18.3930 C.3    18  LEU18       0.1596
     25  C         25.2860  116.7210  -19.7430 C.2    18  LEU18       0.2287
     26  O         24.8050  117.6720  -20.3550 O.2    18  LEU18      -0.2864
     27  CB        23.5470  115.3130  -18.6910 C.3    18  LEU18       0.0297
     28  CG        23.0100  114.5420  -17.4880 C.3    18  LEU18       0.0022
     29  CD1       21.9360  113.5740  -17.9350 C.3    18  LEU18       0.0001
     30  CD2       24.1630  113.8130  -16.8040 C.3    18  LEU18       0.0001
     31  N         21.8260  113.4440  -21.9090 N.3    23  ARG23      -0.1245
     32  CA        20.5530  114.0750  -21.5700 C.3    23  ARG23       0.1563
     33  C         19.5220  113.6040  -22.5620 C.2    23  ARG23       0.2260
     34  O         18.4090  113.2070  -22.1950 O.2    23  ARG23      -0.2867
     35  CB        20.7060  115.6100  -21.6380 C.3    23  ARG23       0.0307
     36  CG        19.3810  116.3810  -21.5650 C.3    23  ARG23       0.0489
     37  CD        18.9980  116.6320  -20.1400 C.3    23  ARG23       0.2205
     38  NE        18.1350  115.6400  -19.5700 N.pl3  23  ARG23      -0.0865
     39  CZ        18.0880  115.3170  -18.2730 C.cat  23  ARG23       0.5346
     40  NH1       18.9070  115.8500  -17.3880 N.pl3  23  ARG23       0.1354
     41  NH2       17.2260  114.4030  -17.8730 N.pl3  23  ARG23       0.1354
     42  N         18.8020  109.9060  -22.0770 N.3    26  LEU26      -0.1245
     43  CA        18.1030  109.5860  -20.8250 C.3    26  LEU26       0.1561
     44  C         16.6400  109.9880  -20.9630 C.2    26  LEU26       0.2260
     45  O         15.7380  109.2350  -20.5720 O.2    26  LEU26      -0.2867
     46  CB        18.7490  110.3180  -19.6350 C.3    26  LEU26       0.0270
     47  CG        18.0580  110.1740  -18.2700 C.3    26  LEU26       0.0019
     48  CD1       17.9440  108.7280  -17.8480 C.3    26  LEU26       0.0001
     49  CD2       18.7180  110.9920  -17.1920 C.3    26  LEU26       0.0001
     50  N         12.8690  113.5610   -5.8560 N.3    49  ARG49      -0.1245
     51  CA        14.0240  113.3580   -6.7360 C.3    49  ARG49       0.1563
     52  C         15.0730  114.4370   -6.5550 C.2    49  ARG49       0.2260
     53  O         16.2790  114.1680   -6.5630 O.2    49  ARG49      -0.2867
     54  CB        13.6090  113.3160   -8.2050 C.3    49  ARG49       0.0307
     55  CG        12.6690  112.1710   -8.5300 C.3    49  ARG49       0.0489
     56  CD        12.7970  111.7610   -9.9800 C.3    49  ARG49       0.2205
     57  NE        12.6490  112.8860  -10.8900 N.pl3  49  ARG49      -0.0865
     58  CZ        11.4710  113.3110  -11.3250 C.cat  49  ARG49       0.5346
     59  NH1       11.4180  114.3390  -12.1470 N.pl3  49  ARG49       0.1354
     60  NH2       10.3430  112.6970  -10.9430 N.pl3  49  ARG49       0.1354
     61  N         18.9330  113.6680   -5.6880 N.3    53  GLU53      -0.1245
     62  CA        19.9590  114.0750   -6.6120 C.3    53  GLU53       0.1567
     63  C         21.1800  114.6670   -5.9360 C.2    53  GLU53       0.2260
     64  O         22.2390  114.7160   -6.5370 O.2    53  GLU53      -0.2867
     65  CB        19.4020  115.0640   -7.6610 C.3    53  GLU53       0.0388
     66  CG        18.5940  114.3370   -8.7370 C.3    53  GLU53       0.1160
     67  CD        17.8660  115.2630   -9.7150 C.2    53  GLU53       0.3649
     68  OE1       17.7690  116.4750   -9.4540 O.co2  53  GLU53      -0.2457
     69  OE2       17.3940  114.7640  -10.7620 O.co2  53  GLU53      -0.2457
     70  N         16.3740  107.1270  -11.4840 N.3   256  ARG256     -0.1231
     71  CA        16.8310  108.3230  -12.2080 C.3   256  ARG256      0.1694
     72  C         17.4350  109.3670  -11.2970 C.2   256  ARG256      0.2591
     73  O         18.3480  110.0880  -11.7040 O.2   256  ARG256     -0.2718
     74  CB        15.7030  108.9400  -13.0160 C.3   256  ARG256      0.0321
     75  CG        14.7000  109.7350  -12.2230 C.3   256  ARG256      0.0489
     76  CD        13.5160  110.1120  -13.1050 C.3   256  ARG256      0.2205
     77  NE        13.8670  111.2290  -13.9630 N.pl3 256  ARG256     -0.0865
     78  CZ        13.0160  111.8380  -14.7800 C.cat 256  ARG256      0.5346
     79  NH1       11.7570  111.4470  -14.8480 N.pl3 256  ARG256      0.1354
     80  NH2       13.4300  112.8480  -15.5200 N.pl3 256  ARG256      0.1354
     81  N         16.9400  109.4570  -10.0560 N.am  257  ALA257     -0.1980
     82  CA        17.4750  110.4400   -9.1250 C.3   257  ALA257      0.1597
     83  C         18.8300  110.0330   -8.5650 C.2   257  ALA257      0.2287
     84  O         19.6020  110.8870   -8.0850 O.2   257  ALA257     -0.2864
     85  CB        16.4940  110.6730   -7.9810 C.3   257  ALA257      0.0319
     86  N         21.1890  108.6030  -10.3750 N.3   259  LEU259     -0.1231
     87  CA        22.1520  108.6420  -11.4580 C.3   259  LEU259      0.1693
     88  C         23.2230  109.6680  -11.1440 C.2   259  LEU259      0.2592
     89  O         22.9390  110.7460  -10.5960 O.2   259  LEU259     -0.2718
     90  CB        21.4740  109.0120  -12.7950 C.3   259  LEU259      0.0284
     91  CG        20.5750  107.9610  -13.4050 C.3   259  LEU259      0.0019
     92  CD1       19.9040  108.5390  -14.6480 C.3   259  LEU259      0.0001
     93  CD2       21.3180  106.6980  -13.7410 C.3   259  LEU259      0.0001
     94  N         24.4650  109.3050  -11.4440 N.am  260  ARG260     -0.1966
     95  CA        25.5710  110.2360  -11.3270 C.3   260  ARG260      0.1729
     96  C         26.4860  110.0110  -12.5310 C.2   260  ARG260      0.2616
     97  O         26.5220  108.9270  -13.1180 O.2   260  ARG260     -0.2715
     98  CB        26.3410  110.0420  -10.0140 C.3   260  ARG260      0.0348
     99  CG        25.4770  110.1830   -8.7540 C.3   260  ARG260      0.0492
    100  CD        25.2000  111.6450   -8.3670 C.3   260  ARG260      0.2205
    101  NE        24.5210  111.7220   -7.0620 N.pl3 260  ARG260     -0.0865
    102  CZ        23.2290  111.5100   -6.8510 C.cat 260  ARG260      0.5346
    103  NH1       22.4190  111.2040   -7.8500 N.pl3 260  ARG260      0.1354
    104  NH2       22.7520  111.5920   -5.6230 N.pl3 260  ARG260      0.1354
    105  N         27.2080  111.0510  -12.8780 N.am  261  LEU261     -0.1977
    106  CA        28.0650  111.0610  -14.0440 C.3   261  LEU261      0.1596
    107  C         29.4470  110.7490  -13.5510 C.2   261  LEU261      0.2287
    108  O         29.8570  111.2890  -12.5360 O.2   261  LEU261     -0.2864
    109  CB        28.0360  112.4530  -14.6820 C.3   261  LEU261      0.0297
    110  CG        28.7420  112.5580  -16.0360 C.3   261  LEU261      0.0022
    111  CD1       27.9380  111.8360  -17.0850 C.3   261  LEU261      0.0001
    112  CD2       28.9520  114.0070  -16.4320 C.3   261  LEU261      0.0001
    113  N         26.9240  107.5910  -17.4170 N.3   271  LEU271     -0.1245
    114  CA        25.9850  107.5840  -16.3350 C.3   271  LEU271      0.1561
    115  C         26.0520  106.2720  -15.5890 C.2   271  LEU271      0.2260
    116  O         25.9760  105.1900  -16.1840 O.2   271  LEU271     -0.2867
    117  CB        24.5550  107.7700  -16.8200 C.3   271  LEU271      0.0270
    118  CG        24.1920  109.1690  -17.2900 C.3   271  LEU271      0.0019
    119  CD1       22.8710  109.0310  -18.0230 C.3   271  LEU271      0.0001
    120  CD2       24.0900  110.1280  -16.1210 C.3   271  LEU271      0.0001
@<TRIPOS>BOND
     1    33    34    2
     2    33    32    1
     3    42    43    1
     4    31    32    1
     5    35    32    1
     6    35    36    1
     7    36    37    1
     8    44    43    1
     9    44    45    2
    10    43    46    1
    11    26    25    2
    12    37    38    1
    13    25    24    1
    14    46    47    1
    15    38    39    2
    16    27    24    1
    17    27    28    1
    18    24    23    1
    19    39    41    1
    20    39    40    1
    21    47    48    1
    22    47    49    1
    23   119   118    1
    24    29    28    1
    25    20    21    1
    26    20    17    1
    27    23    18   am
    28    19    18    2
    29    28    30    1
    30   113   114    1
    31    18    17    1
    32   118   117    1
    33   118   120    1
    34    21    22    1
    35   111   110    1
    36   117   114    1
    37    17    16    1
    38   112   110    1
    39   114   115    1
    40   116   115    2
    41   110   109    1
    42    22    16    1
    43    16    11   am
    44    80    78    1
    45    79    78    1
    46    78    77    2
    47   109   106    1
    48    92    91    1
    49    11    12    2
    50    11    10    1
    51   106   107    1
    52   106   105    1
    53    77    76    1
    54    93    91    1
    55   107   108    2
    56    91    90    1
    57    10    13    1
    58    10     9    1
    59    97    96    2
    60    13    14    1
    61    76    75    1
    62    74    75    1
    63    74    71    1
    64   105    96   am
    65    90    87    1
    66     4     3    2
    67    96    95    1
    68    71    70    1
    69    71    72    1
    70    14    15    1
    71    59    58    1
    72     9     3   am
    73     9    15    1
    74     3     2    1
    75    73    72    2
    76    87    88    1
    77    87    86    1
    78    94    95    1
    79    94    88   am
    80    95    98    1
    81    58    60    1
    82    58    57    2
    83    72    81   am
    84    88    89    2
    85     8     6    1
    86    57    56    1
    87    69    67   ar
    88     5     2    1
    89     5     6    1
    90     2     1    1
    91     6     7    1
    92    81    82    1
    93    98    99    1
    94    56    55    1
    95    67    68   ar
    96    67    66    1
    97    82    83    1
    98    82    85    1
    99    99   100    1
   100    66    65    1
   101    83    84    2
   102    55    54    1
   103   100   101    1
   104    54    51    1
   105   103   102    1
   106    65    62    1
   107   101   102    2
   108   102   104    1
   109    51    52    1
   110    51    50    1
   111    62    63    1
   112    62    61    1
   113    53    52    2
   114    64    63    2
