@<TRIPOS>MOLECULE
tmp/5exaA00.pdb
 238 225 0 0 0
SMALL
GASTEIGER

@<TRIPOS>ATOM
      1  N          0.3220   -6.5780   -5.2140 N.3    18  TYR18      -0.1241
      2  CA         1.6730   -6.6590   -5.8110 C.3    18  TYR18       0.1605
      3  C          2.2450   -8.0320   -5.6790 C.2    18  TYR18       0.2264
      4  O          3.0250   -8.4570   -6.5330 O.2    18  TYR18      -0.2867
      5  CB         2.5320   -5.5810   -5.1690 C.3    18  TYR18       0.0534
      6  CG         2.0790   -4.2410   -5.6540 C.ar   18  TYR18      -0.0201
      7  CD1        2.2600   -3.8770   -7.0080 C.ar   18  TYR18      -0.0009
      8  CD2        1.4580   -3.3480   -4.7910 C.ar   18  TYR18      -0.0009
      9  CE1        1.8420   -2.6410   -7.4820 C.ar   18  TYR18       0.0417
     10  CE2        1.0130   -2.1460   -5.2290 C.ar   18  TYR18       0.0417
     11  CZ         1.2010   -1.7870   -6.5580 C.ar   18  TYR18       0.1957
     12  OH         0.7500   -0.5510   -6.9480 O.3    18  TYR18      -0.2866
     13  N          9.9450   -4.9960  -12.5000 N.3    44  SER44      -0.1202
     14  CA        10.5410   -4.0330  -11.5770 C.3    44  SER44       0.2020
     15  C          9.5510   -3.3930  -10.5870 C.2    44  SER44       0.2618
     16  O          9.8250   -3.2900   -9.3790 O.2    44  SER44      -0.2717
     17  CB        11.2590   -2.9350  -12.3790 C.3    44  SER44       0.2103
     18  OG        11.7710   -1.9150  -11.5560 O.3    44  SER44      -0.2182
     19  N          8.4190   -2.9150  -11.1030 N.am   45  VAL45      -0.1979
     20  CA         7.4410   -2.2890  -10.2330 C.3    45  VAL45       0.1595
     21  C          6.8650   -3.2790   -9.2550 C.2    45  VAL45       0.2287
     22  O          6.6890   -2.9630   -8.0700 O.2    45  VAL45      -0.2864
     23  CB         6.2940   -1.6090  -11.0830 C.3    45  VAL45       0.0276
     24  CG1        5.0530   -1.2540  -10.1950 C.3    45  VAL45       0.0022
     25  CG2        6.8700   -0.3620  -11.7640 C.3    45  VAL45       0.0022
     26  N          9.5520   -4.0800   -6.5890 N.3    48  LYS48      -0.1231
     27  CA         9.8260   -2.8910   -5.7190 C.3    48  LYS48       0.1693
     28  C          8.7380   -2.6940   -4.6540 C.2    48  LYS48       0.2592
     29  O          9.0100   -2.4140   -3.4960 O.2    48  LYS48      -0.2718
     30  CB         9.9620   -1.5850   -6.5360 C.3    48  LYS48       0.0285
     31  CG        10.5220   -0.4150   -5.6080 C.3    48  LYS48       0.0035
     32  CD        11.8480   -0.8160   -4.8750 C.3    48  LYS48       0.0206
     33  CE        11.9230   -0.2560   -3.4150 C.3    48  LYS48       0.1093
     34  NZ        12.1720    1.2600   -3.5130 N.3    48  LYS48      -0.1314
     35  N          7.4790   -2.9130   -5.0310 N.am   49  ASN49      -0.1974
     36  CA         6.4130   -2.8620   -4.0440 C.3    49  ASN49       0.1688
     37  C          6.4450   -3.9750   -3.0550 C.2    49  ASN49       0.2292
     38  O          6.2120   -3.7350   -1.8920 O.2    49  ASN49      -0.2864
     39  CB         5.0490   -2.8220   -4.7580 C.3    49  ASN49       0.1181
     40  CG         4.7380   -1.4580   -5.2690 C.2    49  ASN49       0.2629
     41  OD1        4.9580   -1.1330   -6.4470 O.2    49  ASN49      -0.2716
     42  ND2        4.2540   -0.6510   -4.3920 N.am   49  ASN49      -0.0877
     43  N          9.5920   -3.3610   -0.9490 N.3    52  GLY52      -0.1210
     44  CA         9.5730   -2.0400   -0.2750 C.3    52  GLY52       0.1956
     45  C          8.6180   -1.9900    0.8730 C.2    52  GLY52       0.2611
     46  O          8.8460   -1.2390    1.8230 O.2    52  GLY52      -0.2717
     47  N          7.5630   -2.8130    0.8360 N.am   53  ALA53      -0.1979
     48  CA         6.6900   -2.8950    2.0030 C.3    53  ALA53       0.1597
     49  C          7.5200   -3.4060    3.1740 C.2    53  ALA53       0.2287
     50  O          7.3900   -2.9090    4.3040 O.2    53  ALA53      -0.2864
     51  CB         5.4650   -3.8390    1.7570 C.3    53  ALA53       0.0319
     52  N         10.8460   -3.3270    3.5270 N.3    55  ARG55      -0.1231
     53  CA        11.8590   -2.3490    3.8980 C.3    55  ARG55       0.1694
     54  C         11.2390   -1.2210    4.7660 C.2    55  ARG55       0.2592
     55  O         11.8850   -0.7380    5.7190 O.2    55  ARG55      -0.2718
     56  CB        12.4810   -1.6860    2.6620 C.3    55  ARG55       0.0321
     57  CG        13.5040   -2.6280    1.9410 C.3    55  ARG55       0.0489
     58  CD        13.9890   -1.9370    0.6320 C.3    55  ARG55       0.2205
     59  NE        15.0420   -0.9360    0.8940 N.pl3  55  ARG55      -0.0865
     60  CZ        15.1080    0.2640    0.2960 C.cat  55  ARG55       0.5346
     61  NH1       14.1810    0.6520   -0.5570 N.pl3  55  ARG55       0.1354
     62  NH2       16.1350    1.0640    0.5500 N.pl3  55  ARG55       0.1354
     63  N         10.0850   -0.7150    4.3390 N.am   56  SER56      -0.1952
     64  CA         9.3820    0.3150    5.1460 C.3    56  SER56       0.1924
     65  C          9.0660   -0.2140    6.5700 C.2    56  SER56       0.2314
     66  O          9.3210    0.4740    7.5840 O.2    56  SER56      -0.2863
     67  CB         8.0860    0.8110    4.4290 C.3    56  SER56       0.2116
     68  OG         7.3990    1.7350    5.2910 O.3    56  SER56      -0.2180
     69  N         12.3210   -0.4120    8.7160 N.3    59  ARG59      -0.1245
     70  CA        12.7490    0.8990    9.2450 C.3    59  ARG59       0.1563
     71  C         11.9390    1.3360   10.4310 C.2    59  ARG59       0.2260
     72  O         12.4800    1.8580   11.4160 O.2    59  ARG59      -0.2867
     73  CB        12.6630    1.9910    8.1540 C.3    59  ARG59       0.0307
     74  CG        13.6580    1.6620    7.0180 C.3    59  ARG59       0.0489
     75  CD        13.9370    2.8300    6.0870 C.3    59  ARG59       0.2205
     76  NE        12.7540    3.2160    5.3570 N.pl3  59  ARG59      -0.0865
     77  CZ        12.4170    2.7730    4.1500 C.cat  59  ARG59       0.5346
     78  NH1       11.2810    3.2010    3.5910 N.pl3  59  ARG59       0.1354
     79  NH2       13.1870    1.8820    3.5190 N.pl3  59  ARG59       0.1354
     80  N         21.8750   -2.9860  -12.6620 N.3   119  LYS119     -0.1245
     81  CA        21.4460   -2.0320  -11.6110 C.3   119  LYS119      0.1561
     82  C         20.4930   -2.7140  -10.6220 C.2   119  LYS119      0.2260
     83  O         20.6130   -2.5470   -9.4320 O.2   119  LYS119     -0.2867
     84  CB        20.7010   -0.8560  -12.2760 C.3   119  LYS119      0.0271
     85  CG        20.0980    0.1720  -11.2240 C.3   119  LYS119      0.0035
     86  CD        19.1930    1.2110  -11.9530 C.3   119  LYS119      0.0206
     87  CE        18.5160    2.0590  -10.8000 C.3   119  LYS119      0.1093
     88  NZ        17.3380    1.2120  -10.1530 N.3   119  LYS119     -0.1314
     89  N         20.7810   -3.0450   -6.6790 N.3   123  ASP123     -0.1225
     90  CA        19.7160   -2.6230   -5.7700 C.3   123  ASP123      0.1805
     91  C         19.3960   -3.7440   -4.7890 C.2   123  ASP123      0.2597
     92  O         19.2780   -3.4880   -3.6220 O.2   123  ASP123     -0.2718
     93  CB        18.4500   -2.2630   -6.6130 C.3   123  ASP123      0.1424
     94  CG        18.5980   -0.9480   -7.3830 C.2   123  ASP123      0.3668
     95  OD1       19.3880   -0.0590   -6.9620 O.co2 123  ASP123     -0.2456
     96  OD2       17.9250   -0.7860   -8.3970 O.co2 123  ASP123     -0.2456
     97  N         19.1640   -4.9590   -5.2820 N.am  124  TYR124     -0.1976
     98  CA        18.6880   -5.9970   -4.3530 C.3   124  TYR124      0.1639
     99  C         19.7660   -6.5450   -3.4240 C.2   124  TYR124      0.2290
    100  O         19.4500   -6.8850   -2.3190 O.2   124  TYR124     -0.2864
    101  CB        17.9510   -7.1190   -5.1050 C.3   124  TYR124      0.0560
    102  CG        16.5740   -6.6190   -5.4570 C.ar  124  TYR124     -0.0198
    103  CD1       16.3820   -5.8060   -6.5730 C.ar  124  TYR124     -0.0009
    104  CD2       15.4950   -6.8970   -4.6010 C.ar  124  TYR124     -0.0009
    105  CE1       15.0640   -5.3070   -6.8930 C.ar  124  TYR124      0.0417
    106  CE2       14.1840   -6.3610   -4.8950 C.ar  124  TYR124      0.0417
    107  CZ        13.9930   -5.5850   -6.0080 C.ar  124  TYR124      0.1957
    108  OH        12.7190   -5.0610   -6.2960 O.3   124  TYR124     -0.2866
    109  N         22.0380   -4.4450   -2.3510 N.3   126  ARG126     -0.1231
    110  CA        22.0430   -3.3080   -1.4130 C.3   126  ARG126      0.1694
    111  C         20.9720   -3.5160   -0.3560 C.2   126  ARG126      0.2592
    112  O         21.2160   -3.2640    0.8130 O.2   126  ARG126     -0.2718
    113  CB        21.8160   -1.9710   -2.1820 C.3   126  ARG126      0.0321
    114  CG        21.7470   -0.7210   -1.2070 C.3   126  ARG126      0.0489
    115  CD        21.8000    0.5740   -1.9380 C.3   126  ARG126      0.2205
    116  NE        20.8750    0.6740   -3.0810 N.pl3 126  ARG126     -0.0865
    117  CZ        19.6720    1.2510   -3.0290 C.cat 126  ARG126      0.5346
    118  NH1       19.2040    1.6660   -1.8450 N.pl3 126  ARG126      0.1354
    119  NH2       18.8980    1.3110   -4.1370 N.pl3 126  ARG126      0.1354
    120  N         19.7890   -3.9960   -0.7680 N.am  127  TYR127     -0.1976
    121  CA        18.7310   -4.2440    0.2390 C.3   127  TYR127      0.1639
    122  C         19.1420   -5.3520    1.2130 C.2   127  TYR127      0.2290
    123  O         18.8820   -5.2530    2.4220 O.2   127  TYR127     -0.2864
    124  CB        17.3670   -4.5510   -0.4390 C.3   127  TYR127      0.0560
    125  CG        16.9000   -3.5180   -1.4150 C.ar  127  TYR127     -0.0198
    126  CD1       17.1750   -2.1390   -1.2390 C.ar  127  TYR127     -0.0009
    127  CD2       16.1260   -3.8780   -2.5130 C.ar  127  TYR127     -0.0009
    128  CE1       16.7830   -1.2600   -2.1940 C.ar  127  TYR127      0.0417
    129  CE2       15.7190   -2.9660   -3.4860 C.ar  127  TYR127      0.0417
    130  CZ        16.0130   -1.6490   -3.2950 C.ar  127  TYR127      0.1957
    131  OH        15.6410   -0.7570   -4.2600 O.3   127  TYR127     -0.2866
    132  N         21.5250   -3.7960    3.6730 N.3   130  GLU130     -0.1245
    133  CA        20.8520   -3.0080    4.6950 C.3   130  GLU130      0.1567
    134  C         20.5120   -3.8090    5.9550 C.2   130  GLU130      0.2260
    135  O         20.4330   -3.2270    7.0110 O.2   130  GLU130     -0.2867
    136  CB        19.5800   -2.3500    4.1680 C.3   130  GLU130      0.0388
    137  CG        19.8000   -1.1280    3.3260 C.3   130  GLU130      0.1160
    138  CD        18.5560   -0.7000    2.5390 C.2   130  GLU130      0.3649
    139  OE1       17.5280   -1.4120    2.5630 O.co2 130  GLU130     -0.2457
    140  OE2       18.5860    0.3730    1.8850 O.co2 130  GLU130     -0.2457
    141  N         19.2100    6.9070  -13.4100 N.3   168  GLY168     -0.1225
    142  CA        18.7380    6.1560  -12.2580 C.3   168  GLY168      0.1811
    143  C         19.8550    5.3210  -11.6620 C.2   168  GLY168      0.2280
    144  O         19.9430    5.1510  -10.4540 O.2   168  GLY168     -0.2866
    145  N         21.8840    7.6760   -9.5390 N.3   171  LEU171     -0.1231
    146  CA        21.1350    7.9970   -8.3100 C.3   171  LEU171      0.1693
    147  C         21.3410    6.8370   -7.2960 C.2   171  LEU171      0.2592
    148  O         21.7100    7.0540   -6.1550 O.2   171  LEU171     -0.2718
    149  CB        19.6280    8.1700   -8.6150 C.3   171  LEU171      0.0284
    150  CG        18.7460    8.5780   -7.4610 C.3   171  LEU171      0.0019
    151  CD1       19.0600   10.1090   -7.2140 C.3   171  LEU171      0.0001
    152  CD2       17.2440    8.3910   -7.8250 C.3   171  LEU171      0.0001
    153  N         21.0340    5.6100   -7.7010 N.am  172  ASN172     -0.1974
    154  CA        21.1000    4.5360   -6.7280 C.3   172  ASN172      0.1688
    155  C         22.5620    4.1390   -6.2990 C.2   172  ASN172      0.2292
    156  O         22.8130    3.8500   -5.1680 O.2   172  ASN172     -0.2864
    157  CB        20.3890    3.3130   -7.2800 C.3   172  ASN172      0.1181
    158  CG        18.8640    3.5060   -7.2570 C.2   172  ASN172      0.2629
    159  OD1       18.3800    4.6610   -7.2270 O.2   172  ASN172     -0.2716
    160  ND2       18.1320    2.4150   -7.3830 N.am  172  ASN172     -0.0877
    161  N         23.6310    6.5860   -3.7630 N.3   175  VAL175     -0.1245
    162  CA        23.0720    6.2530   -2.4890 C.3   175  VAL175      0.1561
    163  C         23.7970    5.0670   -1.8360 C.2   175  VAL175      0.2260
    164  O         23.9790    5.0010   -0.6250 O.2   175  VAL175     -0.2867
    165  CB        21.5110    5.9500   -2.6780 C.3   175  VAL175      0.0252
    166  CG1       20.9150    5.2930   -1.4400 C.3   175  VAL175      0.0019
    167  CG2       20.8140    7.2820   -2.9310 C.3   175  VAL175      0.0019
    168  N         25.0950    5.3710    1.9130 N.3   179  GLU179     -0.1245
    169  CA        24.4460    4.6910    3.0140 C.3   179  GLU179      0.1567
    170  C         25.1050    3.4230    3.3270 C.2   179  GLU179      0.2260
    171  O         25.0440    3.0150    4.4680 O.2   179  GLU179     -0.2867
    172  CB        22.9310    4.3390    2.7120 C.3   179  GLU179      0.0388
    173  CG        22.2040    5.5630    2.3600 C.3   179  GLU179      0.1160
    174  CD        20.6900    5.4100    2.5230 C.2   179  GLU179      0.3649
    175  OE1       20.0820    6.4650    2.8130 O.co2 179  GLU179     -0.2457
    176  OE2       20.1530    4.2720    2.2980 O.co2 179  GLU179     -0.2457
    177  N         12.9730   14.2930  -14.2760 N.3   215  LEU215     -0.1231
    178  CA        12.6510   14.0010  -12.8930 C.3   215  LEU215      0.1693
    179  C         13.9010   13.4360  -12.1470 C.2   215  LEU215      0.2591
    180  O         14.1840   13.8270  -10.9770 O.2   215  LEU215     -0.2718
    181  CB        11.4960   12.9610  -12.8120 C.3   215  LEU215      0.0284
    182  CG        11.2900   12.2220  -11.4930 C.3   215  LEU215      0.0019
    183  CD1       11.0890   13.1050  -10.2840 C.3   215  LEU215      0.0001
    184  CD2       10.1080   11.2470  -11.6250 C.3   215  LEU215      0.0001
    185  N         14.5880   12.4690  -12.7630 N.am  216  ILE216     -0.1980
    186  CA        15.7440   11.8870  -12.0270 C.3   216  ILE216      0.1595
    187  C         16.8290   12.9500  -11.8010 C.2   216  ILE216      0.2287
    188  O         17.4840   12.9380  -10.7940 O.2   216  ILE216     -0.2864
    189  CB        16.3080   10.6190  -12.7000 C.3   216  ILE216      0.0276
    190  CG1       15.1640    9.5920  -12.8720 C.3   216  ILE216      0.0022
    191  CG2       17.4520   10.0520  -11.8750 C.3   216  ILE216      0.0022
    192  CD1       15.4190    8.6150  -13.9820 C.3   216  ILE216      0.0001
    193  N         15.9850   14.5770   -8.7200 N.3   219  LEU219     -0.1245
    194  CA        16.2330   13.7630   -7.5080 C.3   219  LEU219      0.1561
    195  C         17.6940   13.6830   -7.1790 C.2   219  LEU219      0.2260
    196  O         18.0680   13.6050   -6.0280 O.2   219  LEU219     -0.2867
    197  CB        15.7440   12.3150   -7.7550 C.3   219  LEU219      0.0270
    198  CG        14.2110   12.1750   -7.9890 C.3   219  LEU219      0.0019
    199  CD1       13.8490   10.7310   -8.0910 C.3   219  LEU219      0.0001
    200  CD2       13.3270   12.7940   -6.8600 C.3   219  LEU219      0.0001
    201  N         18.4430   16.8220   -5.4990 N.3   222  ASP222     -0.1225
    202  CA        17.8510   16.8210   -4.1300 C.3   222  ASP222      0.1805
    203  C         18.6980   16.0210   -3.1640 C.2   222  ASP222      0.2597
    204  O         18.8760   16.4330   -2.0160 O.2   222  ASP222     -0.2718
    205  CB        16.4340   16.2470   -4.0950 C.3   222  ASP222      0.1424
    206  CG        15.4230   17.1380   -4.7980 C.2   222  ASP222      0.3668
    207  OD1       15.7140   18.3330   -5.0030 O.co2 222  ASP222     -0.2456
    208  OD2       14.3050   16.6450   -5.1330 O.co2 222  ASP222     -0.2456
    209  N         19.2590   14.9000   -3.6180 N.am  223  ASN223     -0.1974
    210  CA        20.1410   14.1510   -2.7600 C.3   223  ASN223      0.1688
    211  C         21.4120   14.9870   -2.4680 C.2   223  ASN223      0.2292
    212  O         21.9200   15.0060   -1.3400 O.2   223  ASN223     -0.2864
    213  CB        20.5780   12.8350   -3.4500 C.3   223  ASN223      0.1181
    214  CG        19.5340   11.7290   -3.2650 C.2   223  ASN223      0.2629
    215  OD1       18.4660   11.9540   -2.6520 O.2   223  ASN223     -0.2716
    216  ND2       19.8000   10.5690   -3.8210 N.am  223  ASN223     -0.0877
    217  N         20.4990   17.5650    0.0750 N.3   226  LEU226     -0.1231
    218  CA        20.3300   16.9260    1.3830 C.3   226  LEU226      0.1693
    219  C         21.6760   16.6100    2.0030 C.2   226  LEU226      0.2592
    220  O         21.8830   16.8440    3.1920 O.2   226  LEU226     -0.2718
    221  CB        19.5050   15.6260    1.2790 C.3   226  LEU226      0.0284
    222  CG        19.2810   14.7680    2.5510 C.3   226  LEU226      0.0019
    223  CD1       18.4170   15.4610    3.6490 C.3   226  LEU226      0.0001
    224  CD2       18.6070   13.4490    2.1200 C.3   226  LEU226      0.0001
    225  N         22.5890   16.0750    1.1930 N.am  227  TRP227     -0.1976
    226  CA        23.9010   15.6340    1.6450 C.3   227  TRP227      0.1640
    227  C         24.9460   16.7620    1.8490 C.2   227  TRP227      0.2290
    228  O         25.8760   16.5560    2.6040 O.2   227  TRP227     -0.2864
    229  CB        24.4830   14.6340    0.6520 C.3   227  TRP227      0.0576
    230  CG        23.6960   13.3310    0.5430 C.ar  227  TRP227      0.0006
    231  CD1       22.8600   12.8150    1.4650 C.ar  227  TRP227      0.0946
    232  CD2       23.7080   12.4080   -0.5480 C.ar  227  TRP227      0.0152
    233  NE1       22.3810   11.6050    1.0550 N.ar  227  TRP227     -0.2442
    234  CE2       22.8680   11.3330   -0.1890 C.ar  227  TRP227      0.0810
    235  CE3       24.3490   12.3780   -1.7760 C.ar  227  TRP227      0.0012
    236  CZ2       22.6540   10.2300   -1.0220 C.ar  227  TRP227      0.0191
    237  CZ3       24.1180   11.2860   -2.6160 C.ar  227  TRP227      0.0001
    238  CH2       23.2900   10.2380   -2.2260 C.ar  227  TRP227      0.0015
@<TRIPOS>BOND
     1   177   178    1
     2   192   190    1
     3   141   142    1
     4   178   181    1
     5   178   179    1
     6   190   189    1
     7   181   182    1
     8   185   179   am
     9   185   186    1
    10   189   186    1
    11   189   191    1
    12    80    81    1
    13    13    14    1
    14    17    14    1
    15    17    18    1
    16    84    81    1
    17    84    85    1
    18   142   143    1
    19   179   180    2
    20   186   187    1
    21    86    85    1
    22    86    87    1
    23   187   188    2
    24    25    23    1
    25   143   144    2
    26   184   182    1
    27    81    82    1
    28    14    15    1
    29   182   183    1
    30    19    15   am
    31    19    20    1
    32    23    20    1
    33    23    24    1
    34    87    88    1
    35    82    83    2
    36    15    16    2
    37    20    21    1
    38   145   146    1
    39    21    22    2
    40   193   194    1
    41   149   146    1
    42   149   150    1
    43    96    94   ar
    44   146   147    1
    45   199   198    1
    46   198   197    1
    47   198   200    1
    48   152   150    1
    49   197   194    1
    50   153   147   am
    51   153   154    1
    52   194   195    1
    53     9     7   ar
    54     9    11   ar
    55   150   151    1
    56   160   158   am
    57    94    95   ar
    58    94    93    1
    59   147   148    2
    60   157   158    1
    61   157   154    1
    62   158   159    2
    63   195   196    2
    64     7     6   ar
    65    12    11    1
    66   105   103   ar
    67   105   107   ar
    68   154   155    1
    69    89    90    1
    70    93    90    1
    71    26    27    1
    72   103   102   ar
    73    11    10   ar
    74    30    27    1
    75    30    31    1
    76     4     3    2
    77    41    40    2
    78   155   156    2
    79   108   107    1
    80   107   106   ar
    81     2     3    1
    82     2     1    1
    83     2     5    1
    84    90    91    1
    85    27    28    1
    86     6     5    1
    87     6     8   ar
    88    31    32    1
    89   201   202    1
    90   102   101    1
    91   102   104   ar
    92    97    91   am
    93    97    98    1
    94    40    39    1
    95    40    42   am
    96    10     8   ar
    97   208   206   ar
    98   101    98    1
    99    35    28   am
   100    35    36    1
   101   207   206   ar
   102   106   104   ar
   103    32    33    1
   104   206   205    1
   105    91    92    2
   106    39    36    1
   107    28    29    2
   108    98    99    1
   109   131   130    1
   110   119   117    1
   111   202   205    1
   112   202   203    1
   113    36    37    1
   114   216   214   am
   115   161   162    1
   116   209   203   am
   117   209   210    1
   118    34    33    1
   119   129   130   ar
   120   129   127   ar
   121   213   214    1
   122   213   210    1
   123    99   100    2
   124   130   128   ar
   125   214   215    2
   126   203   204    2
   127   116   117    2
   128   116   115    1
   129    37    38    2
   130   117   118    1
   131   167   165    1
   132   210   211    1
   133   165   162    1
   134   165   166    1
   135   237   238   ar
   136   237   235   ar
   137   127   125   ar
   138   162   163    1
   139   211   212    2
   140   109   110    1
   141   238   236   ar
   142   128   126   ar
   143   113   110    1
   144   113   114    1
   145   115   114    1
   146   163   164    2
   147   235   232   ar
   148   125   126   ar
   149   125   124    1
   150   110   111    1
   151   236   234   ar
   152    43    44    1
   153   120   111   am
   154   120   121    1
   155    61    60    1
   156   232   234   ar
   157   232   230   ar
   158   124   121    1
   159   111   112    2
   160    44    45    1
   161   234   233   ar
   162   217   218    1
   163   121   122    1
   164    60    62    1
   165    60    59    2
   166   230   229    1
   167   230   231   ar
   168    58    59    1
   169    58    57    1
   170   229   226    1
   171    47    45   am
   172    47    48    1
   173    45    46    2
   174   233   231   ar
   175   225   226    1
   176   225   219   am
   177   122   123    2
   178   221   218    1
   179   221   222    1
   180   218   219    1
   181   226   227    1
   182    51    48    1
   183   227   228    2
   184   140   138   ar
   185   168   169    1
   186    57    56    1
   187   219   220    2
   188    48    49    1
   189   224   222    1
   190   176   174   ar
   191   173   174    1
   192   173   172    1
   193   174   175   ar
   194   138   139   ar
   195   138   137    1
   196   222   223    1
   197    56    53    1
   198   172   169    1
   199   169   170    1
   200    49    50    2
   201   137   136    1
   202   170   171    2
   203    79    77    1
   204    52    53    1
   205    78    77    1
   206   132   133    1
   207    53    54    1
   208    77    76    2
   209   136   133    1
   210    63    54   am
   211    63    64    1
   212    67    64    1
   213    67    68    1
   214   133   134    1
   215    54    55    2
   216    64    65    1
   217    76    75    1
   218   134   135    2
   219    75    74    1
   220    65    66    2
   221    74    73    1
   222    73    70    1
   223    69    70    1
   224    70    71    1
   225    71    72    2
