@<TRIPOS>MOLECULE
tmp/5exaB01.pdb
 137 127 0 0 0
SMALL
GASTEIGER

@<TRIPOS>ATOM
      1  N          0.8570   -2.6490   13.8770 N.3    14  GLU14      -0.1245
      2  CA         0.1010   -1.5000   13.3450 C.3    14  GLU14       0.1567
      3  C          1.0560   -0.4150   12.8950 C.2    14  GLU14       0.2260
      4  O          0.9520    0.1130   11.8030 O.2    14  GLU14      -0.2867
      5  CB        -0.8650   -0.9390   14.4220 C.3    14  GLU14       0.0388
      6  CG        -1.7820    0.1750   13.8500 C.3    14  GLU14       0.1160
      7  CD        -2.6920    0.8010   14.9440 C.2    14  GLU14       0.3649
      8  OE1       -2.3820    0.6580   16.1430 O.co2  14  GLU14      -0.2457
      9  OE2       -3.6870    1.4560   14.5710 O.co2  14  GLU14      -0.2457
     10  N        -10.5370   -3.6060   21.7720 N.3    41  ARG41      -0.1231
     11  CA       -11.5480   -3.6810   20.7530 C.3    41  ARG41       0.1694
     12  C        -11.1370   -2.7960   19.6580 C.2    41  ARG41       0.2592
     13  O        -11.3320   -3.1690   18.5360 O.2    41  ARG41      -0.2718
     14  CB       -12.9900   -3.2180   21.1760 C.3    41  ARG41       0.0321
     15  CG       -13.4070   -3.3930   22.5400 C.3    41  ARG41       0.0489
     16  CD       -14.8720   -2.9180   22.6810 C.3    41  ARG41       0.2205
     17  NE       -14.9870   -1.4650   22.6740 N.pl3  41  ARG41      -0.0865
     18  CZ       -15.5150   -0.7500   23.6690 C.cat  41  ARG41       0.5346
     19  NH1      -15.9870   -1.3500   24.7550 N.pl3  41  ARG41       0.1354
     20  NH2      -15.5800    0.5650   23.5810 N.pl3  41  ARG41       0.1354
     21  N        -10.6460   -1.5730   19.9560 N.am   42  ASN42      -0.1974
     22  CA       -10.2800   -0.6230   18.8850 C.3    42  ASN42       0.1688
     23  C         -9.1970   -1.2120   17.9240 C.2    42  ASN42       0.2292
     24  O         -9.2240   -1.0220   16.7090 O.2    42  ASN42      -0.2864
     25  CB        -9.7730    0.7450   19.5050 C.3    42  ASN42       0.1181
     26  CG       -10.8740    1.5240   20.2170 C.2    42  ASN42       0.2629
     27  OD1      -12.0770    1.2520   20.0330 O.2    42  ASN42      -0.2716
     28  ND2      -10.4730    2.4110   21.1300 N.am   42  ASN42      -0.0877
     29  N        -10.7750   -3.7950   15.7060 N.3    45  SER45      -0.1202
     30  CA       -11.5650   -3.1640   14.6640 C.3    45  SER45       0.2020
     31  C        -10.6390   -2.5660   13.5760 C.2    45  SER45       0.2618
     32  O        -10.8910   -2.7230   12.3780 O.2    45  SER45      -0.2717
     33  CB       -12.4360   -2.0800   15.2980 C.3    45  SER45       0.2103
     34  OG       -12.8630   -1.1760   14.3510 O.3    45  SER45      -0.2182
     35  N         -9.5430   -1.9000   13.9830 N.am   46  VAL46      -0.1979
     36  CA        -8.6610   -1.3000   12.9500 C.3    46  VAL46       0.1595
     37  C         -7.9840   -2.3740   12.1090 C.2    46  VAL46       0.2287
     38  O         -7.8890   -2.2990   10.8770 O.2    46  VAL46      -0.2864
     39  CB        -7.5440   -0.4650   13.6860 C.3    46  VAL46       0.0276
     40  CG1       -6.3720   -0.1300   12.7170 C.3    46  VAL46       0.0022
     41  CG2       -8.1810    0.8770   14.2330 C.3    46  VAL46       0.0022
     42  N        -20.9890   -1.6430   20.2070 N.3   117  PHE117     -0.1241
     43  CA       -19.7720   -1.6600   19.3650 C.3   117  PHE117      0.1605
     44  C        -19.7840   -2.9450   18.5420 C.2   117  PHE117      0.2264
     45  O        -19.5790   -2.9240   17.3410 O.2   117  PHE117     -0.2867
     46  CB       -18.5890   -1.6950   20.2940 C.3   117  PHE117      0.0534
     47  CG       -17.2370   -1.5750   19.5780 C.ar  117  PHE117     -0.0203
     48  CD1      -16.6130   -2.6930   19.0300 C.ar  117  PHE117     -0.0042
     49  CD2      -16.5790   -0.3300   19.5310 C.ar  117  PHE117     -0.0042
     50  CE1      -15.3610   -2.5750   18.4050 C.ar  117  PHE117     -0.0003
     51  CE2      -15.2980   -0.1980   18.9160 C.ar  117  PHE117     -0.0003
     52  CZ       -14.7200   -1.2930   18.3540 C.ar  117  PHE117     -0.0000
     53  N        -22.6580   -3.2190   15.9900 N.3   120  LYS120     -0.1231
     54  CA       -22.3510   -2.3630   14.8120 C.3   120  LYS120      0.1693
     55  C        -21.3490   -3.0770   13.8870 C.2   120  LYS120      0.2591
     56  O        -21.4920   -3.0820   12.6970 O.2   120  LYS120     -0.2718
     57  CB       -21.7390   -1.0140   15.2730 C.3   120  LYS120      0.0285
     58  CG       -21.0580   -0.2650   14.1120 C.3   120  LYS120      0.0035
     59  CD       -20.4250    1.0520   14.6380 C.3   120  LYS120      0.0206
     60  CE       -19.8300    1.8030   13.4790 C.3   120  LYS120      0.1093
     61  NZ       -18.6090    1.0770   12.9240 N.3   120  LYS120     -0.1314
     62  N        -20.3110   -3.6620   14.4760 N.am  121  MET121     -0.1979
     63  CA       -19.3340   -4.4000   13.7010 C.3   121  MET121      0.1605
     64  C        -20.0180   -5.5780   12.9540 C.2   121  MET121      0.2287
     65  O        -19.7210   -5.8820   11.7920 O.2   121  MET121     -0.2864
     66  CB       -18.3190   -4.9670   14.7100 C.3   121  MET121      0.0413
     67  CG       -17.0140   -5.2990   14.1330 C.3   121  MET121      0.0598
     68  SD       -15.6870   -5.3850   15.4150 S.3   121  MET121     -0.1393
     69  CE       -14.5140   -6.1390   14.3400 C.3   121  MET121      0.0692
     70  N        -21.6580   -4.1210   10.1060 N.3   124  ASP124     -0.1239
     71  CA       -20.7210   -3.6820    9.0190 C.3   124  ASP124      0.1674
     72  C        -20.2180   -4.8970    8.1800 C.2   124  ASP124      0.2266
     73  O        -20.1250   -4.8370    6.9710 O.2   124  ASP124     -0.2867
     74  CB       -19.4580   -3.0080    9.6510 C.3   124  ASP124      0.1410
     75  CG       -19.7380   -1.6490   10.2860 C.2   124  ASP124      0.3668
     76  OD1      -20.6080   -0.8960    9.8320 O.co2 124  ASP124     -0.2456
     77  OD2      -19.1170   -1.3250   11.2960 O.co2 124  ASP124     -0.2456
     78  N        -19.1150    8.5950   20.9450 N.3   165  PRO165     -0.2102
     79  CA       -18.5980    8.2700   19.6240 C.3   165  PRO165      0.1504
     80  C        -19.1800    6.9800   19.0340 C.2   165  PRO165      0.2575
     81  O        -19.2620    6.8730   17.8330 O.2   165  PRO165     -0.2718
     82  CB       -17.0760    8.0070   19.8610 C.3   165  PRO165      0.0282
     83  CG       -16.7820    8.5360   21.1800 C.3   165  PRO165      0.0208
     84  CD       -18.0440    8.9360   21.9010 C.3   165  PRO165      0.0893
     85  N        -19.4790    5.9990   19.8750 N.am  166  ILE166     -0.1980
     86  CA       -19.9570    4.7110   19.3360 C.3   166  ILE166      0.1595
     87  C        -21.3940    4.8900   18.7970 C.2   166  ILE166      0.2287
     88  O        -21.7390    4.4060   17.7510 O.2   166  ILE166     -0.2864
     89  CB       -19.8280    3.6260   20.3590 C.3   166  ILE166      0.0276
     90  CG1      -18.3250    3.3410   20.6050 C.3   166  ILE166      0.0022
     91  CG2      -20.5320    2.2830   19.8490 C.3   166  ILE166      0.0022
     92  CD1      -18.0450    2.3930   21.7310 C.3   166  ILE166      0.0001
     93  N        -20.9580    6.7700   15.5690 N.3   169  GLY169     -0.1225
     94  CA       -20.3580    5.9390   14.5090 C.3   169  GLY169      0.1811
     95  C        -21.3930    4.9420   13.9990 C.2   169  GLY169      0.2280
     96  O        -21.4270    4.6010   12.8210 O.2   169  GLY169     -0.2866
     97  N        -11.3780   12.9180   26.7200 N.3   209  GLU209     -0.1245
     98  CA       -11.1280   11.6420   26.0460 C.3   209  GLU209      0.1567
     99  C        -11.9780   11.3620   24.7880 C.2   209  GLU209      0.2260
    100  O        -11.5640   10.5460   23.9590 O.2   209  GLU209     -0.2867
    101  CB       -11.1620   10.4210   27.0150 C.3   209  GLU209      0.0388
    102  CG       -12.4600   10.2120   27.8310 C.3   209  GLU209      0.1160
    103  CD       -12.4790   10.8680   29.2520 C.2   209  GLU209      0.3649
    104  OE1      -13.2110   10.2950   30.1300 O.co2 209  GLU209     -0.2457
    105  OE2      -11.8120   11.9420   29.4930 O.co2 209  GLU209     -0.2457
    106  N        -12.8950   12.0980   18.6240 N.3   213  ASP213     -0.1239
    107  CA       -13.6260   11.1460   17.8400 C.3   213  ASP213      0.1674
    108  C        -15.0550   11.6420   17.5830 C.2   213  ASP213      0.2266
    109  O        -15.5190   11.5400   16.4850 O.2   213  ASP213     -0.2867
    110  CB       -13.7150    9.8220   18.5540 C.3   213  ASP213      0.1410
    111  CG       -12.3370    9.2310   18.8750 C.2   213  ASP213      0.3668
    112  OD1      -12.2840    8.4410   19.8590 O.co2 213  ASP213     -0.2456
    113  OD2      -11.3520    9.5500   18.1510 O.co2 213  ASP213     -0.2456
    114  N        -15.1220   14.4590   14.9840 N.3   216  LEU216     -0.1231
    115  CA       -14.7960   13.9180   13.6550 C.3   216  LEU216      0.1693
    116  C        -15.9930   13.1960   13.0270 C.2   216  LEU216      0.2591
    117  O        -16.2980   13.3790   11.8570 O.2   216  LEU216     -0.2718
    118  CB       -13.5880   12.9410   13.7550 C.3   216  LEU216      0.0284
    119  CG       -13.2090   12.1850   12.4850 C.3   216  LEU216      0.0019
    120  CD1      -13.0530   13.1030   11.2370 C.3   216  LEU216      0.0001
    121  CD2      -11.7960   11.5990   12.8400 C.3   216  LEU216      0.0001
    122  N        -16.6480   12.3460   13.8030 N.am  217  ILE217     -0.1980
    123  CA       -17.7760   11.6030   13.2410 C.3   217  ILE217      0.1595
    124  C        -18.9230   12.5520   12.8450 C.2   217  ILE217      0.2287
    125  O        -19.5580   12.3670   11.8430 O.2   217  ILE217     -0.2864
    126  CB       -18.2550   10.4820   14.2100 C.3   217  ILE217      0.0276
    127  CG1      -17.0890    9.5490   14.5210 C.3   217  ILE217      0.0022
    128  CG2      -19.5070    9.7420   13.6390 C.3   217  ILE217      0.0022
    129  CD1      -17.2950    8.6900   15.7920 C.3   217  ILE217      0.0001
    130  N        -18.1060   13.8580    9.5290 N.3   220  LEU220     -0.1245
    131  CA       -18.3890   12.8670    8.5110 C.3   220  LEU220      0.1561
    132  C        -19.8920   12.6800    8.2750 C.2   220  LEU220      0.2260
    133  O        -20.3110   12.4160    7.1440 O.2   220  LEU220     -0.2867
    134  CB       -17.7560   11.5010    8.9520 C.3   220  LEU220      0.0270
    135  CG       -16.2050   11.5420    9.1340 C.3   220  LEU220      0.0019
    136  CD1      -15.6170   10.1680    9.5140 C.3   220  LEU220      0.0001
    137  CD2      -15.5040   12.0260    7.8780 C.3   220  LEU220      0.0001
@<TRIPOS>BOND
     1    73    72    2
     2   133   132    2
     3   137   135    1
     4    72    71    1
     5   132   131    1
     6   131   134    1
     7   131   130    1
     8   134   135    1
     9    71    74    1
    10    71    70    1
    11   135   136    1
    12    74    75    1
    13    76    75   ar
    14    75    77   ar
    15    38    37    2
    16   120   119    1
    17    65    64    2
    18     4     3    2
    19   125   124    2
    20   117   116    2
    21    37    36    1
    22    32    31    2
    23   119   121    1
    24   119   118    1
    25    56    55    2
    26    40    39    1
    27    96    95    2
    28   124   123    1
    29     3     2    1
    30    61    60    1
    31    36    39    1
    32    36    35    1
    33    64    63    1
    34   116   115    1
    35   116   122   am
    36   123   122    1
    37   123   126    1
    38     2     1    1
    39     2     5    1
    40    60    59    1
    41    31    35   am
    42    31    30    1
    43   128   126    1
    44   115   118    1
    45   115   114    1
    46    39    41    1
    47    63    62    1
    48    63    66    1
    49     6     5    1
    50     6     7    1
    51    55    62   am
    52    55    54    1
    53    95    94    1
    54    58    59    1
    55    58    57    1
    56    67    66    1
    57    67    68    1
    58   126   127    1
    59    69    68    1
    60    34    33    1
    61    94    93    1
    62   127   129    1
    63     9     7   ar
    64    30    33    1
    65    30    29    1
    66    54    57    1
    67    54    53    1
    68     7     8   ar
    69   109   108    2
    70    24    23    2
    71    45    44    2
    72   108   107    1
    73    88    87    2
    74    81    80    2
    75   107   110    1
    76   107   106    1
    77    23    22    1
    78   113   111   ar
    79    52    50   ar
    80    52    51   ar
    81    50    48   ar
    82    13    12    2
    83    44    43    1
    84   110   111    1
    85    87    86    1
    86   111   112   ar
    87    22    25    1
    88    22    21    1
    89    51    49   ar
    90    48    47   ar
    91    80    79    1
    92    80    85   am
    93    86    85    1
    94    86    89    1
    95    43    42    1
    96    43    46    1
    97    25    26    1
    98    49    47   ar
    99    47    46    1
   100    79    82    1
   101    79    78    1
   102    12    21   am
   103    12    11    1
   104    91    89    1
   105    82    83    1
   106    27    26    2
   107    26    28   am
   108    89    90    1
   109    90    92    1
   110    11    14    1
   111    11    10    1
   112    78    84    1
   113    14    15    1
   114    83    84    1
   115    15    16    1
   116    17    16    1
   117    17    18    2
   118    20    18    1
   119    18    19    1
   120   100    99    2
   121    99    98    1
   122    98    97    1
   123    98   101    1
   124   101   102    1
   125   102   103    1
   126   103   105   ar
   127   103   104   ar
