@<TRIPOS>MOLECULE
tmp/5exeC00.pdb
 134 128 0 0 0
SMALL
GASTEIGER

@<TRIPOS>ATOM
      1  N        -12.2720   10.1550   15.2170 N.3    50  THR50      -0.1203
      2  CA       -13.1310   11.3290   15.2040 C.3    50  THR50       0.1994
      3  C        -13.2150   12.0170   16.5680 C.2    50  THR50       0.2618
      4  O        -13.4370   11.3690   17.5920 O.2    50  THR50      -0.2717
      5  CB       -14.5410   10.9590   14.7520 C.3    50  THR50       0.1784
      6  OG1      -14.4570   10.1290   13.5930 O.3    50  THR50      -0.2211
      7  CG2      -15.3150   12.1990   14.4120 C.3    50  THR50       0.0376
      8  N        -13.0190   13.3330   16.5550 N.am   51  GLY51      -0.1942
      9  CA       -12.9540   14.1510   17.7570 C.3    51  GLY51       0.2014
     10  C        -12.3860   15.4970   17.3460 C.2    51  GLY51       0.2639
     11  O        -12.1260   15.6990   16.1630 O.2    51  GLY51      -0.2714
     12  N        -12.1680   16.4040   18.3010 N.am   52  CYS52      -0.1967
     13  CA       -11.6970   17.7460   17.9640 C.3    52  CYS52       0.1712
     14  C        -10.4170   17.7040   17.1430 C.2    52  CYS52       0.2296
     15  O        -10.2970   18.4100   16.1490 O.2    52  CYS52      -0.2864
     16  CB       -11.4740   18.5950   19.2300 C.3    52  CYS52       0.0983
     17  SG       -12.9510   19.4770   19.8560 S.3    52  CYS52      -0.0798
     18  N        -11.6730   16.8520   13.5670 N.3    55  VAL55      -0.1245
     19  CA       -12.5550   17.8520   12.9570 C.3    55  VAL55       0.1561
     20  C        -11.9600   19.2550   12.9660 C.2    55  VAL55       0.2260
     21  O        -11.9190   19.9200   11.9330 O.2    55  VAL55      -0.2867
     22  CB       -13.9200   17.8930   13.6640 C.3    55  VAL55       0.0252
     23  CG1      -14.7850   19.0030   13.0870 C.3    55  VAL55       0.0019
     24  CG2      -14.6100   16.5510   13.5280 C.3    55  VAL55       0.0019
     25  N        -12.5830    5.9260   12.6360 N.3    73  GLN73      -0.1231
     26  CA       -13.8340    6.0810   13.3670 C.3    73  GLN73       0.1698
     27  C        -13.4840    6.2240   14.8410 C.2    73  GLN73       0.2592
     28  O        -12.4170    5.7930   15.2660 O.2    73  GLN73      -0.2718
     29  CB       -14.7670    4.8920   13.1400 C.3    73  GLN73       0.0381
     30  CG       -15.0420    4.5950   11.6700 C.3    73  GLN73       0.0905
     31  CD       -15.4980    5.8190   10.9190 C.2    73  GLN73       0.2608
     32  OE1      -14.7170    6.4430   10.1980 O.2    73  GLN73      -0.2717
     33  NE2      -16.7690    6.1780   11.0830 N.am   73  GLN73      -0.0878
     34  N        -14.3570    6.8320   15.6340 N.am   74  ILE74      -0.1966
     35  CA       -14.0460    6.9790   17.0570 C.3    74  ILE74       0.1727
     36  C        -14.0460    5.6040   17.7430 C.2    74  ILE74       0.2616
     37  O        -13.4040    5.3930   18.7790 O.2    74  ILE74      -0.2715
     38  CB       -15.0320    7.9360   17.7510 C.3    74  ILE74       0.0290
     39  CG1      -14.4980    8.3490   19.1220 C.3    74  ILE74       0.0022
     40  CG2      -16.4210    7.3250   17.8670 C.3    74  ILE74       0.0023
     41  CD1      -15.3970    9.3340   19.8340 C.3    74  ILE74       0.0001
     42  N        -14.7390    4.6620   17.1130 N.am   75  THR75      -0.1951
     43  CA       -14.8600    3.2890   17.5890 C.3    75  THR75       0.1897
     44  C        -13.6390    2.3920   17.3600 C.2    75  THR75       0.2313
     45  O        -13.5810    1.2920   17.9040 O.2    75  THR75      -0.2863
     46  CB       -16.0370    2.6000   16.8960 C.3    75  THR75       0.1794
     47  OG1      -15.9530    2.8670   15.4940 O.3    75  THR75      -0.2208
     48  CG2      -17.3570    3.1310   17.3990 C.3    75  THR75       0.0378
     49  N         -9.1400   11.0400   21.3800 N.3   109  GLY109     -0.1210
     50  CA        -9.6920   11.8040   22.4860 C.3   109  GLY109      0.1956
     51  C        -10.0840   10.8700   23.6220 C.2   109  GLY109      0.2612
     52  O         -9.9840    9.6450   23.4750 O.2   109  GLY109     -0.2717
     53  N        -10.5320   11.4190   24.7530 N.am  110  ASP110     -0.1959
     54  CA       -10.8600   10.5590   25.8910 C.3   110  ASP110      0.1840
     55  C        -12.0240    9.6190   25.5530 C.2   110  ASP110      0.2623
     56  O        -12.0050    8.4440   25.9210 O.2   110  ASP110     -0.2715
     57  CB       -11.1550   11.3900   27.1510 C.3   110  ASP110      0.1450
     58  CG       -12.0280   12.6050   26.8800 C.2   110  ASP110      0.3671
     59  OD1      -11.5650   13.5530   26.2060 O.co2 110  ASP110     -0.2456
     60  OD2      -13.1770   12.6240   27.3620 O.co2 110  ASP110     -0.2456
     61  N        -13.0170   10.1210   24.8260 N.am  111  GLY111     -0.1940
     62  CA       -14.0870    9.2660   24.3350 C.3   111  GLY111      0.2014
     63  C        -13.5440    8.1090   23.5030 C.2   111  GLY111      0.2639
     64  O        -13.8770    6.9470   23.7290 O.2   111  GLY111     -0.2714
     65  N        -12.6690    8.4260   22.5570 N.am  112  GLY112     -0.1954
     66  CA       -12.1270    7.4210   21.6600 C.3   112  GLY112      0.1869
     67  C        -11.0140    6.5710   22.2480 C.2   112  GLY112      0.2309
     68  O        -10.4330    5.7550   21.5440 O.2   112  GLY112     -0.2863
     69  N        -15.7350    4.6520   24.0150 N.3   116  ILE116     -0.1245
     70  CA       -16.1870    3.9540   22.8150 C.3   116  ILE116      0.1561
     71  C        -15.0070    3.3360   22.0440 C.2   116  ILE116      0.2260
     72  O        -15.2000    2.4930   21.1700 O.2   116  ILE116     -0.2867
     73  CB       -16.9950    4.9150   21.8920 C.3   116  ILE116      0.0252
     74  CG1      -17.8800    4.1490   20.9050 C.3   116  ILE116      0.0019
     75  CG2      -16.0680    5.9010   21.1780 C.3   116  ILE116      0.0019
     76  CD1      -18.7660    5.0670   20.0460 C.3   116  ILE116      0.0001
     77  N         -5.4220   12.0630   24.2110 N.3   136  TYR136     -0.1241
     78  CA        -5.3800   13.4690   24.6060 C.3   136  TYR136      0.1605
     79  C         -6.6870   13.7420   25.3580 C.2   136  TYR136      0.2264
     80  O         -7.7770   13.6240   24.8130 O.2   136  TYR136     -0.2867
     81  CB        -5.1630   14.4050   23.3960 C.3   136  TYR136      0.0534
     82  CG        -6.3190   14.5190   22.4280 C.ar  136  TYR136     -0.0201
     83  CD1       -7.2730   15.5060   22.5870 C.ar  136  TYR136     -0.0009
     84  CD2       -6.4450   13.6530   21.3460 C.ar  136  TYR136     -0.0009
     85  CE1       -8.3330   15.6120   21.7310 C.ar  136  TYR136      0.0417
     86  CE2       -7.5060   13.7610   20.4720 C.ar  136  TYR136      0.0417
     87  CZ        -8.4470   14.7450   20.6770 C.ar  136  TYR136      0.1957
     88  OH        -9.5110   14.8890   19.8280 O.3   136  TYR136     -0.2866
     89  N         -9.2860   15.8750   27.2220 N.3   138  ASN138     -0.1240
     90  CA        -9.8910   17.1680   27.5500 C.3   138  ASN138      0.1653
     91  C        -11.1640   17.0060   28.3910 C.2   138  ASN138      0.2266
     92  O        -11.9500   17.9420   28.5260 O.2   138  ASN138     -0.2867
     93  CB       -10.1940   17.9740   26.2830 C.3   138  ASN138      0.1155
     94  CG       -11.1050   17.2430   25.3240 C.2   138  ASN138      0.2627
     95  OD1      -11.7940   16.2890   25.7010 O.2   138  ASN138     -0.2716
     96  ND2      -11.1190   17.6860   24.0700 N.am  138  ASN138     -0.0877
     97  N        -14.0770   15.6280   28.2360 N.3   140  SER140     -0.1202
     98  CA       -15.4560   15.5820   27.7300 C.3   140  SER140      0.2020
     99  C        -15.4810   15.1030   26.2810 C.2   140  SER140      0.2619
    100  O        -14.4530   15.0490   25.6180 O.2   140  SER140     -0.2717
    101  CB       -16.1290   16.9560   27.7970 C.3   140  SER140      0.2103
    102  OG       -15.8290   17.7000   26.6230 O.3   140  SER140     -0.2182
    103  N        -16.6650   14.7700   25.7880 N.am  141  TYR141     -0.1961
    104  CA       -16.8850   14.7480   24.3500 C.3   141  TYR141      0.1771
    105  C        -16.9610   16.2050   23.8880 C.2   141  TYR141      0.2619
    106  O        -18.0050   16.8510   24.0080 O.2   141  TYR141     -0.2715
    107  CB       -18.1570   13.9680   24.0090 C.3   141  TYR141      0.0574
    108  CG       -17.9740   12.4780   24.1300 C.ar  141  TYR141     -0.0198
    109  CD1      -17.4490   11.7450   23.0770 C.ar  141  TYR141     -0.0009
    110  CD2      -18.2990   11.8050   25.2980 C.ar  141  TYR141     -0.0009
    111  CE1      -17.2650   10.3870   23.1660 C.ar  141  TYR141      0.0417
    112  CE2      -18.1170   10.4240   25.4010 C.ar  141  TYR141      0.0417
    113  CZ       -17.5980    9.7270   24.3240 C.ar  141  TYR141      0.1957
    114  OH       -17.4040    8.3650   24.3910 O.3   141  TYR141     -0.2866
    115  N        -15.8460   16.7450   23.4000 N.am  142  ALA142     -0.1963
    116  CA       -15.7660   18.1880   23.1900 C.3   142  ALA142      0.1728
    117  C        -16.3470   18.6350   21.8500 C.2   142  ALA142      0.2616
    118  O        -17.1470   19.5680   21.8080 O.2   142  ALA142     -0.2715
    119  CB       -14.3270   18.6650   23.3180 C.3   142  ALA142      0.0334
    120  N        -15.9520   17.9840   20.7580 N.am  143  ASN143     -0.1958
    121  CA       -16.3690   18.4560   19.4400 C.3   143  ASN143      0.1819
    122  C        -17.8840   18.4580   19.2780 C.2   143  ASN143      0.2621
    123  O        -18.4280   19.2510   18.5130 O.2   143  ASN143     -0.2715
    124  CB       -15.7390   17.6270   18.3250 C.3   143  ASN143      0.1195
    125  CG       -15.8350   18.3220   16.9680 C.2   143  ASN143      0.2630
    126  OD1      -15.0760   19.2490   16.6740 O.2   143  ASN143     -0.2716
    127  ND2      -16.7780   17.8850   16.1450 N.am  143  ASN143     -0.0877
    128  N        -18.5590   17.5810   20.0150 N.am  144  THR144     -0.1951
    129  CA       -20.0110   17.4940   19.9440 C.3   144  THR144      0.1897
    130  C        -20.7200   18.5420   20.8100 C.2   144  THR144      0.2313
    131  O        -21.9510   18.6170   20.8060 O.2   144  THR144     -0.2863
    132  CB       -20.5020   16.0840   20.3480 C.3   144  THR144      0.1794
    133  OG1      -19.7270   15.6010   21.4490 O.3   144  THR144     -0.2208
    134  CG2      -20.3410   15.1160   19.1830 C.3   144  THR144      0.0378
@<TRIPOS>BOND
     1    32    31    2
     2    31    33   am
     3    31    30    1
     4    30    29    1
     5    21    20    2
     6    25    26    1
     7    19    20    1
     8    19    18    1
     9    19    22    1
    10    23    22    1
    11    29    26    1
    12    26    27    1
    13    24    22    1
    14     6     5    1
    15     7     5    1
    16     5     2    1
    17    27    28    2
    18    27    34   am
    19     2     1    1
    20     2     3    1
    21    47    46    1
    22    34    35    1
    23   127   125   am
    24    15    14    2
    25    11    10    2
    26     8     3   am
    27     8     9    1
    28     3     4    2
    29   126   125    2
    30    46    48    1
    31    46    43    1
    32   125   124    1
    33    35    36    1
    34    35    38    1
    35    42    43    1
    36    42    36   am
    37    14    13    1
    38    10     9    1
    39    10    12   am
    40    44    43    1
    41    44    45    2
    42    36    37    2
    43    38    40    1
    44    38    39    1
    45    13    12    1
    46    13    16    1
    47   124   121    1
    48   123   122    2
    49    39    41    1
    50   134   132    1
    51    16    17    1
    52   122   121    1
    53   122   128   am
    54   121   120    1
    55    88    87    1
    56   129   128    1
    57   129   132    1
    58   129   130    1
    59    76    74    1
    60   132   133    1
    61    86    87   ar
    62    86    84   ar
    63    87    85   ar
    64   120   117   am
    65   131   130    2
    66    74    73    1
    67    72    71    2
    68    75    73    1
    69    84    82   ar
    70    49    50    1
    71    68    67    2
    72    66    67    1
    73    66    65    1
    74    85    83   ar
    75   118   117    2
    76   117   116    1
    77    73    70    1
    78    71    70    1
    79    82    83   ar
    80    82    81    1
    81    50    51    1
    82    65    63   am
    83    70    69    1
    84   109   111   ar
    85   109   108   ar
    86   111   113   ar
    87   116   119    1
    88   116   115    1
    89    81    78    1
    90   115   105   am
    91    52    51    2
    92    63    64    2
    93    63    62    1
    94    51    53   am
    95   105   106    2
    96   105   104    1
    97   107   108    1
    98   107   104    1
    99    96    94   am
   100   108   110   ar
   101    77    78    1
   102   113   114    1
   103   113   112   ar
   104    62    61    1
   105   104   103    1
   106    78    79    1
   107    53    54    1
   108    80    79    2
   109    61    55   am
   110   110   112   ar
   111    94    95    2
   112    94    93    1
   113    55    54    1
   114    55    56    2
   115   100    99    2
   116   103    99   am
   117    54    57    1
   118    59    58   ar
   119    99    98    1
   120    93    90    1
   121   102   101    1
   122    58    57    1
   123    58    60   ar
   124    89    90    1
   125    90    91    1
   126    98   101    1
   127    98    97    1
   128    91    92    2
