@<TRIPOS>MOLECULE
tmp/5exeD00.pdb
 97 93 0 0 0
SMALL
GASTEIGER

@<TRIPOS>ATOM
      1  N        -11.9900  -13.7140   12.7150 N.3    27  TYR27      -0.1228
      2  CA       -12.9340  -13.7780   13.8290 C.3    27  TYR27       0.1721
      3  C        -13.9110  -14.9140   13.5280 C.2    27  TYR27       0.2437
      4  O        -14.1150  -15.2340   12.3620 O.2    27  TYR27      -0.2733
      5  CB       -13.6730  -12.4520   14.0300 C.3    27  TYR27       0.0547
      6  CG       -14.2870  -12.3670   15.4020 C.ar   27  TYR27      -0.0200
      7  CD1      -13.4930  -12.1740   16.5220 C.ar   27  TYR27      -0.0009
      8  CD2      -15.6500  -12.5300   15.5850 C.ar   27  TYR27      -0.0009
      9  CE1      -14.0400  -12.1190   17.7780 C.ar   27  TYR27       0.0417
     10  CE2      -16.2070  -12.4770   16.8430 C.ar   27  TYR27       0.0417
     11  CZ       -15.3960  -12.2720   17.9330 C.ar   27  TYR27       0.1957
     12  OH       -15.9470  -12.2160   19.1870 O.3    27  TYR27      -0.2866
     13  N        -14.4890  -15.5600   14.5640 N.am   28  PRO28      -0.2718
     14  CA       -15.3310  -16.7000   14.1910 C.3    28  PRO28       0.1535
     15  C        -16.8380  -16.4420   14.2130 C.2    28  PRO28       0.2598
     16  O        -17.3620  -15.8460   15.1500 O.2    28  PRO28      -0.2715
     17  CB       -14.9560  -17.7500   15.2400 C.3    28  PRO28       0.0310
     18  CG       -14.6410  -16.9380   16.4660 C.3    28  PRO28       0.0237
     19  CD       -14.1000  -15.6070   15.9860 C.3    28  PRO28       0.0939
     20  N        -17.5130  -16.8890   13.1570 N.am   29  ILE29      -0.1964
     21  CA       -18.9570  -17.0170   13.1470 C.3    29  ILE29       0.1727
     22  C        -19.3520  -17.9620   12.0230 C.2    29  ILE29       0.2616
     23  O        -18.9420  -17.8260   10.8700 O.2    29  ILE29      -0.2715
     24  CB       -19.6900  -15.6600   12.9960 C.3    29  ILE29       0.0290
     25  CG1      -21.2000  -15.8970   12.8700 C.3    29  ILE29       0.0022
     26  CG2      -19.1420  -14.8540   11.8060 C.3    29  ILE29       0.0023
     27  CD1      -22.0520  -14.7130   13.2950 C.3    29  ILE29       0.0001
     28  N        -20.1210  -18.9660   12.3910 N.am   30  ARG30      -0.1977
     29  CA       -20.6600  -19.9500   11.4620 C.3    30  ARG30       0.1597
     30  C        -21.5720  -19.2680   10.4500 C.2    30  ARG30       0.2287
     31  O        -22.3450  -18.3940   10.8300 O.2    30  ARG30      -0.2864
     32  CB       -21.4200  -21.0170   12.2560 C.3    30  ARG30       0.0334
     33  CG       -22.1400  -22.0610   11.4450 C.3    30  ARG30       0.0492
     34  CD       -22.6970  -23.1720   12.3350 C.3    30  ARG30       0.2205
     35  NE       -22.3970  -22.9660   13.7490 N.pl3  30  ARG30      -0.0865
     36  CZ       -21.4030  -23.5610   14.4020 C.cat  30  ARG30       0.5346
     37  NH1      -20.6010  -24.4100   13.7700 N.pl3  30  ARG30       0.1354
     38  NH2      -21.2160  -23.3040   15.6910 N.pl3  30  ARG30       0.1354
     39  N        -16.0170   -8.2410   14.5950 N.3    58  GLU58      -0.1245
     40  CA       -16.1960   -7.9430   13.1760 C.3    58  GLU58       0.1567
     41  C        -16.0090   -6.4770   12.8500 C.2    58  GLU58       0.2260
     42  O        -15.4990   -6.1360   11.7830 O.2    58  GLU58      -0.2867
     43  CB       -17.5800   -8.3880   12.7090 C.3    58  GLU58       0.0388
     44  CG       -17.7340   -9.8880   12.6650 C.3    58  GLU58       0.1160
     45  CD       -18.2400  -10.4740   13.9680 C.2    58  GLU58       0.3649
     46  OE1      -18.3150   -9.7530   14.9900 O.co2  58  GLU58      -0.2457
     47  OE2      -18.5810  -11.6710   13.9550 O.co2  58  GLU58      -0.2457
     48  N        -24.9470  -11.7150   12.0960 N.3    82  VAL82      -0.1231
     49  CA       -24.8630  -10.5300   12.9360 C.3    82  VAL82       0.1692
     50  C        -23.4500   -9.9820   12.9840 C.2    82  VAL82       0.2592
     51  O        -23.2300   -8.8750   13.4660 O.2    82  VAL82      -0.2718
     52  CB       -25.3490  -10.7980   14.3830 C.3    82  VAL82       0.0266
     53  CG1      -26.8550  -11.0670   14.3870 C.3    82  VAL82       0.0020
     54  CG2      -24.5740  -11.9530   15.0370 C.3    82  VAL82       0.0020
     55  N        -22.4940  -10.7590   12.4840 N.am   83  GLY83      -0.1957
     56  CA       -21.1470  -10.2550   12.3050 C.3    83  GLY83       0.1869
     57  C        -21.1220   -9.2080   11.2060 C.2    83  GLY83       0.2309
     58  O        -20.3940   -8.2130   11.2850 O.2    83  GLY83      -0.2863
     59  N        -22.7260   -6.1520   12.7500 N.3    86  TYR86      -0.1241
     60  CA       -21.8740   -5.5520   13.7780 C.3    86  TYR86       0.1605
     61  C        -20.7760   -4.6850   13.1460 C.2    86  TYR86       0.2264
     62  O        -20.3770   -3.6700   13.7180 O.2    86  TYR86      -0.2867
     63  CB       -21.2570   -6.6280   14.6910 C.3    86  TYR86       0.0534
     64  CG       -20.2580   -6.0860   15.7020 C.ar   86  TYR86      -0.0201
     65  CD1      -20.5330   -4.9360   16.4320 C.ar   86  TYR86      -0.0009
     66  CD2      -19.0500   -6.7350   15.9350 C.ar   86  TYR86      -0.0009
     67  CE1      -19.6270   -4.4300   17.3480 C.ar   86  TYR86       0.0417
     68  CE2      -18.1370   -6.2390   16.8540 C.ar   86  TYR86       0.0417
     69  CZ       -18.4340   -5.0820   17.5540 C.ar   86  TYR86       0.1957
     70  OH       -17.5410   -4.5690   18.4660 O.3    86  TYR86      -0.2866
     71  N        -25.5470  -15.9390    6.9030 N.3   108  ARG108     -0.1245
     72  CA       -26.1430  -16.4560    8.1200 C.3   108  ARG108      0.1563
     73  C        -27.2920  -15.5190    8.4710 C.2   108  ARG108      0.2260
     74  O        -27.1870  -14.3120    8.2690 O.2   108  ARG108     -0.2867
     75  CB       -25.1010  -16.5370    9.2400 C.3   108  ARG108      0.0307
     76  CG       -25.4700  -17.4150   10.4270 C.3   108  ARG108      0.0489
     77  CD       -26.2110  -16.6070   11.4620 C.3   108  ARG108      0.2205
     78  NE       -25.8130  -16.9030   12.8280 N.pl3 108  ARG108     -0.0865
     79  CZ       -26.1740  -16.1760   13.8800 C.cat 108  ARG108      0.5346
     80  NH1      -26.9360  -15.0960   13.7190 N.pl3 108  ARG108      0.1354
     81  NH2      -25.7620  -16.5230   15.0930 N.pl3 108  ARG108      0.1354
     82  N        -30.1130  -12.2850   14.0900 N.3   111  ASP111     -0.1239
     83  CA       -30.7970  -12.6950   15.3130 C.3   111  ASP111      0.1674
     84  C        -32.0750  -11.8840   15.4580 C.2   111  ASP111      0.2266
     85  O        -32.0090  -10.6600   15.5510 O.2   111  ASP111     -0.2867
     86  CB       -29.9190  -12.4750   16.5540 C.3   111  ASP111      0.1410
     87  CG       -28.6840  -13.3470   16.5730 C.2   111  ASP111      0.3668
     88  OD1      -28.6490  -14.3570   15.8360 O.co2 111  ASP111     -0.2456
     89  OD2      -27.7510  -13.0240   17.3440 O.co2 111  ASP111     -0.2456
     90  N        -28.5290  -18.8370   14.8040 N.3   115  ASP115     -0.1239
     91  CA       -27.2670  -19.4130   14.3330 C.3   115  ASP115      0.1674
     92  C        -27.3610  -20.6000   13.3580 C.2   115  ASP115      0.2266
     93  O        -26.3340  -21.0680   12.8670 O.2   115  ASP115     -0.2867
     94  CB       -26.4230  -19.8310   15.5480 C.3   115  ASP115      0.1410
     95  CG       -24.9330  -19.9010   15.2370 C.2   115  ASP115      0.3668
     96  OD1      -24.2220  -20.7050   15.8800 O.co2 115  ASP115     -0.2456
     97  OD2      -24.4670  -19.1490   14.3550 O.co2 115  ASP115     -0.2456
@<TRIPOS>BOND
     1    71    72    1
     2    72    73    1
     3    72    75    1
     4    74    73    2
     5    75    76    1
     6    76    77    1
     7    30    31    2
     8    30    29    1
     9    23    22    2
    10    57    58    2
    11    57    56    1
    12    33    32    1
    13    33    34    1
    14    77    78    1
    15    29    32    1
    16    29    28    1
    17    42    41    2
    18    26    24    1
    19    22    28   am
    20    22    21    1
    21    48    49    1
    22    56    55    1
    23    34    35    1
    24     4     3    2
    25    55    50   am
    26    44    43    1
    27    44    45    1
    28    43    40    1
    29     1     2    1
    30    59    60    1
    31    78    79    2
    32    41    40    1
    33    93    92    2
    34    25    24    1
    35    25    27    1
    36    49    50    1
    37    49    52    1
    38    50    51    2
    39    24    21    1
    40    61    62    2
    41    61    60    1
    42    21    20    1
    43    20    15   am
    44    40    39    1
    45    92    91    1
    46     3     2    1
    47     3    13   am
    48    80    79    1
    49    35    36    2
    50    37    36    1
    51    60    63    1
    52     2     5    1
    53    79    81    1
    54    47    45   ar
    55    45    46   ar
    56     5     6    1
    57    82    83    1
    58    14    15    1
    59    14    13    1
    60    14    17    1
    61    15    16    2
    62    91    90    1
    63    91    94    1
    64    97    95   ar
    65    52    53    1
    66    52    54    1
    67    36    38    1
    68    13    19    1
    69    63    64    1
    70    95    94    1
    71    95    96   ar
    72    17    18    1
    73    83    84    1
    74    83    86    1
    75     6     8   ar
    76     6     7   ar
    77    84    85    2
    78     8    10   ar
    79    64    66   ar
    80    64    65   ar
    81    88    87   ar
    82    66    68   ar
    83    19    18    1
    84    65    67   ar
    85     7     9   ar
    86    86    87    1
    87    87    89   ar
    88    10    11   ar
    89    68    69   ar
    90    67    69   ar
    91    69    70    1
    92     9    11   ar
    93    11    12    1
