@<TRIPOS>MOLECULE
tmp/5exfC00.pdb
 190 188 0 0 0
SMALL
GASTEIGER

@<TRIPOS>ATOM
      1  N         63.8920   40.4800   70.0650 N.3   150  ILE150     -0.1231
      2  CA        65.3050   40.2320   70.3160 C.3   150  ILE150      0.1692
      3  C         66.0400   41.5750   70.2440 C.2   150  ILE150      0.2593
      4  O         65.9940   42.2590   69.2230 O.2   150  ILE150     -0.2718
      5  CB        65.8660   39.2030   69.3040 C.3   150  ILE150      0.0266
      6  CG1       65.0650   37.9010   69.3960 C.3   150  ILE150      0.0019
      7  CG2       67.3610   38.9460   69.5360 C.3   150  ILE150      0.0020
      8  CD1       65.4840   36.8320   68.3950 C.3   150  ILE150      0.0001
      9  N         66.6950   41.9500   71.3390 N.am  151  THR151     -0.1940
     10  CA        67.1550   43.3200   71.5410 C.3   151  THR151      0.2013
     11  C         68.6650   43.4450   71.8710 C.2   151  THR151      0.2484
     12  O         69.3080   42.4480   72.2120 O.2   151  THR151     -0.2729
     13  CB        66.3310   43.9500   72.6650 C.3   151  THR151      0.1807
     14  OG1       66.4500   43.1370   73.8380 O.3   151  THR151     -0.2208
     15  CG2       64.8720   44.0220   72.2520 C.3   151  THR151      0.0379
     16  N         69.2350   44.6690   71.7590 N.am  152  PRO152     -0.2715
     17  CA        70.6650   44.8800   72.0490 C.3   152  PRO152      0.1536
     18  C         70.9600   45.4840   73.4310 C.2   152  PRO152      0.2598
     19  O         70.0550   45.7100   74.2420 O.2   152  PRO152     -0.2715
     20  CB        71.0850   45.8480   70.9440 C.3   152  PRO152      0.0310
     21  CG        69.8590   46.7330   70.7710 C.3   152  PRO152      0.0237
     22  CD        68.6510   45.8310   71.0570 C.3   152  PRO152      0.0939
     23  N         72.2310   45.7630   73.6900 N.am  153  TRP153     -0.1974
     24  CA        72.6720   46.1740   75.0240 C.3   153  TRP153      0.1640
     25  C         72.8300   47.7020   75.1920 C.2   153  TRP153      0.2290
     26  O         73.0160   48.1800   76.3110 O.2   153  TRP153     -0.2864
     27  CB        74.0090   45.4560   75.3690 C.3   153  TRP153      0.0576
     28  CG        75.0440   45.5980   74.2530 C.ar  153  TRP153      0.0006
     29  CD1       75.3300   44.6880   73.2530 C.ar  153  TRP153      0.0946
     30  CD2       75.8740   46.7430   74.0010 C.ar  153  TRP153      0.0152
     31  NE1       76.2940   45.2050   72.4090 N.ar  153  TRP153     -0.2442
     32  CE2       76.6380   46.4610   72.8460 C.ar  153  TRP153      0.0810
     33  CE3       76.0440   47.9740   74.6430 C.ar  153  TRP153      0.0012
     34  CZ2       77.5530   47.3660   72.3300 C.ar  153  TRP153      0.0191
     35  CZ3       76.9470   48.8720   74.1250 C.ar  153  TRP153      0.0001
     36  CH2       77.7020   48.5600   72.9820 C.ar  153  TRP153      0.0015
     37  N         63.7320   38.1580   74.4100 N.3   177  LYS177     -0.1231
     38  CA        65.0600   37.7020   74.8110 C.3   177  LYS177      0.1678
     39  C         66.0540   38.8670   74.7750 C.2   177  LYS177      0.2434
     40  O         66.5250   39.2610   73.7100 O.2   177  LYS177     -0.2733
     41  CB        65.5270   36.5660   73.8980 C.3   177  LYS177      0.0284
     42  CG        66.9250   36.0150   74.2330 C.3   177  LYS177      0.0035
     43  CD        67.7080   35.8150   72.9560 C.3   177  LYS177      0.0206
     44  CE        69.1480   36.2420   73.1290 C.3   177  LYS177      0.1093
     45  NZ        69.2880   37.5670   73.7460 N.3   177  LYS177     -0.1314
     46  N         66.3790   39.4210   75.9430 N.am  178  PRO178     -0.2718
     47  CA        67.2670   40.5860   75.9850 C.3   178  PRO178      0.1535
     48  C         68.7080   40.2310   75.6400 C.2   178  PRO178      0.2598
     49  O         69.1060   39.0600   75.7390 O.2   178  PRO178     -0.2715
     50  CB        67.1690   41.0360   77.4370 C.3   178  PRO178      0.0310
     51  CG        66.9910   39.7150   78.1910 C.3   178  PRO178      0.0237
     52  CD        66.1000   38.8840   77.2870 C.3   178  PRO178      0.0939
     53  N         69.4730   41.2430   75.2420 N.am  179  ALA179     -0.1964
     54  CA        70.9030   41.0980   75.0440 C.3   179  ALA179      0.1728
     55  C         71.5650   40.4770   76.2870 C.2   179  ALA179      0.2617
     56  O         71.2510   40.8560   77.4220 O.2   179  ALA179     -0.2715
     57  CB        71.5130   42.4420   74.7340 C.3   179  ALA179      0.0334
     58  N         72.4730   39.5280   76.0740 N.am  180  SER180     -0.1936
     59  CA        73.1430   38.8440   77.1900 C.3   180  SER180      0.2055
     60  C         73.9810   39.7750   78.0830 C.2   180  SER180      0.2643
     61  O         74.2510   39.4550   79.2440 O.2   180  SER180     -0.2714
     62  CB        74.0180   37.7110   76.6560 C.3   180  SER180      0.2130
     63  OG        73.2130   36.6720   76.1340 O.3   180  SER180     -0.2179
     64  N         74.3790   40.9300   77.5560 N.am  181  ASP181     -0.1971
     65  CA        75.0710   41.9130   78.3730 C.3   181  ASP181      0.1709
     66  C         74.1100   42.7890   79.1860 C.2   181  ASP181      0.2293
     67  O         74.5210   43.4630   80.1290 O.2   181  ASP181     -0.2864
     68  CB        75.9820   42.7880   77.4980 C.3   181  ASP181      0.1436
     69  CG        77.3000   42.0850   77.1370 C.2   181  ASP181      0.3671
     70  OD1       77.9610   41.5800   78.0610 O.co2 181  ASP181     -0.2456
     71  OD2       77.6730   42.0240   75.9410 O.co2 181  ASP181     -0.2456
     72  N         69.0470   34.1770   77.8050 N.3   208  GLY208     -0.1210
     73  CA        69.9520   33.1790   77.2530 C.3   208  GLY208      0.1940
     74  C         70.6850   33.6440   76.0010 C.2   208  GLY208      0.2454
     75  O         70.4030   34.7330   75.4950 O.2   208  GLY208     -0.2732
     76  N         71.6310   32.8220   75.4990 N.am  209  PRO209     -0.2717
     77  CA        72.4460   33.0950   74.3030 C.3   209  PRO209      0.1536
     78  C         71.6350   33.2420   73.0130 C.2   209  PRO209      0.2599
     79  O         70.8680   32.3450   72.6720 O.2   209  PRO209     -0.2715
     80  CB        73.3550   31.8550   74.2020 C.3   209  PRO209      0.0310
     81  CG        73.3550   31.2490   75.5540 C.3   209  PRO209      0.0237
     82  CD        72.0180   31.5530   76.1460 C.3   209  PRO209      0.0939
     83  N         71.8270   34.3480   72.2990 N.am  210  GLY210     -0.1941
     84  CA        71.2180   34.5450   70.9890 C.3   210  GLY210      0.1998
     85  C         71.2260   33.3570   70.0360 C.2   210  GLY210      0.2480
     86  O         70.1970   33.0170   69.4640 O.2   210  GLY210     -0.2729
     87  N         72.3900   32.7140   69.8460 N.am  211  PRO211     -0.2726
     88  CA        72.4310   31.6040   68.8830 C.3   211  PRO211      0.1402
     89  C         71.6870   30.3520   69.3560 C.2   211  PRO211      0.2269
     90  O         71.4300   29.4640   68.5410 O.2   211  PRO211     -0.2865
     91  CB        73.9300   31.3170   68.7420 C.3   211  PRO211      0.0296
     92  CG        74.6110   32.5850   69.1990 C.3   211  PRO211      0.0237
     93  CD        73.7410   33.1240   70.2790 C.3   211  PRO211      0.0939
     94  N         67.6660   32.7310   71.1520 N.3   214  GLY214     -0.1210
     95  CA        67.3030   33.5580   70.0150 C.3   214  GLY214      0.1956
     96  C         67.0140   32.7840   68.7390 C.2   214  GLY214      0.2611
     97  O         66.0660   33.1100   68.0280 O.2   214  GLY214     -0.2717
     98  N         67.8050   31.7570   68.4390 N.am  215  GLU215     -0.1979
     99  CA        67.5830   31.0300   67.1850 C.3   215  GLU215      0.1602
    100  C         66.3210   30.1670   67.2140 C.2   215  GLU215      0.2287
    101  O         65.6280   30.0150   66.1960 O.2   215  GLU215     -0.2864
    102  CB        68.7750   30.1420   66.8180 C.3   215  GLU215      0.0415
    103  CG        68.6230   29.6290   65.3930 C.3   215  GLU215      0.1163
    104  CD        69.6530   28.6290   64.9850 C.2   215  GLU215      0.3649
    105  OE1       69.2570   27.5000   64.6210 O.co2 215  GLU215     -0.2457
    106  OE2       70.8550   28.9750   64.9940 O.co2 215  GLU215     -0.2457
    107  N         63.4650   32.3290   66.3280 N.3   218  VAL218     -0.1245
    108  CA        63.4570   32.7340   64.9120 C.3   218  VAL218      0.1561
    109  C         63.0210   31.5830   64.0070 C.2   218  VAL218      0.2260
    110  O         62.4570   31.8010   62.9240 O.2   218  VAL218     -0.2867
    111  CB        64.8680   33.2620   64.4480 C.3   218  VAL218      0.0252
    112  CG1       64.8900   33.5930   62.9450 C.3   218  VAL218      0.0019
    113  CG2       65.2870   34.4880   65.2450 C.3   218  VAL218      0.0019
    114  N         63.6490   42.6790   65.6390 N.3   228  PHE228     -0.1227
    115  CA        65.0530   42.5390   66.0060 C.3   228  PHE228      0.1736
    116  C         65.8220   43.8400   65.8420 C.2   228  PHE228      0.2596
    117  O         65.7770   44.4890   64.8000 O.2   228  PHE228     -0.2718
    118  CB        65.7260   41.4440   65.1520 C.3   228  PHE228      0.0547
    119  CG        67.2380   41.4190   65.2730 C.ar  228  PHE228     -0.0202
    120  CD1       67.8530   40.7040   66.2900 C.ar  228  PHE228     -0.0042
    121  CD2       68.0440   42.1280   64.3760 C.ar  228  PHE228     -0.0042
    122  CE1       69.2410   40.6810   66.4120 C.ar  228  PHE228     -0.0003
    123  CE2       69.4350   42.1220   64.4980 C.ar  228  PHE228     -0.0003
    124  CZ        70.0350   41.3920   65.5190 C.ar  228  PHE228     -0.0000
    125  N         66.5620   44.2050   66.8700 N.am  229  THR229     -0.1939
    126  CA        67.5070   45.2910   66.7400 C.3   229  THR229      0.2028
    127  C         68.9140   44.7690   67.0780 C.2   229  THR229      0.2643
    128  O         69.1210   44.1500   68.1250 O.2   229  THR229     -0.2714
    129  CB        67.1340   46.4720   67.6480 C.3   229  THR229      0.1808
    130  OG1       65.9570   47.1110   67.1450 O.3   229  THR229     -0.2208
    131  CG2       68.2470   47.4780   67.6650 C.3   229  THR229      0.0379
    132  N         69.8660   44.9930   66.1760 N.am  230  GLY230     -0.1939
    133  CA        71.2280   44.5190   66.3730 C.3   230  GLY230      0.2014
    134  C         72.1180   44.7150   65.1590 C.2   230  GLY230      0.2638
    135  O         71.8920   45.6150   64.3530 O.2   230  GLY230     -0.2714
    136  N         73.1420   43.8780   65.0260 N.am  231  GLU231     -0.1977
    137  CA        74.1280   44.0630   63.9660 C.3   231  GLU231      0.1602
    138  C         73.5890   43.5920   62.6290 C.2   231  GLU231      0.2287
    139  O         72.7660   42.6710   62.5770 O.2   231  GLU231     -0.2864
    140  CB        75.4310   43.3390   64.3120 C.3   231  GLU231      0.0415
    141  CG        76.1560   43.9840   65.4940 C.3   231  GLU231      0.1163
    142  CD        77.5990   43.5190   65.6620 C.2   231  GLU231      0.3649
    143  OE1       78.0230   42.5500   64.9960 O.co2 231  GLU231     -0.2457
    144  OE2       78.3070   44.1380   66.4760 O.co2 231  GLU231     -0.2457
    145  N         74.0000   39.8180   62.0570 N.3   234  THR234     -0.1218
    146  CA        72.9970   39.0920   62.8550 C.3   234  THR234      0.1862
    147  C         71.6330   39.1810   62.1870 C.2   234  THR234      0.2287
    148  O         70.9090   38.1900   62.1060 O.2   234  THR234     -0.2866
    149  CB        72.8740   39.6400   64.2920 C.3   234  THR234      0.1770
    150  OG1       74.1780   39.8770   64.8360 O.3   234  THR234     -0.2211
    151  CG2       72.1140   38.6470   65.2070 C.3   234  THR234      0.0375
    152  N         71.4770   36.9460   59.0730 N.3   237  GLU237     -0.1231
    153  CA        71.3060   35.5590   59.5200 C.3   237  GLU237      0.1699
    154  C         69.8750   35.2660   59.9800 C.2   237  GLU237      0.2592
    155  O         69.2840   34.2410   59.6230 O.2   237  GLU237     -0.2718
    156  CB        72.2690   35.2390   60.6550 C.3   237  GLU237      0.0402
    157  CG        72.0280   33.8750   61.2470 C.3   237  GLU237      0.1161
    158  CD        73.2220   33.3470   62.0090 C.2   237  GLU237      0.3649
    159  OE1       74.1540   34.1390   62.3080 O.co2 237  GLU237     -0.2457
    160  OE2       73.2270   32.1270   62.2960 O.co2 237  GLU237     -0.2457
    161  N         69.3270   36.1680   60.7890 N.am  238  ILE238     -0.1980
    162  CA        67.9480   36.0470   61.2350 C.3   238  ILE238      0.1595
    163  C         66.9610   36.0410   60.0580 C.2   238  ILE238      0.2287
    164  O         66.0110   35.2430   60.0290 O.2   238  ILE238     -0.2864
    165  CB        67.6090   37.1790   62.2070 C.3   238  ILE238      0.0276
    166  CG1       68.2040   36.8470   63.5750 C.3   238  ILE238      0.0022
    167  CG2       66.1100   37.4000   62.2910 C.3   238  ILE238      0.0022
    168  CD1       68.3930   38.0310   64.4350 C.3   238  ILE238      0.0001
    169  N         85.8030   43.4110   74.8150 N.3   333  ARG333     -0.1245
    170  CA        85.8320   43.1930   73.3770 C.3   333  ARG333      0.1563
    171  C         85.5830   44.5010   72.6050 C.2   333  ARG333      0.2260
    172  O         86.1020   44.7000   71.5080 O.2   333  ARG333     -0.2867
    173  CB        84.8010   42.1320   72.9760 C.3   333  ARG333      0.0307
    174  CG        84.7730   41.8060   71.4870 C.3   333  ARG333      0.0489
    175  CD        83.7510   40.7520   71.0760 C.3   333  ARG333      0.2205
    176  NE        82.4900   40.8700   71.8160 N.pl3 333  ARG333     -0.0865
    177  CZ        81.4380   41.4770   71.3060 C.cat 333  ARG333      0.5346
    178  NH1       81.4850   42.0040   70.1040 N.pl3 333  ARG333      0.1354
    179  NH2       80.3150   41.5810   71.9930 N.pl3 333  ARG333      0.1354
    180  N         80.9250   51.4850   66.4000 N.3   383  PHE383     -0.1241
    181  CA        80.0030   51.4890   67.5240 C.3   383  PHE383      0.1605
    182  C         80.7340   51.8050   68.8140 C.2   383  PHE383      0.2264
    183  O         80.7920   50.9960   69.7450 O.2   383  PHE383     -0.2867
    184  CB        79.2670   50.1390   67.6210 C.3   383  PHE383      0.0534
    185  CG        77.8820   50.2490   68.2050 C.ar  383  PHE383     -0.0203
    186  CD1       76.8800   50.9390   67.5210 C.ar  383  PHE383     -0.0042
    187  CD2       77.5860   49.6930   69.4450 C.ar  383  PHE383     -0.0042
    188  CE1       75.6100   51.0750   68.0650 C.ar  383  PHE383     -0.0003
    189  CE2       76.3150   49.8150   69.9920 C.ar  383  PHE383     -0.0003
    190  CZ        75.3200   50.5110   69.2940 C.ar  383  PHE383     -0.0000
@<TRIPOS>BOND
     1   152   153    1
     2   153   154    1
     3   153   156    1
     4   155   154    2
     5   154   161   am
     6   164   163    2
     7   163   162    1
     8   156   157    1
     9   161   162    1
    10   162   165    1
    11   157   158    1
    12   158   160   ar
    13   158   159   ar
    14   145   146    1
    15   148   147    2
    16   147   146    1
    17   165   167    1
    18   165   166    1
    19   139   138    2
    20   138   137    1
    21   146   149    1
    22   110   109    2
    23   112   111    1
    24   166   168    1
    25   137   140    1
    26   137   136    1
    27   109   108    1
    28   149   150    1
    29   149   151    1
    30   140   141    1
    31   135   134    2
    32   121   123   ar
    33   121   119   ar
    34   111   108    1
    35   111   113    1
    36   123   124   ar
    37   105   104   ar
    38   117   116    2
    39   108   107    1
    40   104   106   ar
    41   104   103    1
    42   143   142   ar
    43   136   134   am
    44   118   119    1
    45   118   115    1
    46   134   133    1
    47   119   120   ar
    48   103   102    1
    49   141   142    1
    50   124   122   ar
    51   114   115    1
    52   142   144   ar
    53   116   115    1
    54   116   125   am
    55   132   133    1
    56   132   127   am
    57   101   100    2
    58   120   122   ar
    59   180   181    1
    60   126   125    1
    61   126   127    1
    62   126   129    1
    63   102    99    1
    64   127   128    2
    65   130   129    1
    66    99   100    1
    67    99    98    1
    68   186   188   ar
    69   186   185   ar
    70   181   184    1
    71   181   182    1
    72   184   185    1
    73   129   131    1
    74    97    96    2
    75   188   190   ar
    76   185   187   ar
    77     8     6    1
    78    98    96   am
    79    90    89    2
    80    96    95    1
    81    91    88    1
    82    91    92    1
    83   182   183    2
    84    88    89    1
    85    88    87    1
    86    92    93    1
    87     4     3    2
    88   190   189   ar
    89     5     6    1
    90     5     7    1
    91     5     2    1
    92   187   189   ar
    93    86    85    2
    94    87    85   am
    95    87    93    1
    96    95    94    1
    97    85    84    1
    98     1     2    1
    99   178   177    1
   100     3     2    1
   101     3     9   am
   102    21    20    1
   103    21    22    1
   104    20    17    1
   105    84    83    1
   106    22    16    1
   107   175   174    1
   108   175   176    1
   109   177   176    2
   110   177   179    1
   111     9    10    1
   112   174   173    1
   113   172   171    2
   114    10    11    1
   115    10    13    1
   116    16    11   am
   117    16    17    1
   118    11    12    2
   119    17    18    1
   120    15    13    1
   121    83    78   am
   122    34    32   ar
   123    34    36   ar
   124    31    32   ar
   125    31    29   ar
   126   171   170    1
   127    13    14    1
   128    79    78    2
   129    32    30   ar
   130    43    44    1
   131    43    42    1
   132   173   170    1
   133    36    35   ar
   134    78    77    1
   135    44    45    1
   136    29    28   ar
   137   170   169    1
   138    18    23   am
   139    18    19    2
   140    23    24    1
   141    40    39    2
   142    41    42    1
   143    41    38    1
   144    30    28   ar
   145    30    33   ar
   146    35    33   ar
   147    80    77    1
   148    80    81    1
   149    28    27    1
   150    77    76    1
   151    37    38    1
   152    57    54    1
   153    39    38    1
   154    39    46   am
   155    24    25    1
   156    24    27    1
   157    54    53    1
   158    54    55    1
   159    25    26    2
   160    53    48   am
   161    75    74    2
   162    76    74   am
   163    76    82    1
   164    81    82    1
   165    48    49    2
   166    48    47    1
   167    71    69   ar
   168    46    47    1
   169    46    52    1
   170    47    50    1
   171    74    73    1
   172    58    55   am
   173    58    59    1
   174    63    62    1
   175    55    56    2
   176    62    59    1
   177    69    68    1
   178    69    70   ar
   179    59    60    1
   180    73    72    1
   181    52    51    1
   182    50    51    1
   183    68    65    1
   184    64    60   am
   185    64    65    1
   186    60    61    2
   187    65    66    1
   188    66    67    2
