@<TRIPOS>MOLECULE
tmp/5exiA00.pdb
 151 144 0 0 0
SMALL
GASTEIGER

@<TRIPOS>ATOM
      1  N         10.8920   10.5680   74.1570 N.3    42  LEU42      -0.1245
      2  CA        11.7730   10.4690   73.0160 C.3    42  LEU42       0.1561
      3  C         10.9660   10.1990   71.7460 C.2    42  LEU42       0.2260
      4  O         10.1450    9.2810   71.7030 O.2    42  LEU42      -0.2867
      5  CB        12.7760    9.3370   73.2560 C.3    42  LEU42       0.0270
      6  CG        13.6910    8.9790   72.0980 C.3    42  LEU42       0.0019
      7  CD1       14.6170   10.1530   71.7960 C.3    42  LEU42       0.0001
      8  CD2       14.4870    7.7140   72.4200 C.3    42  LEU42       0.0001
      9  N         20.2550    7.3040   66.0390 N.3    48  CYS48      -0.1235
     10  CA        20.5510    8.6030   65.4430 C.3    48  CYS48       0.1677
     11  C         21.4250    8.4750   64.1980 C.2    48  CYS48       0.2270
     12  O         22.2290    7.5500   64.0900 O.2    48  CYS48      -0.2867
     13  CB        21.2240    9.5360   66.4580 C.3    48  CYS48       0.0956
     14  SG        21.6060   11.1630   65.7670 S.3    48  CYS48      -0.0801
     15  N         29.8910   12.1540   73.6320 N.3    54  PHE54      -0.1227
     16  CA        29.3470   12.1920   74.9900 C.3    54  PHE54       0.1736
     17  C         27.9720   11.5080   75.0770 C.2    54  PHE54       0.2595
     18  O         27.5120   11.1660   76.1610 O.2    54  PHE54      -0.2718
     19  CB        29.2190   13.6380   75.4630 C.3    54  PHE54       0.0547
     20  CG        28.3440   14.4780   74.5760 C.ar   54  PHE54      -0.0202
     21  CD1       26.9730   14.4960   74.7470 C.ar   54  PHE54      -0.0042
     22  CD2       28.8930   15.2340   73.5590 C.ar   54  PHE54      -0.0042
     23  CE1       26.1750   15.2460   73.9260 C.ar   54  PHE54      -0.0003
     24  CE2       28.0920   15.9930   72.7310 C.ar   54  PHE54      -0.0003
     25  CZ        26.7360   15.9950   72.9130 C.ar   54  PHE54      -0.0000
     26  N         27.3160   11.3190   73.9370 N.am   55  CYS55      -0.1970
     27  CA        25.8950   10.9790   73.9310 C.3    55  CYS55       0.1712
     28  C         25.5790    9.4860   73.9800 C.2    55  CYS55       0.2296
     29  O         26.1580    8.6990   73.2340 O.2    55  CYS55      -0.2864
     30  CB        25.2140   11.5870   72.7170 C.3    55  CYS55       0.0983
     31  SG        23.4720   11.1710   72.6450 S.3    55  CYS55      -0.0798
     32  N         22.9010    7.9320   72.9780 N.3    57  ILE57      -0.1245
     33  CA        22.1040    7.4190   71.8620 C.3    57  ILE57       0.1561
     34  C         23.0030    6.6680   70.8730 C.2    57  ILE57       0.2260
     35  O         24.0470    7.1820   70.4610 O.2    57  ILE57      -0.2867
     36  CB        21.3430    8.5500   71.1170 C.3    57  ILE57       0.0252
     37  CG1       20.4040    9.2880   72.0680 C.3    57  ILE57       0.0019
     38  CG2       20.5670    7.9940   69.9490 C.3    57  ILE57       0.0019
     39  CD1       19.5320    8.3820   72.8630 C.3    57  ILE57       0.0001
     40  N         12.1590   15.1930   73.2310 N.3    88  THR88      -0.1203
     41  CA        13.4910   15.1530   72.6700 C.3    88  THR88       0.1994
     42  C         13.5180   14.0990   71.5750 C.2    88  THR88       0.2618
     43  O         12.6600   13.2230   71.5300 O.2    88  THR88      -0.2717
     44  CB        14.5020   14.7180   73.7310 C.3    88  THR88       0.1784
     45  OG1       14.2330   13.3570   74.0920 O.3    88  THR88      -0.2211
     46  CG2       14.3690   15.5800   74.9690 C.3    88  THR88       0.0376
     47  N         14.5180   14.1720   70.7050 N.am   89  GLY89      -0.1942
     48  CA        14.7110   13.1460   69.7040 C.3    89  GLY89       0.2014
     49  C         16.1190   13.1090   69.1470 C.2    89  GLY89       0.2639
     50  O         17.0120   13.8120   69.6150 O.2    89  GLY89      -0.2714
     51  N         16.3070   12.2900   68.1250 N.am   90  VAL90      -0.1963
     52  CA        17.6010   12.1300   67.4990 C.3    90  VAL90       0.1727
     53  C         17.6670   12.9910   66.2560 C.2    90  VAL90       0.2616
     54  O         16.6620   13.5760   65.8450 O.2    90  VAL90      -0.2715
     55  CB        17.7960   10.6810   67.0820 C.3    90  VAL90       0.0290
     56  CG1       17.9040    9.7930   68.3070 C.3    90  VAL90       0.0023
     57  CG2       16.6170   10.2370   66.2200 C.3    90  VAL90       0.0023
     58  N         18.8540   13.0750   65.6600 N.am   91  ALA91      -0.1977
     59  CA        18.9890   13.6970   64.3460 C.3    91  ALA91       0.1597
     60  C         18.4650   12.7220   63.2890 C.2    91  ALA91       0.2287
     61  O         18.5930   11.4950   63.4290 O.2    91  ALA91      -0.2864
     62  CB        20.4240   14.0660   64.0720 C.3    91  ALA91       0.0319
     63  N         13.3370   19.8380   72.7780 N.3   122  LEU122     -0.1231
     64  CA        14.7920   19.8050   72.6200 C.3   122  LEU122      0.1693
     65  C         15.1310   19.2320   71.2550 C.2   122  LEU122      0.2592
     66  O         14.8390   18.0660   70.9670 O.2   122  LEU122     -0.2718
     67  CB        15.4470   18.9760   73.7250 C.3   122  LEU122      0.0284
     68  CG        16.9450   18.6710   73.5710 C.3   122  LEU122      0.0019
     69  CD1       17.7830   19.9520   73.5920 C.3   122  LEU122      0.0001
     70  CD2       17.4010   17.6860   74.6560 C.3   122  LEU122      0.0001
     71  N         15.7590   20.0540   70.4200 N.am  123  ILE123     -0.1966
     72  CA        15.9340   19.7380   69.0070 C.3   123  ILE123      0.1712
     73  C         17.3880   19.5710   68.5990 C.2   123  ILE123      0.2458
     74  O         18.2840   20.1620   69.2050 O.2   123  ILE123     -0.2730
     75  CB        15.3240   20.8490   68.1070 C.3   123  ILE123      0.0289
     76  CG1       15.8830   22.2190   68.4990 C.3   123  ILE123      0.0022
     77  CG2       13.7970   20.8360   68.1830 C.3   123  ILE123      0.0023
     78  CD1       15.7370   23.2740   67.4290 C.3   123  ILE123      0.0001
     79  N         17.6230   18.7760   67.5440 N.am  124  PRO124     -0.2727
     80  CA        18.9050   18.7960   66.8370 C.3   124  PRO124      0.1402
     81  C         18.9880   20.1000   66.0380 C.2   124  PRO124      0.2269
     82  O         18.1310   20.9520   66.2450 O.2   124  PRO124     -0.2865
     83  CB        18.8100   17.5730   65.9190 C.3   124  PRO124      0.0296
     84  CG        17.3430   17.4040   65.6720 C.3   124  PRO124      0.0237
     85  CD        16.6570   17.8460   66.9250 C.3   124  PRO124      0.0939
     86  N         18.1460   23.8610   72.5780 N.3   146  HIS146     -0.1226
     87  CA        19.1300   23.2490   71.7030 C.3   146  HIS146      0.1752
     88  C         20.4700   23.2710   72.4130 C.2   146  HIS146      0.2596
     89  O         21.0730   24.3340   72.6000 O.2   146  HIS146     -0.2718
     90  CB        19.2200   23.9790   70.3720 C.3   146  HIS146      0.0759
     91  CG        20.3230   23.4780   69.5000 C.ar  146  HIS146      0.0818
     92  ND1       20.3350   22.2000   68.9820 N.ar  146  HIS146     -0.2268
     93  CD2       21.4710   24.0660   69.0820 C.ar  146  HIS146      0.1154
     94  CE1       21.4350   22.0260   68.2720 C.ar  146  HIS146      0.1986
     95  NE2       22.1390   23.1450   68.3140 N.ar  146  HIS146     -0.2212
     96  N         20.9200   22.0960   72.8270 N.am  147  ASN147     -0.1974
     97  CA        22.0830   21.9880   73.6810 C.3   147  ASN147      0.1688
     98  C         23.3990   21.9950   72.9180 C.2   147  ASN147      0.2292
     99  O         23.6290   21.1220   72.0780 O.2   147  ASN147     -0.2864
    100  CB        21.9700   20.7230   74.5090 C.3   147  ASN147      0.1181
    101  CG        20.8210   20.7830   75.4780 C.2   147  ASN147      0.2629
    102  OD1       20.3220   21.8730   75.7910 O.2   147  ASN147     -0.2716
    103  ND2       20.4000   19.6250   75.9820 N.am  147  ASN147     -0.0877
    104  N         26.2220   21.6910   74.5180 N.3   149  GLU149     -0.1245
    105  CA        26.8560   20.6210   75.2890 C.3   149  GLU149      0.1567
    106  C         28.2950   20.9040   75.7140 C.2   149  GLU149      0.2260
    107  O         28.6570   20.6670   76.8610 O.2   149  GLU149     -0.2867
    108  CB        26.7630   19.2720   74.5640 C.3   149  GLU149      0.0388
    109  CG        25.3790   18.9230   74.0440 C.3   149  GLU149      0.1160
    110  CD        24.4640   18.3700   75.1230 C.2   149  GLU149      0.3649
    111  OE1       23.6960   17.4260   74.8270 O.co2 149  GLU149     -0.2457
    112  OE2       24.4990   18.8790   76.2640 O.co2 149  GLU149     -0.2457
    113  N         31.6880   16.4790   68.0260 N.3   159  ARG159     -0.1245
    114  CA        30.3890   16.6450   67.3890 C.3   159  ARG159      0.1563
    115  C         30.5960   16.9820   65.9160 C.2   159  ARG159      0.2260
    116  O         30.1920   18.0490   65.4530 O.2   159  ARG159     -0.2867
    117  CB        29.5640   17.7380   68.0830 C.3   159  ARG159      0.0307
    118  CG        29.5270   17.6170   69.5970 C.3   159  ARG159      0.0489
    119  CD        28.3600   18.3710   70.1860 C.3   159  ARG159      0.2205
    120  NE        27.0880   17.7740   69.7910 N.pl3 159  ARG159     -0.0865
    121  CZ        25.9070   18.3530   69.9740 C.cat 159  ARG159      0.5346
    122  NH1       25.8370   19.5470   70.5520 N.pl3 159  ARG159      0.1354
    123  NH2       24.8000   17.7390   69.5800 N.pl3 159  ARG159      0.1354
    124  N         28.1390   18.8180   63.6480 N.3   162  PHE162     -0.1241
    125  CA        27.6540   20.1370   64.0380 C.3   162  PHE162      0.1605
    126  C         28.7510   21.1920   63.9000 C.2   162  PHE162      0.2264
    127  O         29.9210   20.8630   63.6920 O.2   162  PHE162     -0.2867
    128  CB        27.1870   20.1260   65.4990 C.3   162  PHE162      0.0534
    129  CG        25.9840   19.2440   65.7740 C.ar  162  PHE162     -0.0203
    130  CD1       24.7170   19.8010   65.9400 C.ar  162  PHE162     -0.0042
    131  CD2       26.1260   17.8610   65.8990 C.ar  162  PHE162     -0.0042
    132  CE1       23.6100   18.9880   66.2180 C.ar  162  PHE162     -0.0003
    133  CE2       25.0240   17.0410   66.1680 C.ar  162  PHE162     -0.0003
    134  CZ        23.7690   17.6030   66.3330 C.ar  162  PHE162     -0.0000
    135  N         20.4640   14.3060   83.8950 N.3   257  ARG257     -0.1231
    136  CA        19.7850   14.4710   82.6180 C.3   257  ARG257      0.1694
    137  C         19.3150   15.9140   82.4430 C.2   257  ARG257      0.2592
    138  O         19.0060   16.5990   83.4160 O.2   257  ARG257     -0.2718
    139  CB        18.6090   13.4930   82.4770 C.3   257  ARG257      0.0321
    140  CG        19.0020   12.0140   82.3970 C.3   257  ARG257      0.0489
    141  CD        17.8920   11.1710   81.7400 C.3   257  ARG257      0.2205
    142  NE        17.5510   11.7380   80.4370 N.pl3 257  ARG257     -0.0865
    143  CZ        18.0790   11.3540   79.2770 C.cat 257  ARG257      0.5346
    144  NH1       17.7020   11.9680   78.1520 N.pl3 257  ARG257      0.1354
    145  NH2       18.9730   10.3610   79.2370 N.pl3 257  ARG257      0.1354
    146  N         19.2520   16.3570   81.1910 N.am  258  SER258     -0.1952
    147  CA        19.0680   17.7610   80.8710 C.3   258  SER258      0.1924
    148  C         17.6870   18.3170   81.2250 C.2   258  SER258      0.2314
    149  O         17.4990   19.5300   81.2370 O.2   258  SER258     -0.2863
    150  CB        19.3530   17.9970   79.3830 C.3   258  SER258      0.2116
    151  OG        18.4510   17.2550   78.5790 O.3   258  SER258     -0.2180
@<TRIPOS>BOND
     1    60    61    2
     2    60    59    1
     3   124   125    1
     4   127   126    2
     5   126   125    1
     6   125   128    1
     7    62    59    1
     8    12    11    2
     9    11    10    1
    10    59    58    1
    11    10     9    1
    12    10    13    1
    13   116   115    2
    14   128   129    1
    15    58    53   am
    16    84    83    1
    17    84    85    1
    18    14    13    1
    19   129   131   ar
    20   129   130   ar
    21    54    53    2
    22   131   133   ar
    23   115   114    1
    24    83    80    1
    25   130   132   ar
    26    81    82    2
    27    81    80    1
    28   133   134   ar
    29   132   134   ar
    30    57    55    1
    31    53    52    1
    32    80    79    1
    33    85    79    1
    34    55    52    1
    35    55    56    1
    36   114   113    1
    37   114   117    1
    38    78    76    1
    39    52    51    1
    40    79    73   am
    41   117   118    1
    42    75    77    1
    43    75    76    1
    44    75    72    1
    45    51    49   am
    46    94    95   ar
    47    94    92   ar
    48    95    93   ar
    49    73    72    1
    50    73    74    2
    51    92    91   ar
    52    72    71    1
    53    93    91   ar
    54    49    50    2
    55    49    48    1
    56    91    90    1
    57   123   121    1
    58   118   119    1
    59    48    47    1
    60   120   121    2
    61   120   119    1
    62    38    36    1
    63   121   122    1
    64    90    87    1
    65    71    65   am
    66    35    34    2
    67    47    42   am
    68    34    33    1
    69    66    65    2
    70    36    33    1
    71    36    37    1
    72    65    64    1
    73    43    42    2
    74    42    41    1
    75     4     3    2
    76    87    88    1
    77    87    86    1
    78     3     2    1
    79     7     6    1
    80    33    32    1
    81    37    39    1
    82    99    98    2
    83     6     8    1
    84     6     5    1
    85    88    89    2
    86    88    96   am
    87    64    63    1
    88    64    67    1
    89    31    30    1
    90    41    40    1
    91    41    44    1
    92    30    27    1
    93    24    25   ar
    94    24    22   ar
    95    96    97    1
    96    25    23   ar
    97    98    97    1
    98     2     5    1
    99     2     1    1
   100    29    28    2
   101    22    20   ar
   102    68    69    1
   103    68    67    1
   104    68    70    1
   105    15    16    1
   106    97   100    1
   107    44    45    1
   108    44    46    1
   109    23    21   ar
   110    27    26    1
   111    27    28    1
   112    26    17   am
   113   109   108    1
   114   109   110    1
   115   100   101    1
   116   104   105    1
   117   108   105    1
   118    20    21   ar
   119    20    19    1
   120   111   110   ar
   121    16    17    1
   122    16    19    1
   123    17    18    2
   124   110   112   ar
   125   105   106    1
   126   101   102    2
   127   101   103   am
   128   106   107    2
   129   144   143    1
   130   151   150    1
   131   145   143    1
   132   143   142    2
   133   150   147    1
   134   142   141    1
   135   147   146    1
   136   147   148    1
   137   146   137   am
   138   148   149    2
   139   141   140    1
   140   140   139    1
   141   137   136    1
   142   137   138    2
   143   139   136    1
   144   136   135    1
