@<TRIPOS>MOLECULE
tmp/5exjA00.pdb
 140 132 0 0 0
SMALL
GASTEIGER

@<TRIPOS>ATOM
      1  N        -10.8450   -4.6170  -10.9440 N.3    45  LEU45      -0.1245
      2  CA       -11.7550   -4.6130   -9.8140 C.3    45  LEU45       0.1561
      3  C        -10.9650   -4.8130   -8.5170 C.2    45  LEU45       0.2260
      4  O        -10.1660   -5.7520   -8.4180 O.2    45  LEU45      -0.2867
      5  CB       -12.8180   -5.7140   -9.9760 C.3    45  LEU45       0.0270
      6  CG       -13.7530   -5.9150   -8.7770 C.3    45  LEU45       0.0019
      7  CD1      -14.8080   -4.8400   -8.7720 C.3    45  LEU45       0.0001
      8  CD2      -14.4180   -7.2830   -8.8420 C.3    45  LEU45       0.0001
      9  N        -20.3700   -7.5610   -2.7860 N.3    51  CYS51      -0.1235
     10  CA       -20.6940   -6.2090   -2.3430 C.3    51  CYS51       0.1677
     11  C        -21.5690   -6.2310   -1.0940 C.2    51  CYS51       0.2270
     12  O        -22.3740   -7.1390   -0.9280 O.2    51  CYS51      -0.2867
     13  CB       -21.4100   -5.4390   -3.4560 C.3    51  CYS51       0.0956
     14  SG       -21.7270   -3.7040   -3.0470 S.3    51  CYS51      -0.0801
     15  N        -27.3800   -4.0320  -11.0860 N.3    58  CYS58      -0.1235
     16  CA       -25.9420   -4.2830  -11.0270 C.3    58  CYS58       0.1677
     17  C        -25.6520   -5.7750  -11.0090 C.2    58  CYS58       0.2270
     18  O        -26.2670   -6.5130  -10.2440 O.2    58  CYS58      -0.2867
     19  CB       -25.3400   -3.6130   -9.8000 C.3    58  CYS58       0.0956
     20  SG       -23.5700   -3.8880   -9.6460 S.3    58  CYS58      -0.0801
     21  N        -22.9760   -7.2890   -9.9860 N.3    60  ILE60      -0.1245
     22  CA       -22.1620   -7.7110   -8.8300 C.3    60  ILE60       0.1561
     23  C        -23.0430   -8.3320   -7.7500 C.2    60  ILE60       0.2260
     24  O        -24.0580   -7.7490   -7.3790 O.2    60  ILE60      -0.2867
     25  CB       -21.3910   -6.5260   -8.2100 C.3    60  ILE60       0.0252
     26  CG1      -20.4290   -5.9030   -9.2310 C.3    60  ILE60       0.0019
     27  CG2      -20.6610   -6.9350   -6.9260 C.3    60  ILE60       0.0019
     28  CD1      -19.2740   -6.7890   -9.6260 C.3    60  ILE60       0.0001
     29  N        -12.1290    0.0120  -10.4240 N.3    91  THR91      -0.1203
     30  CA       -13.5020   -0.1070   -9.9020 C.3    91  THR91       0.1994
     31  C        -13.4790   -0.9130   -8.6120 C.2    91  THR91       0.2618
     32  O        -12.4580   -1.4980   -8.2540 O.2    91  THR91      -0.2717
     33  CB       -14.4920   -0.7990  -10.9140 C.3    91  THR91       0.1784
     34  OG1      -14.1800   -2.1970  -11.0640 O.3    91  THR91      -0.2211
     35  CG2      -14.4710   -0.1180  -12.2820 C.3    91  THR91       0.0376
     36  N        -14.5990   -0.9460   -7.8970 N.am   92  GLY92      -0.1942
     37  CA       -14.6980   -1.8150   -6.7370 C.3    92  GLY92       0.2014
     38  C        -16.1380   -1.9600   -6.2890 C.2    92  GLY92       0.2639
     39  O        -17.0420   -1.5990   -7.0050 O.2    92  GLY92      -0.2714
     40  N        -16.3410   -2.5080   -5.1030 N.am   93  VAL93      -0.1963
     41  CA       -17.6950   -2.6590   -4.5650 C.3    93  VAL93       0.1727
     42  C        -17.7980   -1.8120   -3.3120 C.2    93  VAL93       0.2616
     43  O        -16.7930   -1.2720   -2.8300 O.2    93  VAL93      -0.2715
     44  CB       -18.0150   -4.1260   -4.2330 C.3    93  VAL93       0.0290
     45  CG1      -17.9220   -5.0150   -5.4810 C.3    93  VAL93       0.0023
     46  CG2      -17.0790   -4.6180   -3.1540 C.3    93  VAL93       0.0023
     47  N        -19.0010   -1.7020   -2.7650 N.am   94  ALA94      -0.1977
     48  CA       -19.1600   -1.0380   -1.4910 C.3    94  ALA94       0.1597
     49  C        -18.6220   -1.9740   -0.4130 C.2    94  ALA94       0.2287
     50  O        -18.8000   -3.1970   -0.5050 O.2    94  ALA94      -0.2864
     51  CB       -20.6260   -0.6890   -1.2270 C.3    94  ALA94       0.0319
     52  N        -13.4490    4.7480  -10.1590 N.3   125  LEU125     -0.1231
     53  CA       -14.9170    4.7310  -10.0510 C.3   125  LEU125      0.1693
     54  C        -15.2520    4.2540   -8.6470 C.2   125  LEU125      0.2592
     55  O        -14.9790    3.1130   -8.2770 O.2   125  LEU125     -0.2718
     56  CB       -15.5290    3.8250  -11.1140 C.3   125  LEU125      0.0284
     57  CG       -17.0410    3.5890  -11.0170 C.3   125  LEU125      0.0019
     58  CD1      -17.8090    4.9160  -11.1430 C.3   125  LEU125      0.0001
     59  CD2      -17.4670    2.6110  -12.1100 C.3   125  LEU125      0.0001
     60  N        -15.8510    5.1400   -7.8560 N.am  126  ILE126     -0.1966
     61  CA       -16.0550    4.8540   -6.4300 C.3   126  ILE126      0.1712
     62  C        -17.5240    4.6810   -6.0560 C.2   126  ILE126      0.2458
     63  O        -18.4000    5.2400   -6.7190 O.2   126  ILE126     -0.2730
     64  CB       -15.4680    5.9930   -5.5530 C.3   126  ILE126      0.0289
     65  CG1      -16.0880    7.3460   -5.9260 C.3   126  ILE126      0.0022
     66  CG2      -13.9220    6.0490   -5.6710 C.3   126  ILE126      0.0023
     67  CD1      -15.8840    8.3800   -4.8380 C.3   126  ILE126      0.0001
     68  N        -17.7850    3.9540   -4.9520 N.am  127  PRO127     -0.2727
     69  CA       -19.0860    4.0220   -4.2640 C.3   127  PRO127      0.1402
     70  C        -19.1560    5.3610   -3.4950 C.2   127  PRO127      0.2269
     71  O        -18.2790    6.2010   -3.7500 O.2   127  PRO127     -0.2865
     72  CB       -19.0440    2.8040   -3.3350 C.3   127  PRO127      0.0296
     73  CG       -17.5740    2.7550   -2.9230 C.3   127  PRO127      0.0237
     74  CD       -16.8240    3.0890   -4.2270 C.3   127  PRO127      0.0939
     75  N        -18.2450    8.8140  -10.0240 N.3   149  HIS149     -0.1226
     76  CA       -19.2050    8.2230   -9.1100 C.3   149  HIS149      0.1752
     77  C        -20.5040    8.1680   -9.8880 C.2   149  HIS149      0.2596
     78  O        -21.0250    9.2020  -10.2710 O.2   149  HIS149     -0.2718
     79  CB       -19.3610    9.0460   -7.8130 C.3   149  HIS149      0.0759
     80  CG       -20.4390    8.5160   -6.9070 C.ar  149  HIS149      0.0818
     81  ND1      -20.4150    7.2330   -6.3990 N.ar  149  HIS149     -0.2268
     82  CD2      -21.6100    9.0660   -6.4910 C.ar  149  HIS149      0.1154
     83  CE1      -21.5000    7.0360   -5.6680 C.ar  149  HIS149      0.1986
     84  NE2      -22.2460    8.1250   -5.7220 N.ar  149  HIS149     -0.2212
     85  N        -21.0110    6.9600  -10.1370 N.am  150  ASN150     -0.1974
     86  CA       -22.1320    6.8090  -11.0550 C.3   150  ASN150      0.1688
     87  C        -23.4830    6.8620  -10.3610 C.2   150  ASN150      0.2292
     88  O        -23.7620    6.0370   -9.5020 O.2   150  ASN150     -0.2864
     89  CB       -21.9920    5.4850  -11.8070 C.3   150  ASN150      0.1181
     90  CG       -20.9010    5.5500  -12.8400 C.2   150  ASN150      0.2629
     91  OD1      -20.3640    6.6260  -13.1010 O.2   150  ASN150     -0.2716
     92  ND2      -20.5800    4.4140  -13.4460 N.am  150  ASN150     -0.0877
     93  N        -26.2750    6.4470  -12.0280 N.3   152  GLU152     -0.1245
     94  CA       -26.9250    5.3740  -12.7960 C.3   152  GLU152      0.1567
     95  C        -28.3800    5.6300  -13.1920 C.2   152  GLU152      0.2260
     96  O        -28.7860    5.2680  -14.3060 O.2   152  GLU152     -0.2867
     97  CB       -26.8730    4.0220  -12.0650 C.3   152  GLU152      0.0388
     98  CG       -25.4720    3.6250  -11.5780 C.3   152  GLU152      0.1160
     99  CD       -24.5080    3.2680  -12.6960 C.2   152  GLU152      0.3649
    100  OE1      -23.7080    2.3350  -12.4970 O.co2 152  GLU152     -0.2457
    101  OE2      -24.5200    3.9160  -13.7660 O.co2 152  GLU152     -0.2457
    102  N        -31.7020    1.5470   -5.4490 N.3   162  ARG162     -0.1245
    103  CA       -30.4050    1.7390   -4.7860 C.3   162  ARG162      0.1563
    104  C        -30.6520    2.1450   -3.3400 C.2   162  ARG162      0.2260
    105  O        -30.3380    3.2640   -2.9330 O.2   162  ARG162     -0.2867
    106  CB       -29.5630    2.8110   -5.4960 C.3   162  ARG162      0.0307
    107  CG       -29.4540    2.6380   -6.9890 C.3   162  ARG162      0.0489
    108  CD       -28.3000    3.4900   -7.5350 C.3   162  ARG162      0.2205
    109  NE       -27.0130    2.8970   -7.1840 N.pl3 162  ARG162     -0.0865
    110  CZ       -25.8500    3.4770   -7.4140 C.cat 162  ARG162      0.5346
    111  NH1      -25.8220    4.6710   -7.9820 N.pl3 162  ARG162      0.1354
    112  NH2      -24.7190    2.8500   -7.0640 N.pl3 162  ARG162      0.1354
    113  N        -28.1630    4.0640   -1.0230 N.3   165  PHE165     -0.1241
    114  CA       -27.6430    5.3410   -1.4990 C.3   165  PHE165      0.1605
    115  C        -28.7360    6.4010   -1.3800 C.2   165  PHE165      0.2264
    116  O        -29.8930    6.0610   -1.1420 O.2   165  PHE165     -0.2867
    117  CB       -27.2100    5.2530   -2.9740 C.3   165  PHE165      0.0534
    118  CG       -26.0320    4.3680   -3.2220 C.ar  165  PHE165     -0.0203
    119  CD1      -24.7980    4.9260   -3.5510 C.ar  165  PHE165     -0.0042
    120  CD2      -26.1650    2.9890   -3.2010 C.ar  165  PHE165     -0.0042
    121  CE1      -23.6760    4.1150   -3.7860 C.ar  165  PHE165     -0.0003
    122  CE2      -25.0630    2.1630   -3.4530 C.ar  165  PHE165     -0.0003
    123  CZ       -23.8060    2.7370   -3.7450 C.ar  165  PHE165     -0.0000
    124  N        -20.3600   -1.2490  -21.0140 N.3   260  ARG260     -0.1231
    125  CA       -19.7580   -1.0240  -19.6880 C.3   260  ARG260      0.1694
    126  C        -19.3160    0.4360  -19.4730 C.2   260  ARG260      0.2592
    127  O        -19.0910    1.1740  -20.4400 O.2   260  ARG260     -0.2718
    128  CB       -18.5660   -1.9680  -19.4650 C.3   260  ARG260      0.0321
    129  CG       -19.0210   -3.4380  -19.4120 C.3   260  ARG260      0.0489
    130  CD       -17.9860   -4.3340  -18.7550 C.3   260  ARG260      0.2205
    131  NE       -17.5820   -3.7680  -17.4760 N.pl3 260  ARG260     -0.0865
    132  CZ       -18.1030   -4.1040  -16.3030 C.cat 260  ARG260      0.5346
    133  NH1      -17.6790   -3.5000  -15.1970 N.pl3 260  ARG260      0.1354
    134  NH2      -19.0430   -5.0440  -16.2390 N.pl3 260  ARG260      0.1354
    135  N        -19.1500    0.8160  -18.1980 N.am  261  SER261     -0.1952
    136  CA       -18.8560    2.2020  -17.8240 C.3   261  SER261      0.1924
    137  C        -17.5460    2.7320  -18.3900 C.2   261  SER261      0.2314
    138  O        -17.3700    3.9390  -18.5470 O.2   261  SER261     -0.2863
    139  CB       -18.8250    2.3540  -16.2850 C.3   261  SER261      0.2116
    140  OG       -17.9350    1.4270  -15.6910 O.3   261  SER261     -0.2180
@<TRIPOS>BOND
     1   124   125    1
     2   127   126    2
     3   125   126    1
     4   125   128    1
     5   126   135   am
     6   128   129    1
     7   129   130    1
     8   130   131    1
     9   138   137    2
    10   137   136    1
    11   135   136    1
    12   136   139    1
    13   131   132    2
    14   132   134    1
    15   132   133    1
    16   139   140    1
    17    96    95    2
    18   101    99   ar
    19    92    90   am
    20    95    94    1
    21    91    90    2
    22    90    89    1
    23    94    97    1
    24    94    93    1
    25    99   100   ar
    26    99    98    1
    27    35    33    1
    28    59    57    1
    29    97    98    1
    30    89    86    1
    31    58    57    1
    32    56    57    1
    33    56    53    1
    34    15    16    1
    35    34    33    1
    36    86    87    1
    37    86    85    1
    38    16    17    1
    39    16    19    1
    40    17    18    2
    41     1     2    1
    42    33    30    1
    43    29    30    1
    44    87    88    2
    45    78    77    2
    46    52    53    1
    47    85    77   am
    48    53    54    1
    49    75    76    1
    50    21    22    1
    51     5     2    1
    52     5     6    1
    53    30    31    1
    54    77    76    1
    55     2     3    1
    56    19    20    1
    57    28    26    1
    58    26    25    1
    59    76    79    1
    60     8     6    1
    61    22    25    1
    62    22    23    1
    63     6     7    1
    64    54    55    2
    65    54    60   am
    66    31    32    2
    67    31    36   am
    68     3     4    2
    69    25    27    1
    70   111   110    1
    71    36    37    1
    72    60    61    1
    73    79    80    1
    74    23    24    2
    75   108   109    1
    76   108   107    1
    77   110   109    2
    78   110   112    1
    79    39    38    2
    80   107   106    1
    81    80    82   ar
    82    80    81   ar
    83    37    38    1
    84    63    62    2
    85    82    84   ar
    86    61    62    1
    87    61    64    1
    88    81    83   ar
    89    38    40   am
    90    62    68   am
    91    65    64    1
    92    65    67    1
    93    84    83   ar
    94    66    64    1
    95   106   103    1
    96    45    44    1
    97   102   103    1
    98    40    41    1
    99    68    69    1
   100    68    74    1
   101   103   104    1
   102    41    44    1
   103    41    42    1
   104    69    70    1
   105    69    72    1
   106    44    46    1
   107    74    73    1
   108   121   123   ar
   109   121   119   ar
   110    71    70    2
   111   123   122   ar
   112   119   118   ar
   113    13    14    1
   114    13    10    1
   115   122   120   ar
   116   104   105    2
   117    72    73    1
   118    42    43    2
   119    42    47   am
   120   118   120   ar
   121   118   117    1
   122   117   114    1
   123     9    10    1
   124    47    48    1
   125    10    11    1
   126   114   115    1
   127   114   113    1
   128    48    51    1
   129    48    49    1
   130   115   116    2
   131    11    12    2
   132    50    49    2
