@<TRIPOS>MOLECULE
tmp/5exkA01.pdb
 154 145 0 0 0
SMALL
GASTEIGER

@<TRIPOS>ATOM
      1  N         82.2640    1.3880  133.3410 N.3    51  VAL51      -0.1245
      2  CA        83.5570    0.7520  133.2970 C.3    51  VAL51       0.1561
      3  C         84.1940    1.1600  131.9670 C.2    51  VAL51       0.2260
      4  O         85.4110    1.2450  131.8590 O.2    51  VAL51      -0.2867
      5  CB        83.4540   -0.7730  133.4330 C.3    51  VAL51       0.0252
      6  CG1       82.6100   -1.3710  132.2800 C.3    51  VAL51       0.0019
      7  CG2       84.8620   -1.4020  133.5140 C.3    51  VAL51       0.0019
      8  N         87.8110    2.0330  133.0530 N.3    55  ALA55      -0.1245
      9  CA        88.8480    1.0770  132.6570 C.3    55  ALA55       0.1562
     10  C         89.5200    1.4660  131.3450 C.2    55  ALA55       0.2260
     11  O         90.4200    0.7730  130.8700 O.2    55  ALA55      -0.2867
     12  CB        88.2720   -0.3290  132.5500 C.3    55  ALA55       0.0290
     13  N         96.3470   -5.5600  135.1410 N.3    84  PHE84      -0.1227
     14  CA        95.8750   -5.1400  133.8100 C.3    84  PHE84       0.1736
     15  C         94.8900   -3.9670  133.9140 C.2    84  PHE84       0.2596
     16  O         94.4610   -3.4120  132.9070 O.2    84  PHE84      -0.2718
     17  CB        95.1850   -6.2990  133.0650 C.3    84  PHE84       0.0547
     18  CG        94.0350   -6.9200  133.8320 C.ar   84  PHE84      -0.0202
     19  CD1       92.7980   -6.2840  133.9050 C.ar   84  PHE84      -0.0042
     20  CD2       94.2010   -8.1350  134.4950 C.ar   84  PHE84      -0.0042
     21  CE1       91.7430   -6.8570  134.6270 C.ar   84  PHE84      -0.0003
     22  CE2       93.1530   -8.7000  135.2210 C.ar   84  PHE84      -0.0003
     23  CZ        91.9290   -8.0580  135.2810 C.ar   84  PHE84      -0.0000
     24  N         94.4890   -3.6240  135.1320 N.am   85  CYS85      -0.1956
     25  CA        93.3110   -2.7720  135.3060 C.3    85  CYS85       0.1843
     26  C         93.7020   -1.3430  135.6640 C.2    85  CYS85       0.2625
     27  O         94.4900   -1.1370  136.5630 O.2    85  CYS85      -0.2714
     28  CB        92.3680   -3.3420  136.3950 C.3    85  CYS85       0.0997
     29  SG        90.8460   -2.3700  136.5790 S.3    85  CYS85      -0.0797
     30  N         93.1490   -0.3560  134.9630 N.am   86  GLN86      -0.1963
     31  CA        93.4950    1.0270  135.2960 C.3    86  GLN86       0.1733
     32  C         92.4880    1.7240  136.2020 C.2    86  GLN86       0.2616
     33  O         92.6660    2.8830  136.5210 O.2    86  GLN86      -0.2715
     34  CB        93.6930    1.8510  134.0220 C.3    86  GLN86       0.0408
     35  CG        92.4250    2.2520  133.3560 C.3    86  GLN86       0.0908
     36  CD        92.6660    3.2810  132.2640 C.2    86  GLN86       0.2608
     37  OE1       93.7250    3.2970  131.6490 O.2    86  GLN86      -0.2717
     38  NE2       91.6800    4.1410  132.0180 N.am   86  GLN86      -0.0878
     39  N         91.4370    1.0290  136.6200 N.am   87  ILE87      -0.1977
     40  CA        90.5060    1.6000  137.5950 C.3    87  ILE87       0.1596
     41  C         91.2700    1.9300  138.8940 C.2    87  ILE87       0.2287
     42  O         92.0810    1.1330  139.3560 O.2    87  ILE87      -0.2864
     43  CB        89.3190    0.6340  137.8530 C.3    87  ILE87       0.0276
     44  CG1       88.4430    0.5510  136.5980 C.3    87  ILE87       0.0022
     45  CG2       88.5010    1.0670  139.0690 C.3    87  ILE87       0.0022
     46  CD1       87.2640   -0.3720  136.7320 C.3    87  ILE87       0.0001
     47  N         78.6610   -4.0200  135.7830 N.3   118  THR118     -0.1218
     48  CA        79.7290   -4.5710  136.5930 C.3   118  THR118      0.1862
     49  C         79.9920   -3.5620  137.7060 C.2   118  THR118      0.2287
     50  O         79.2120   -2.6150  137.8920 O.2   118  THR118     -0.2866
     51  CB        81.0050   -4.8830  135.7430 C.3   118  THR118      0.1770
     52  OG1       81.9530   -5.6420  136.5110 O.3   118  THR118     -0.2211
     53  CG2       81.6580   -3.6110  135.1990 C.3   118  THR118      0.0375
     54  N         78.3510   -8.7440  135.8550 N.3   152  LEU152     -0.1245
     55  CA        79.7340   -9.1840  135.9690 C.3   152  LEU152      0.1561
     56  C         80.2630   -8.8450  137.3530 C.2   152  LEU152      0.2260
     57  O         80.4730   -7.6770  137.6640 O.2   152  LEU152     -0.2867
     58  CB        80.5860   -8.5080  134.8910 C.3   152  LEU152      0.0270
     59  CG        82.0980   -8.6840  134.9330 C.3   152  LEU152      0.0019
     60  CD1       82.5130  -10.1810  134.8110 C.3   152  LEU152      0.0001
     61  CD2       82.6600   -7.8170  133.7810 C.3   152  LEU152      0.0001
     62  N         85.0360  -13.3020  135.8130 N.3   177  ASN177     -0.1240
     63  CA        86.1020  -13.5210  134.8490 C.3   177  ASN177      0.1653
     64  C         87.3420  -14.1160  135.4830 C.2   177  ASN177      0.2266
     65  O         87.8620  -13.5920  136.4660 O.2   177  ASN177     -0.2867
     66  CB        86.4240  -12.2050  134.1340 C.3   177  ASN177      0.1155
     67  CG        85.2960  -11.7480  133.2290 C.2   177  ASN177      0.2627
     68  OD1       84.4330  -12.5430  132.8430 O.2   177  ASN177     -0.2716
     69  ND2       85.3060  -10.4710  132.8650 N.am  177  ASN177     -0.0877
     70  N         90.0990  -14.5920  133.6970 N.3   179  GLU179     -0.1245
     71  CA        91.0860  -13.7050  133.0750 C.3   179  GLU179      0.1567
     72  C         92.3720  -14.3660  132.6060 C.2   179  GLU179      0.2260
     73  O         92.8240  -14.1170  131.4810 O.2   179  GLU179     -0.2867
     74  CB        91.4550  -12.5350  134.0200 C.3   179  GLU179      0.0388
     75  CG        90.2950  -11.7030  134.5570 C.3   179  GLU179      0.1160
     76  CD        89.4010  -11.0670  133.5070 C.2   179  GLU179      0.3649
     77  OE1       88.7510  -10.0410  133.8220 O.co2 179  GLU179     -0.2457
     78  OE2       89.2660  -11.5940  132.3990 O.co2 179  GLU179     -0.2457
     79  N         85.7380  -14.8380  130.9080 N.3   214  ASN214     -0.1240
     80  CA        86.5740  -14.0890  129.9810 C.3   214  ASN214      0.1653
     81  C         88.0130  -14.4930  130.1940 C.2   214  ASN214      0.2266
     82  O         88.3900  -14.8420  131.3210 O.2   214  ASN214     -0.2867
     83  CB        86.4160  -12.5820  130.2110 C.3   214  ASN214      0.1155
     84  CG        87.2780  -11.7350  129.2760 C.2   214  ASN214      0.2627
     85  OD1       86.9520  -11.5940  128.1110 O.2   214  ASN214     -0.2716
     86  ND2       88.3410  -11.1140  129.8160 N.am  214  ASN214     -0.0877
     87  N         91.9530  -12.9090  129.2110 N.3   216  ILE216     -0.1245
     88  CA        92.7370  -11.8100  128.7070 C.3   216  ILE216      0.1561
     89  C         94.0940  -12.3500  128.2630 C.2   216  ILE216      0.2260
     90  O         94.9000  -12.7420  129.1020 O.2   216  ILE216     -0.2867
     91  CB        92.9610  -10.7310  129.7830 C.3   216  ILE216      0.0252
     92  CG1       91.6350  -10.1330  130.2810 C.3   216  ILE216      0.0019
     93  CG2       93.8670   -9.6600  129.2510 C.3   216  ILE216      0.0019
     94  CD1       91.8250   -9.0870  131.3950 C.3   216  ILE216      0.0001
     95  N         90.1620  -12.6180  124.4130 N.3   244  THR244     -0.1203
     96  CA        90.4480  -11.2160  124.1350 C.3   244  THR244      0.1994
     97  C         91.9330  -10.8960  124.2200 C.2   244  THR244      0.2618
     98  O         92.7260  -11.7110  124.6940 O.2   244  THR244     -0.2717
     99  CB        89.7490  -10.2990  125.1400 C.3   244  THR244      0.1784
    100  OG1       90.4230  -10.4050  126.3900 O.3   244  THR244     -0.2211
    101  CG2       88.2610  -10.6580  125.3270 C.3   244  THR244      0.0376
    102  N         92.3010   -9.6900  123.7900 N.am  245  GLN245     -0.1965
    103  CA        93.6890   -9.2250  123.8740 C.3   245  GLN245      0.1733
    104  C         93.8760   -8.1610  124.9560 C.2   245  GLN245      0.2616
    105  O         93.1350   -7.1790  125.0170 O.2   245  GLN245     -0.2715
    106  CB        94.1430   -8.6470  122.5280 C.3   245  GLN245      0.0408
    107  CG        95.4960   -7.9180  122.5790 C.3   245  GLN245      0.0908
    108  CD        96.6800   -8.8770  122.6410 C.2   245  GLN245      0.2608
    109  OE1       96.7670   -9.8150  121.8500 O.2   245  GLN245     -0.2717
    110  NE2       97.6010   -8.6310  123.5710 N.am  245  GLN245     -0.0878
    111  N         94.8940   -8.3560  125.7880 N.am  246  TYR246     -0.1960
    112  CA        95.3220   -7.3600  126.7630 C.3   246  TYR246      0.1771
    113  C         95.8230   -6.0970  126.0800 C.2   246  TYR246      0.2619
    114  O         96.6920   -6.1680  125.2060 O.2   246  TYR246     -0.2715
    115  CB        96.4420   -7.9360  127.6340 C.3   246  TYR246      0.0574
    116  CG        97.1130   -6.9680  128.5750 C.ar  246  TYR246     -0.0198
    117  CD1       96.3690   -6.1850  129.4430 C.ar  246  TYR246     -0.0009
    118  CD2       98.5020   -6.8920  128.6530 C.ar  246  TYR246     -0.0009
    119  CE1       96.9780   -5.3330  130.3360 C.ar  246  TYR246      0.0417
    120  CE2       99.1260   -6.0200  129.5470 C.ar  246  TYR246      0.0417
    121  CZ        98.3550   -5.2430  130.3800 C.ar  246  TYR246      0.1957
    122  OH        98.9400   -4.3800  131.2790 O.3   246  TYR246     -0.2866
    123  N         95.2940   -4.9480  126.4960 N.am  247  LEU247     -0.1977
    124  CA        95.9360   -3.6580  126.1960 C.3   247  LEU247      0.1596
    125  C         96.5090   -3.0630  127.4740 C.2   247  LEU247      0.2287
    126  O         95.8190   -2.9670  128.4700 O.2   247  LEU247     -0.2864
    127  CB        94.9550   -2.6680  125.5680 C.3   247  LEU247      0.0297
    128  CG        94.5300   -3.0090  124.1480 C.3   247  LEU247      0.0022
    129  CD1       93.5680   -1.9470  123.6800 C.3   247  LEU247      0.0001
    130  CD2       95.7380   -3.0870  123.2060 C.3   247  LEU247      0.0001
    131  N         97.3990   -0.4240  129.9970 N.3   249  PRO249     -0.2116
    132  CA        96.9300    0.9430  130.2990 C.3   249  PRO249      0.1372
    133  C         98.0600    1.9520  130.5170 C.2   249  PRO249      0.2244
    134  O         97.9020    3.1070  130.1660 O.2   249  PRO249     -0.2868
    135  CB        96.1300    0.7780  131.5950 C.3   249  PRO249      0.0268
    136  CG        95.7960   -0.6930  131.6640 C.3   249  PRO249      0.0207
    137  CD        96.9350   -1.3970  131.0060 C.3   249  PRO249      0.0892
    138  N         85.4890   -7.7520  124.4080 N.3   287  ARG287     -0.1231
    139  CA        85.5140   -7.5710  125.8660 C.3   287  ARG287      0.1694
    140  C         84.2970   -8.2920  126.4770 C.2   287  ARG287      0.2592
    141  O         83.3730   -8.6500  125.7640 O.2   287  ARG287     -0.2718
    142  CB        85.5190   -6.0810  126.2320 C.3   287  ARG287      0.0321
    143  CG        86.7830   -5.3270  125.7830 C.3   287  ARG287      0.0489
    144  CD        87.9990   -5.8670  126.5400 C.3   287  ARG287      0.2205
    145  NE        89.2300   -5.0820  126.3720 N.pl3 287  ARG287     -0.0865
    146  CZ        90.2440   -5.4380  125.5870 C.cat 287  ARG287      0.5346
    147  NH1       90.1640   -6.5470  124.8630 N.pl3 287  ARG287      0.1354
    148  NH2       91.3360   -4.6930  125.5250 N.pl3 287  ARG287      0.1354
    149  N         84.3190   -8.5060  127.7860 N.am  288  SER288     -0.1952
    150  CA        83.2620   -9.2510  128.4700 C.3   288  SER288      0.1924
    151  C         81.8410   -8.7510  128.1170 C.2   288  SER288      0.2314
    152  O         80.9570   -9.5620  127.9030 O.2   288  SER288     -0.2863
    153  CB        83.4970   -9.1980  129.9900 C.3   288  SER288      0.2116
    154  OG        82.3970   -9.7570  130.6900 O.3   288  SER288     -0.2180
@<TRIPOS>BOND
     1   109   108    2
     2   106   107    1
     3   106   103    1
     4   107   108    1
     5   108   110   am
     6   130   128    1
     7   129   128    1
     8   102   103    1
     9   102    97   am
    10   103   104    1
    11    96    97    1
    12    96    95    1
    13    96    99    1
    14   128   127    1
    15    97    98    2
    16   138   139    1
    17   147   146    1
    18   104   105    2
    19   104   111   am
    20    99   101    1
    21    99   100    1
    22   114   113    2
    23   148   146    1
    24   127   124    1
    25   146   145    2
    26   141   140    2
    27   143   142    1
    28   143   144    1
    29   111   112    1
    30   139   142    1
    31   139   140    1
    32   113   123   am
    33   113   112    1
    34   124   123    1
    35   124   125    1
    36   145   144    1
    37   140   149   am
    38   112   115    1
    39   125   126    2
    40   115   116    1
    41   149   150    1
    42   152   151    2
    43    85    84    2
    44   151   150    1
    45    89    88    1
    46    89    90    2
    47   150   153    1
    48   116   118   ar
    49   116   117   ar
    50   118   120   ar
    51    88    87    1
    52    88    91    1
    53    93    91    1
    54    84    86   am
    55    84    83    1
    56   117   119   ar
    57   120   121   ar
    58    91    92    1
    59    80    81    1
    60    80    83    1
    61    80    79    1
    62   153   154    1
    63   131   132    1
    64   131   137    1
    65   134   133    2
    66    81    82    2
    67    92    94    1
    68   132   133    1
    69   132   135    1
    70   119   121   ar
    71   121   122    1
    72    11    10    2
    73   137   136    1
    74    10     9    1
    75    73    72    2
    76   135   136    1
    77    37    36    2
    78     4     3    2
    79     3     2    1
    80    38    36   am
    81    36    35    1
    82     6     5    1
    83    78    76   ar
    84    12     9    1
    85    72    71    1
    86     9     8    1
    87    68    67    2
    88    69    67   am
    89    16    15    2
    90    17    14    1
    91    17    18    1
    92    71    70    1
    93    71    74    1
    94    67    66    1
    95     2     1    1
    96     2     5    1
    97    35    34    1
    98     5     7    1
    99    76    77   ar
   100    76    75    1
   101    61    59    1
   102    14    15    1
   103    14    13    1
   104    18    19   ar
   105    18    20   ar
   106    19    21   ar
   107    15    24   am
   108    74    75    1
   109    34    31    1
   110    66    63    1
   111    20    22   ar
   112    21    23   ar
   113    60    59    1
   114    63    64    1
   115    63    62    1
   116    58    59    1
   117    58    55    1
   118    30    31    1
   119    30    26   am
   120    24    25    1
   121    53    51    1
   122    22    23   ar
   123    31    32    1
   124    25    26    1
   125    25    28    1
   126    64    65    2
   127    26    27    2
   128    51    52    1
   129    51    48    1
   130    47    48    1
   131    54    55    1
   132    55    56    1
   133    32    33    2
   134    32    39   am
   135    28    29    1
   136    48    49    1
   137    44    46    1
   138    44    43    1
   139    39    40    1
   140    56    57    2
   141    40    43    1
   142    40    41    1
   143    49    50    2
   144    43    45    1
   145    41    42    2
