@<TRIPOS>MOLECULE
tmp/5exkA02.pdb
 147 139 0 0 0
SMALL
GASTEIGER

@<TRIPOS>ATOM
      1  N         82.2640    1.3880  133.3410 N.3    51  VAL51      -0.1245
      2  CA        83.5570    0.7520  133.2970 C.3    51  VAL51       0.1561
      3  C         84.1940    1.1600  131.9670 C.2    51  VAL51       0.2260
      4  O         85.4110    1.2450  131.8590 O.2    51  VAL51      -0.2867
      5  CB        83.4540   -0.7730  133.4330 C.3    51  VAL51       0.0252
      6  CG1       82.6100   -1.3710  132.2800 C.3    51  VAL51       0.0019
      7  CG2       84.8620   -1.4020  133.5140 C.3    51  VAL51       0.0019
      8  N         79.3820    0.8080  136.0060 N.3    72  LEU72      -0.1245
      9  CA        80.2920    0.3940  137.0670 C.3    72  LEU72       0.1561
     10  C         79.6840    0.8510  138.3710 C.2    72  LEU72       0.2260
     11  O         79.6480    2.0420  138.6530 O.2    72  LEU72      -0.2867
     12  CB        81.6870    0.9920  136.8970 C.3    72  LEU72       0.0270
     13  CG        82.7700    0.6120  137.9180 C.3    72  LEU72       0.0019
     14  CD1       83.4600   -0.7130  137.5740 C.3    72  LEU72       0.0001
     15  CD2       83.8150    1.7030  138.0090 C.3    72  LEU72       0.0001
     16  N         88.4680    1.1010  143.5430 N.3    78  CYS78      -0.1235
     17  CA        88.3750   -0.3180  143.8540 C.3    78  CYS78       0.1677
     18  C         89.2400   -0.6470  145.0650 C.2    78  CYS78       0.2270
     19  O         90.2790   -0.0280  145.2680 O.2    78  CYS78      -0.2867
     20  CB        88.7880   -1.1670  142.6470 C.3    78  CYS78       0.0956
     21  SG        88.5070   -2.9240  142.9320 S.3    78  CYS78      -0.0801
     22  N         94.5150   -5.1050  140.1920 N.3    82  CYS82      -0.1235
     23  CA        94.8730   -6.1680  139.2500 C.3    82  CYS82       0.1677
     24  C         95.7800   -5.5820  138.1830 C.2    82  CYS82       0.2270
     25  O         95.5600   -4.4480  137.7790 O.2    82  CYS82      -0.2867
     26  CB        93.6160   -6.7720  138.6190 C.3    82  CYS82       0.0956
     27  SG        92.4630   -7.3750  139.8670 S.3    82  CYS82      -0.0801
     28  N         96.3470   -5.5600  135.1410 N.3    84  PHE84      -0.1227
     29  CA        95.8750   -5.1400  133.8100 C.3    84  PHE84       0.1736
     30  C         94.8900   -3.9670  133.9140 C.2    84  PHE84       0.2595
     31  O         94.4610   -3.4120  132.9070 O.2    84  PHE84      -0.2718
     32  CB        95.1850   -6.2990  133.0650 C.3    84  PHE84       0.0547
     33  CG        94.0350   -6.9200  133.8320 C.ar   84  PHE84      -0.0202
     34  CD1       92.7980   -6.2840  133.9050 C.ar   84  PHE84      -0.0042
     35  CD2       94.2010   -8.1350  134.4950 C.ar   84  PHE84      -0.0042
     36  CE1       91.7430   -6.8570  134.6270 C.ar   84  PHE84      -0.0003
     37  CE2       93.1530   -8.7000  135.2210 C.ar   84  PHE84      -0.0003
     38  CZ        91.9290   -8.0580  135.2810 C.ar   84  PHE84      -0.0000
     39  N         94.4890   -3.6240  135.1320 N.am   85  CYS85      -0.1970
     40  CA        93.3110   -2.7720  135.3060 C.3    85  CYS85       0.1712
     41  C         93.7020   -1.3430  135.6640 C.2    85  CYS85       0.2296
     42  O         94.4900   -1.1370  136.5630 O.2    85  CYS85      -0.2864
     43  CB        92.3680   -3.3420  136.3950 C.3    85  CYS85       0.0983
     44  SG        90.8460   -2.3700  136.5790 S.3    85  CYS85      -0.0798
     45  N         91.4370    1.0290  136.6200 N.3    87  ILE87      -0.1245
     46  CA        90.5060    1.6000  137.5950 C.3    87  ILE87       0.1561
     47  C         91.2700    1.9300  138.8940 C.2    87  ILE87       0.2260
     48  O         92.0810    1.1330  139.3560 O.2    87  ILE87      -0.2867
     49  CB        89.3190    0.6340  137.8530 C.3    87  ILE87       0.0252
     50  CG1       88.4430    0.5510  136.5980 C.3    87  ILE87       0.0019
     51  CG2       88.5010    1.0670  139.0690 C.3    87  ILE87       0.0019
     52  CD1       87.2640   -0.3720  136.7320 C.3    87  ILE87       0.0001
     53  N         78.6610   -4.0200  135.7830 N.3   118  THR118     -0.1203
     54  CA        79.7290   -4.5710  136.5930 C.3   118  THR118      0.1994
     55  C         79.9920   -3.5620  137.7060 C.2   118  THR118      0.2618
     56  O         79.2120   -2.6150  137.8920 O.2   118  THR118     -0.2717
     57  CB        81.0050   -4.8830  135.7430 C.3   118  THR118      0.1784
     58  OG1       81.9530   -5.6420  136.5110 O.3   118  THR118     -0.2211
     59  CG2       81.6580   -3.6110  135.1990 C.3   118  THR118      0.0376
     60  N         81.0600   -3.7430  138.4600 N.am  119  GLY119     -0.1942
     61  CA        81.3720   -2.7850  139.5120 C.3   119  GLY119      0.2014
     62  C         82.7450   -3.0640  140.0790 C.2   119  GLY119      0.2639
     63  O         83.4260   -3.9870  139.6250 O.2   119  GLY119     -0.2714
     64  N         83.1320   -2.2970  141.0900 N.am  120  VAL120     -0.1963
     65  CA        84.3820   -2.5250  141.7850 C.3   120  VAL120      0.1727
     66  C         84.2420   -3.5000  142.9490 C.2   120  VAL120      0.2616
     67  O         83.1390   -3.8030  143.4000 O.2   120  VAL120     -0.2715
     68  CB        84.9560   -1.2030  142.3170 C.3   120  VAL120      0.0290
     69  CG1       85.3130   -0.2740  141.1610 C.3   120  VAL120      0.0023
     70  CG2       83.9730   -0.5290  143.2680 C.3   120  VAL120      0.0023
     71  N         85.3770   -3.9860  143.4300 N.am  121  ALA121     -0.1977
     72  CA        85.4140   -4.7440  144.6650 C.3   121  ALA121      0.1597
     73  C         85.1610   -3.7760  145.8130 C.2   121  ALA121      0.2287
     74  O         85.5970   -2.6290  145.7680 O.2   121  ALA121     -0.2864
     75  CB        86.7460   -5.4480  144.8500 C.3   121  ALA121      0.0319
     76  N         78.3510   -8.7440  135.8550 N.3   152  LEU152     -0.1231
     77  CA        79.7340   -9.1840  135.9690 C.3   152  LEU152      0.1693
     78  C         80.2630   -8.8450  137.3530 C.2   152  LEU152      0.2592
     79  O         80.4730   -7.6770  137.6640 O.2   152  LEU152     -0.2718
     80  CB        80.5860   -8.5080  134.8910 C.3   152  LEU152      0.0284
     81  CG        82.0980   -8.6840  134.9330 C.3   152  LEU152      0.0019
     82  CD1       82.5130  -10.1810  134.8110 C.3   152  LEU152      0.0001
     83  CD2       82.6600   -7.8170  133.7810 C.3   152  LEU152      0.0001
     84  N         80.4700   -9.8700  138.1710 N.am  153  ILE153     -0.1966
     85  CA        80.7680   -9.6840  139.6000 C.3   153  ILE153      0.1712
     86  C         82.2200   -9.9680  139.9540 C.2   153  ILE153      0.2458
     87  O         82.9020  -10.7060  139.2250 O.2   153  ILE153     -0.2730
     88  CB        79.8760  -10.5990  140.4660 C.3   153  ILE153      0.0289
     89  CG1       80.0250  -12.0720  140.0520 C.3   153  ILE153      0.0022
     90  CG2       78.4310  -10.2020  140.3180 C.3   153  ILE153      0.0023
     91  CD1       79.5130  -13.0500  141.1200 C.3   153  ILE153      0.0001
     92  N         82.6900   -9.3920  141.0850 N.am  154  PRO154     -0.2727
     93  CA        83.8900   -9.8820  141.7630 C.3   154  PRO154      0.1402
     94  C         83.5710  -11.2470  142.3870 C.2   154  PRO154      0.2269
     95  O         82.5260  -11.8030  142.0310 O.2   154  PRO154     -0.2865
     96  CB        84.1600   -8.8090  142.8230 C.3   154  PRO154      0.0296
     97  CG        82.7610   -8.3140  143.1730 C.3   154  PRO154      0.0237
     98  CD        82.0650   -8.2710  141.8170 C.3   154  PRO154      0.0939
     99  N         81.6680  -13.8480  135.6990 N.3   176  HIS176     -0.1226
    100  CA        82.7850  -13.6510  136.6170 C.3   176  HIS176      0.1752
    101  C         84.0160  -14.1470  135.8860 C.2   176  HIS176      0.2596
    102  O         84.0470  -15.2720  135.3980 O.2   176  HIS176     -0.2718
    103  CB        82.5900  -14.3890  137.9560 C.3   176  HIS176      0.0759
    104  CG        83.7830  -14.2910  138.8570 C.ar  176  HIS176      0.0818
    105  ND1       84.1880  -13.1030  139.4260 N.ar  176  HIS176     -0.2268
    106  CD2       84.7090  -15.2140  139.2170 C.ar  176  HIS176      0.1154
    107  CE1       85.2880  -13.3060  140.1330 C.ar  176  HIS176      0.1986
    108  NE2       85.6320  -14.5750  140.0120 N.ar  176  HIS176     -0.2212
    109  N         85.0360  -13.3020  135.8130 N.am  177  ASN177     -0.1974
    110  CA        86.1020  -13.5210  134.8490 C.3   177  ASN177      0.1688
    111  C         87.3420  -14.1160  135.4830 C.2   177  ASN177      0.2292
    112  O         87.8620  -13.5920  136.4660 O.2   177  ASN177     -0.2864
    113  CB        86.4240  -12.2050  134.1340 C.3   177  ASN177      0.1181
    114  CG        85.2960  -11.7480  133.2290 C.2   177  ASN177      0.2629
    115  OD1       84.4330  -12.5430  132.8430 O.2   177  ASN177     -0.2716
    116  ND2       85.3060  -10.4710  132.8650 N.am  177  ASN177     -0.0877
    117  N         90.0990  -14.5920  133.6970 N.3   179  GLU179     -0.1245
    118  CA        91.0860  -13.7050  133.0750 C.3   179  GLU179      0.1567
    119  C         92.3720  -14.3660  132.6060 C.2   179  GLU179      0.2260
    120  O         92.8240  -14.1170  131.4810 O.2   179  GLU179     -0.2867
    121  CB        91.4550  -12.5350  134.0200 C.3   179  GLU179      0.0388
    122  CG        90.2950  -11.7030  134.5570 C.3   179  GLU179      0.1160
    123  CD        89.4010  -11.0670  133.5070 C.2   179  GLU179      0.3649
    124  OE1       88.7510  -10.0410  133.8220 O.co2 179  GLU179     -0.2457
    125  OE2       89.2660  -11.5940  132.3990 O.co2 179  GLU179     -0.2457
    126  N         96.2770  -11.1320  139.3280 N.3   189  ARG189     -0.1245
    127  CA        95.1080  -10.8830  140.1530 C.3   189  ARG189      0.1563
    128  C         95.2740  -11.4360  141.5630 C.2   189  ARG189      0.2260
    129  O         94.5540  -12.3590  141.9580 O.2   189  ARG189     -0.2867
    130  CB        93.8690  -11.5200  139.5260 C.3   189  ARG189      0.0307
    131  CG        92.9790  -10.5430  138.8310 C.3   189  ARG189      0.0489
    132  CD        92.0570  -11.2620  137.9020 C.3   189  ARG189      0.2205
    133  NE        90.7140  -11.5590  138.4110 N.pl3 189  ARG189     -0.0865
    134  CZ        89.7530  -10.6650  138.5950 C.cat 189  ARG189      0.5346
    135  NH1       88.5460  -11.0820  138.9320 N.pl3 189  ARG189      0.1354
    136  NH2       89.9880   -9.3610  138.4320 N.pl3 189  ARG189      0.1354
    137  N         92.4770  -12.4870  144.1440 N.3   192  PHE192     -0.1241
    138  CA        91.6100  -13.5730  143.6940 C.3   192  PHE192      0.1605
    139  C         92.4080  -14.8730  143.6250 C.2   192  PHE192      0.2264
    140  O         93.6270  -14.8680  143.7970 O.2   192  PHE192     -0.2867
    141  CB        91.0120  -13.2760  142.3050 C.3   192  PHE192      0.0534
    142  CG        90.1440  -12.0360  142.2360 C.ar  192  PHE192     -0.0203
    143  CD1       88.7680  -12.1410  142.1460 C.ar  192  PHE192     -0.0042
    144  CD2       90.7080  -10.7660  142.2190 C.ar  192  PHE192     -0.0042
    145  CE1       87.9690  -10.9990  142.0530 C.ar  192  PHE192     -0.0003
    146  CE2       89.9250   -9.6430  142.1180 C.ar  192  PHE192     -0.0003
    147  CZ        88.5530   -9.7480  142.0350 C.ar  192  PHE192     -0.0000
@<TRIPOS>BOND
     1   120   119    2
     2     4     3    2
     3     3     2    1
     4     6     5    1
     5   125   123   ar
     6   119   118    1
     7   115   114    2
     8   116   114   am
     9    31    30    2
    10    32    29    1
    11    32    33    1
    12   118   117    1
    13   118   121    1
    14   114   113    1
    15     2     1    1
    16     2     5    1
    17     5     7    1
    18   123   124   ar
    19   123   122    1
    20    83    81    1
    21    29    30    1
    22    29    28    1
    23    33    34   ar
    24    33    35   ar
    25    34    36   ar
    26    30    39   am
    27   121   122    1
    28   113   110    1
    29    35    37   ar
    30    36    38   ar
    31    82    81    1
    32   110   111    1
    33   110   109    1
    34    80    81    1
    35    80    77    1
    36    39    40    1
    37    59    57    1
    38    37    38   ar
    39    40    41    1
    40    40    43    1
    41   102   101    2
    42   111   112    2
    43    41    42    2
    44    99   100    1
    45    57    58    1
    46    57    54    1
    47    53    54    1
    48   109   101   am
    49    76    77    1
    50   101   100    1
    51    77    78    1
    52     8     9    1
    53    43    44    1
    54    54    55    1
    55    50    52    1
    56    50    49    1
    57   100   103    1
    58    45    46    1
    59    12     9    1
    60    12    13    1
    61     9    10    1
    62    78    79    2
    63    78    84   am
    64    14    13    1
    65    46    49    1
    66    46    47    1
    67    55    56    2
    68    55    60   am
    69    25    24    2
    70    49    51    1
    71   132   133    1
    72   132   131    1
    73    13    15    1
    74   103   104    1
    75    84    85    1
    76    24    23    1
    77    10    11    2
    78   133   134    2
    79   136   134    1
    80    60    61    1
    81   134   135    1
    82    26    23    1
    83    26    27    1
    84   131   130    1
    85   104   106   ar
    86   104   105   ar
    87    47    48    2
    88   106   108   ar
    89    87    86    2
    90    23    22    1
    91   126   127    1
    92   105   107   ar
    93    61    62    1
    94   130   127    1
    95    85    86    1
    96    85    88    1
    97    63    62    2
    98    86    92   am
    99   108   107   ar
   100    89    88    1
   101    89    91    1
   102    62    64   am
   103   127   128    1
   104    90    88    1
   105    92    93    1
   106    92    98    1
   107    64    65    1
   108    69    68    1
   109   128   129    2
   110    93    94    1
   111    93    96    1
   112    65    68    1
   113    65    66    1
   114    98    97    1
   115    95    94    2
   116   147   145   ar
   117   147   146   ar
   118   145   143   ar
   119   146   144   ar
   120   143   142   ar
   121   144   142   ar
   122   142   141    1
   123   141   138    1
   124    68    70    1
   125    20    21    1
   126    20    17    1
   127    96    97    1
   128    66    67    2
   129    66    71   am
   130    71    72    1
   131    16    17    1
   132   139   138    1
   133   139   140    2
   134   138   137    1
   135    17    18    1
   136    72    75    1
   137    72    73    1
   138    18    19    2
   139    74    73    2
