@<TRIPOS>MOLECULE
tmp/5exlA00.pdb
 212 212 0 0 0
SMALL
GASTEIGER

@<TRIPOS>ATOM
      1  N         49.5620  -27.1740   37.2490 N.3    26  ARG26      -0.1231
      2  CA        49.2510  -25.8260   36.8100 C.3    26  ARG26       0.1694
      3  C         47.7940  -25.4900   37.1350 C.2    26  ARG26       0.2592
      4  O         46.9880  -26.3930   37.3360 O.2    26  ARG26      -0.2718
      5  CB        49.5460  -25.6580   35.3000 C.3    26  ARG26       0.0321
      6  CG        48.6540  -26.4610   34.3530 C.3    26  ARG26       0.0489
      7  CD        48.6540  -25.9170   32.9340 C.3    26  ARG26       0.2205
      8  NE        47.3790  -26.1690   32.2480 N.pl3  26  ARG26      -0.0865
      9  CZ        47.0380  -25.6560   31.0650 C.cat  26  ARG26       0.5346
     10  NH1       47.8730  -24.8500   30.4150 N.pl3  26  ARG26       0.1354
     11  NH2       45.8600  -25.9430   30.5260 N.pl3  26  ARG26       0.1354
     12  N         47.4660  -24.1900   37.1880 N.am   27  HIS27      -0.1962
     13  CA        46.1060  -23.6900   37.3420 C.3    27  HIS27       0.1787
     14  C         45.4140  -24.0470   36.0130 C.2    27  HIS27       0.2620
     15  O         45.9920  -23.8130   34.9350 O.2    27  HIS27      -0.2715
     16  CB        46.1200  -22.1620   37.5280 C.3    27  HIS27       0.0785
     17  CG        44.7930  -21.4820   37.2980 C.ar   27  HIS27       0.0821
     18  ND1       43.8860  -21.2890   38.3360 N.ar   27  HIS27      -0.2267
     19  CD2       44.2940  -20.9080   36.1710 C.ar   27  HIS27       0.1154
     20  CE1       42.8650  -20.6440   37.8050 C.ar   27  HIS27       0.1986
     21  NE2       43.0580  -20.3980   36.5000 N.ar   27  HIS27      -0.2212
     22  N         44.2030  -24.6210   36.1020 N.am   28  LEU28      -0.1963
     23  CA        43.3910  -24.9960   34.9510 C.3    28  LEU28       0.1728
     24  C         42.2340  -23.9920   34.7670 C.2    28  LEU28       0.2616
     25  O         42.0460  -23.4330   33.6830 O.2    28  LEU28      -0.2715
     26  CB        42.8490  -26.4470   35.1430 C.3    28  LEU28       0.0311
     27  CG        41.9020  -27.0120   34.0740 C.3    28  LEU28       0.0022
     28  CD1       42.6390  -27.2280   32.7400 C.3    28  LEU28       0.0001
     29  CD2       41.2020  -28.2910   34.5650 C.3    28  LEU28       0.0001
     30  N         41.4620  -23.7670   35.8400 N.am   29  CYS29      -0.1968
     31  CA        40.2690  -22.9260   35.8180 C.3    29  CYS29       0.1712
     32  C         39.9810  -22.3860   37.1870 C.2    29  CYS29       0.2296
     33  O         40.4680  -22.9010   38.1950 O.2    29  CYS29      -0.2864
     34  CB        39.0790  -23.7670   35.3460 C.3    29  CYS29       0.0983
     35  SG        38.9070  -23.8890   33.5510 S.3    29  CYS29      -0.0798
     36  N         33.6670  -26.7000   29.9120 N.3    44  HIS44      -0.1226
     37  CA        34.7880  -26.6770   28.9350 C.3    44  HIS44       0.1752
     38  C         36.1680  -26.8710   29.5660 C.2    44  HIS44       0.2596
     39  O         37.1220  -27.2490   28.8640 O.2    44  HIS44      -0.2718
     40  CB        34.7550  -25.4370   28.0200 C.3    44  HIS44       0.0759
     41  CG        35.2340  -24.1870   28.6880 C.ar   44  HIS44       0.0818
     42  ND1       34.3520  -23.2280   29.1330 N.ar   44  HIS44      -0.2268
     43  CD2       36.4970  -23.7960   28.9950 C.ar   44  HIS44       0.1154
     44  CE1       35.0930  -22.2920   29.7040 C.ar   44  HIS44       0.1986
     45  NE2       36.3890  -22.5990   29.6580 N.ar   44  HIS44      -0.2212
     46  N         36.2690  -26.6410   30.8940 N.am   45  CYS45      -0.1970
     47  CA        37.5160  -26.8090   31.6530 C.3    45  CYS45       0.1712
     48  C         38.0030  -28.2380   31.5870 C.2    45  CYS45       0.2296
     49  O         39.1980  -28.4750   31.7480 O.2    45  CYS45      -0.2864
     50  CB        37.3190  -26.3830   33.1060 C.3    45  CYS45       0.0983
     51  SG        37.0200  -24.6210   33.3280 S.3    45  CYS45      -0.0798
     52  N         37.8800  -30.4670   29.0080 N.3    47  TYR47      -0.1241
     53  CA        38.2580  -30.9940   27.6980 C.3    47  TYR47       0.1605
     54  C         39.5400  -31.8430   27.8480 C.2    47  TYR47       0.2264
     55  O         40.5360  -31.3670   28.3940 O.2    47  TYR47      -0.2867
     56  CB        38.4520  -29.8620   26.6530 C.3    47  TYR47       0.0534
     57  CG        38.8100  -30.4230   25.2960 C.ar   47  TYR47      -0.0201
     58  CD1       37.8260  -30.9210   24.4440 C.ar   47  TYR47      -0.0009
     59  CD2       40.1430  -30.5470   24.8980 C.ar   47  TYR47      -0.0009
     60  CE1       38.1540  -31.4710   23.2040 C.ar   47  TYR47       0.0417
     61  CE2       40.4840  -31.1330   23.6810 C.ar   47  TYR47       0.0417
     62  CZ        39.4830  -31.5670   22.8230 C.ar   47  TYR47       0.1957
     63  OH        39.8110  -32.1250   21.6090 O.3    47  TYR47      -0.2866
     64  N         44.9410  -14.2870   32.5080 N.3   134  TYR134     -0.1241
     65  CA        45.7850  -13.3170   31.7920 C.3   134  TYR134      0.1605
     66  C         45.2530  -11.8910   31.9260 C.2   134  TYR134      0.2264
     67  O         44.0520  -11.7050   32.1000 O.2   134  TYR134     -0.2867
     68  CB        45.8160  -13.6950   30.3060 C.3   134  TYR134      0.0534
     69  CG        46.5530  -14.9610   29.9080 C.ar  134  TYR134     -0.0201
     70  CD1       46.8560  -15.9470   30.8460 C.ar  134  TYR134     -0.0009
     71  CD2       46.8980  -15.2000   28.5770 C.ar  134  TYR134     -0.0009
     72  CE1       47.4700  -17.1400   30.4680 C.ar  134  TYR134      0.0417
     73  CE2       47.5270  -16.3850   28.1910 C.ar  134  TYR134      0.0417
     74  CZ        47.8050  -17.3510   29.1380 C.ar  134  TYR134      0.1957
     75  OH        48.4290  -18.5070   28.7530 O.3   134  TYR134     -0.2866
     76  N         50.6180  -14.5640   31.0930 N.3   140  LYS140     -0.1231
     77  CA        50.7570  -15.7410   31.9230 C.3   140  LYS140      0.1693
     78  C         49.7190  -15.6450   33.0610 C.2   140  LYS140      0.2591
     79  O         49.1260  -14.5770   33.2700 O.2   140  LYS140     -0.2718
     80  CB        52.2140  -15.8770   32.4350 C.3   140  LYS140      0.0285
     81  CG        52.7370  -14.7190   33.2840 C.3   140  LYS140      0.0035
     82  CD        54.0180  -15.0860   34.0430 C.3   140  LYS140      0.0206
     83  CE        55.3010  -14.9350   33.2390 C.3   140  LYS140      0.1093
     84  NZ        55.6880  -13.5080   33.0250 N.3   140  LYS140     -0.1314
     85  N         49.4960  -16.7600   33.7720 N.am  141  ILE141     -0.1980
     86  CA        48.5930  -16.8400   34.9300 C.3   141  ILE141      0.1595
     87  C         49.1240  -15.9000   36.0090 C.2   141  ILE141      0.2287
     88  O         50.3250  -15.9150   36.2980 O.2   141  ILE141     -0.2864
     89  CB        48.4600  -18.3290   35.4240 C.3   141  ILE141      0.0276
     90  CG1       47.6610  -19.1820   34.3960 C.3   141  ILE141      0.0022
     91  CG2       47.8670  -18.4570   36.8800 C.3   141  ILE141      0.0022
     92  CD1       46.2030  -18.6880   34.0190 C.3   141  ILE141      0.0001
     93  N         37.6140   -6.9980   31.5730 N.3   182  ASP182     -0.1225
     94  CA        36.9860   -8.2820   31.1980 C.3   182  ASP182      0.1805
     95  C         37.7150   -9.4680   31.8240 C.2   182  ASP182      0.2598
     96  O         38.8230   -9.3390   32.3200 O.2   182  ASP182     -0.2718
     97  CB        37.1050   -8.4640   29.6550 C.3   182  ASP182      0.1424
     98  CG        36.1350   -9.4170   28.9570 C.2   182  ASP182      0.3668
     99  OD1       35.2710  -10.0220   29.6570 O.co2 182  ASP182     -0.2456
    100  OD2       36.2060   -9.5220   27.7070 O.co2 182  ASP182     -0.2456
    101  N         37.1220  -10.6330   31.6760 N.am  183  ALA183     -0.1966
    102  CA        37.7310  -11.9150   31.9750 C.3   183  ALA183      0.1728
    103  C         38.6790  -12.2200   30.8010 C.2   183  ALA183      0.2616
    104  O         38.4930  -11.7090   29.6890 O.2   183  ALA183     -0.2715
    105  CB        36.6540  -12.9920   32.0550 C.3   183  ALA183      0.0334
    106  N         39.7090  -13.0020   31.0530 N.am  184  CYS184     -0.1954
    107  CA        40.6180  -13.4130   30.0020 C.3   184  CYS184      0.1843
    108  C         41.0350  -14.8720   30.2490 C.2   184  CYS184      0.2625
    109  O         40.4870  -15.5120   31.1480 O.2   184  CYS184     -0.2714
    110  CB        41.8090  -12.4610   29.8640 C.3   184  CYS184      0.0997
    111  SG        42.6410  -12.5460   28.2510 S.3   184  CYS184     -0.0797
    112  N         41.9350  -15.4110   29.4280 N.am  185  LYS185     -0.1963
    113  CA        42.4070  -16.8020   29.5060 C.3   185  LYS185      0.1728
    114  C         42.8490  -17.1690   30.9150 C.2   185  LYS185      0.2616
    115  O         43.6600  -16.4520   31.5070 O.2   185  LYS185     -0.2715
    116  CB        43.5350  -17.0410   28.4950 C.3   185  LYS185      0.0311
    117  CG        43.0780  -16.7970   27.0630 C.3   185  LYS185      0.0038
    118  CD        44.2370  -16.8270   26.0980 C.3   185  LYS185      0.0206
    119  CE        43.7550  -16.7900   24.6700 C.3   185  LYS185      0.1093
    120  NZ        44.6950  -17.5050   23.7640 N.3   185  LYS185     -0.1314
    121  N         42.2810  -18.2490   31.4490 N.am  186  GLY186     -0.1955
    122  CA        42.5790  -18.7180   32.8010 C.3   186  GLY186      0.1869
    123  C         41.5460  -18.2970   33.8330 C.2   186  GLY186      0.2309
    124  O         41.5870  -18.7730   34.9730 O.2   186  GLY186     -0.2863
    125  N         38.1810  -18.6220   33.1670 N.3   188  SER188     -0.1217
    126  CA        37.0180  -19.4730   32.8810 C.3   188  SER188      0.1889
    127  C         36.6740  -20.4550   34.0180 C.2   188  SER188      0.2288
    128  O         37.5720  -20.9440   34.7230 O.2   188  SER188     -0.2866
    129  CB        37.1340  -20.1190   31.5090 C.3   188  SER188      0.2089
    130  OG        37.9640  -21.2670   31.5610 O.3   188  SER188     -0.2183
    131  N         32.2430  -17.6230   34.2520 N.3   206  THR206     -0.1203
    132  CA        33.0700  -17.1640   33.1200 C.3   206  THR206      0.1994
    133  C         33.1560  -18.2750   32.0770 C.2   206  THR206      0.2619
    134  O         33.5740  -19.3920   32.3860 O.2   206  THR206     -0.2717
    135  CB        34.4200  -16.6620   33.6260 C.3   206  THR206      0.1784
    136  OG1       34.1800  -15.6320   34.5980 O.3   206  THR206     -0.2211
    137  CG2       35.3300  -16.1720   32.4810 C.3   206  THR206      0.0376
    138  N         32.6810  -17.9890   30.8670 N.am  207  SER207     -0.1937
    139  CA        32.5770  -19.0050   29.8230 C.3   207  SER207      0.2055
    140  C         33.3960  -18.7340   28.5610 C.2   207  SER207      0.2643
    141  O         34.3920  -19.4230   28.3160 O.2   207  SER207     -0.2714
    142  CB        31.1040  -19.2920   29.5130 C.3   207  SER207      0.2130
    143  OG        30.9590  -20.3450   28.5770 O.3   207  SER207     -0.2179
    144  N         32.9770  -17.7540   27.7540 N.am  208  TRP208     -0.1959
    145  CA        33.6880  -17.4720   26.5090 C.3   208  TRP208      0.1771
    146  C         33.5270  -16.0110   26.0830 C.2   208  TRP208      0.2620
    147  O         32.8330  -15.2370   26.7340 O.2   208  TRP208     -0.2715
    148  CB        33.2360  -18.4750   25.3960 C.3   208  TRP208      0.0590
    149  CG        31.8010  -18.3120   24.9920 C.ar  208  TRP208      0.0006
    150  CD1       30.7040  -18.7860   25.6480 C.ar  208  TRP208      0.0946
    151  CD2       31.3060  -17.5320   23.8880 C.ar  208  TRP208      0.0152
    152  NE1       29.5540  -18.3880   24.9980 N.ar  208  TRP208     -0.2442
    153  CE2       29.8960  -17.6390   23.9000 C.ar  208  TRP208      0.0810
    154  CE3       31.9270  -16.8140   22.8380 C.ar  208  TRP208      0.0012
    155  CZ2       29.0920  -17.0230   22.9330 C.ar  208  TRP208      0.0191
    156  CZ3       31.1260  -16.2050   21.8770 C.ar  208  TRP208      0.0001
    157  CH2       29.7270  -16.3110   21.9320 C.ar  208  TRP208      0.0015
    158  N         34.1810  -15.6590   24.9900 N.am  209  GLY209     -0.1954
    159  CA        34.1190  -14.3330   24.3960 C.3   209  GLY209      0.1869
    160  C         35.0480  -14.2670   23.2110 C.2   209  GLY209      0.2309
    161  O         35.8640  -15.1750   23.0290 O.2   209  GLY209     -0.2863
    162  N         38.1220  -12.6520   22.0370 N.3   211  GLY211     -0.1210
    163  CA        39.2820  -11.9700   22.6020 C.3   211  GLY211      0.1956
    164  C         39.0560  -11.6090   24.0610 C.2   211  GLY211      0.2612
    165  O         38.1970  -12.2070   24.7190 O.2   211  GLY211     -0.2717
    166  N         39.7970  -10.6090   24.5680 N.am  212  CYS212     -0.1970
    167  CA        39.6960  -10.1610   25.9590 C.3   212  CYS212      0.1712
    168  C         39.5770   -8.6400   26.0120 C.2   212  CYS212      0.2296
    169  O         40.4590   -7.9630   25.4870 O.2   212  CYS212     -0.2864
    170  CB        40.9060  -10.6310   26.7640 C.3   212  CYS212      0.0983
    171  SG        41.1160  -12.4280   26.8520 S.3   212  CYS212     -0.0798
    172  N         32.6790   -6.3360   22.5370 N.3   217  ARG217     -0.1231
    173  CA        32.8100   -7.7880   22.6430 C.3   217  ARG217      0.1679
    174  C         32.7260   -8.1430   24.1270 C.2   217  ARG217      0.2434
    175  O         33.7660   -8.3430   24.7600 O.2   217  ARG217     -0.2733
    176  CB        34.1060   -8.2860   21.9850 C.3   217  ARG217      0.0321
    177  CG        34.1300   -8.1550   20.4650 C.3   217  ARG217      0.0489
    178  CD        33.0810   -8.9890   19.7500 C.3   217  ARG217      0.2205
    179  NE        33.4760   -9.1840   18.3550 N.pl3 217  ARG217     -0.0865
    180  CZ        32.9610  -10.0990   17.5470 C.cat 217  ARG217      0.5346
    181  NH1       32.0000  -10.9070   17.9760 N.pl3 217  ARG217      0.1354
    182  NH2       33.4040  -10.2170   16.3020 N.pl3 217  ARG217      0.1354
    183  N         31.4950   -8.1300   24.7270 N.am  218  PRO218     -0.2718
    184  CA        31.3910   -8.4300   26.1650 C.3   218  PRO218      0.1535
    185  C         31.6960   -9.8920   26.4660 C.2   218  PRO218      0.2599
    186  O         31.6440  -10.7120   25.5730 O.2   218  PRO218     -0.2715
    187  CB        29.9410   -8.0540   26.5140 C.3   218  PRO218      0.0310
    188  CG        29.1970   -8.1080   25.2220 C.3   218  PRO218      0.0237
    189  CD        30.1600   -7.9310   24.1080 C.3   218  PRO218      0.0939
    190  N         32.0860  -10.1820   27.7020 N.am  219  GLY219     -0.1941
    191  CA        32.3470  -11.5510   28.1200 C.3   219  GLY219      0.2014
    192  C         31.0220  -12.2800   28.1720 C.2   219  GLY219      0.2639
    193  O         30.0150  -11.6810   28.5470 O.2   219  GLY219     -0.2714
    194  N         30.9950  -13.5510   27.7400 N.am  220  VAL220     -0.1963
    195  CA        29.7840  -14.3910   27.7900 C.3   220  VAL220      0.1727
    196  C         29.9280  -15.3700   28.9580 C.2   220  VAL220      0.2616
    197  O         30.9970  -15.9730   29.1530 O.2   220  VAL220     -0.2715
    198  CB        29.4220  -15.0630   26.4390 C.3   220  VAL220      0.0290
    199  CG1       28.0220  -15.6820   26.5100 C.3   220  VAL220      0.0023
    200  CG2       29.5020  -14.0450   25.2670 C.3   220  VAL220      0.0023
    201  N         28.8630  -15.4670   29.7670 N.am  221  TYR221     -0.1974
    202  CA        28.8050  -16.2330   31.0050 C.3   221  TYR221      0.1639
    203  C         27.6220  -17.1790   31.0080 C.2   221  TYR221      0.2290
    204  O         26.5990  -16.8670   30.4090 O.2   221  TYR221     -0.2864
    205  CB        28.6560  -15.2590   32.1990 C.3   221  TYR221      0.0560
    206  CG        29.8000  -14.2720   32.3610 C.ar  221  TYR221     -0.0198
    207  CD1       29.8690  -13.1120   31.5860 C.ar  221  TYR221     -0.0009
    208  CD2       30.8000  -14.4820   33.3110 C.ar  221  TYR221     -0.0009
    209  CE1       30.9170  -12.2060   31.7370 C.ar  221  TYR221      0.0417
    210  CE2       31.8550  -13.5850   33.4640 C.ar  221  TYR221      0.0417
    211  CZ        31.9090  -12.4450   32.6790 C.ar  221  TYR221      0.1957
    212  OH        32.9570  -11.5620   32.8620 O.3   221  TYR221     -0.2866
@<TRIPOS>BOND
     1   182   180    1
     2   180   181    1
     3   180   179    2
     4   179   178    1
     5   178   177    1
     6   177   176    1
     7    63    62    1
     8   156   157   ar
     9   156   154   ar
    10   157   155   ar
    11   176   173    1
    12   162   163    1
    13   172   173    1
    14   163   164    1
    15   173   174    1
    16    62    60   ar
    17    62    61   ar
    18   154   151   ar
    19   155   153   ar
    20   161   160    2
    21    60    58   ar
    22   160   159    1
    23    61    59   ar
    24   120   119    1
    25   151   153   ar
    26   151   149   ar
    27   153   152   ar
    28   164   166   am
    29   164   165    2
    30   189   183    1
    31   189   188    1
    32   174   183   am
    33   174   175    2
    34   159   158    1
    35    58    57   ar
    36   166   167    1
    37   119   118    1
    38   183   184    1
    39    59    57   ar
    40   158   146   am
    41   149   148    1
    42   149   150   ar
    43   152   150   ar
    44   188   187    1
    45   200   198    1
    46    57    56    1
    47   148   145    1
    48   169   168    2
    49   186   185    2
    50   167   168    1
    51   167   170    1
    52   146   145    1
    53   146   147    2
    54   118   117    1
    55   184   185    1
    56   184   187    1
    57   198   199    1
    58   198   195    1
    59   185   190   am
    60   145   144    1
    61    56    53    1
    62   170   171    1
    63   171   111    1
    64   117   116    1
    65    53    54    1
    66    53    52    1
    67   190   191    1
    68   100    98   ar
    69   194   195    1
    70   194   192   am
    71   144   140   am
    72   195   196    1
    73    54    55    2
    74    40    41    1
    75    40    37    1
    76   191   192    1
    77   192   193    2
    78    73    71   ar
    79    73    74   ar
    80   111   110    1
    81   141   140    2
    82   116   113    1
    83   140   139    1
    84   143   142    1
    85    71    69   ar
    86    41    43   ar
    87    41    42   ar
    88    75    74    1
    89    39    38    2
    90    37    38    1
    91    37    36    1
    92    98    97    1
    93    98    99   ar
    94   196   197    2
    95   196   201   am
    96    43    45   ar
    97    42    44   ar
    98    74    72   ar
    99   112   113    1
   100   112   108   am
   101   113   114    1
   102   142   139    1
   103    38    46   am
   104    97    94    1
   105    45    44   ar
   106   104   103    2
   107   201   202    1
   108   139   138    1
   109   110   107    1
   110    69    68    1
   111    69    70   ar
   112   107   108    1
   113   107   106    1
   114   108   109    2
   115    68    65    1
   116   204   203    2
   117    10     9    1
   118    72    70   ar
   119    11     9    1
   120   103   106   am
   121   103   102    1
   122   138   133   am
   123    46    47    1
   124   114   121   am
   125   114   115    2
   126   202   203    1
   127   202   205    1
   128     9     8    2
   129    76    77    1
   130    94    93    1
   131    94    95    1
   132   121   122    1
   133   129   130    1
   134   129   126    1
   135   207   209   ar
   136   207   206   ar
   137    48    47    1
   138    48    49    2
   139    47    50    1
   140   101    95   am
   141   101   102    1
   142   209   211   ar
   143    65    66    1
   144    65    64    1
   145    95    96    2
   146    77    80    1
   147    77    78    1
   148    66    67    2
   149   102   105    1
   150   133   134    2
   151   133   132    1
   152   205   206    1
   153     8     7    1
   154   206   208   ar
   155    80    81    1
   156   137   135    1
   157   211   212    1
   158   211   210   ar
   159    28    27    1
   160   122   123    1
   161   126   125    1
   162   126   127    1
   163     7     6    1
   164    84    83    1
   165    78    79    2
   166    78    85   am
   167    50    51    1
   168   132   135    1
   169   132   131    1
   170    83    82    1
   171    81    82    1
   172   208   210   ar
   173    51    35    1
   174    35    34    1
   175   135   136    1
   176    25    24    2
   177    85    86    1
   178   123   124    2
   179   127   128    2
   180    92    90    1
   181    27    29    1
   182    27    26    1
   183     6     5    1
   184    90    89    1
   185    24    23    1
   186    24    30   am
   187    86    89    1
   188    86    87    1
   189    15    14    2
   190    23    26    1
   191    23    22    1
   192     5     2    1
   193    34    31    1
   194    89    91    1
   195    31    30    1
   196    31    32    1
   197    87    88    2
   198    14    22   am
   199    14    13    1
   200    19    21   ar
   201    19    17   ar
   202    21    20   ar
   203     2     3    1
   204     2     1    1
   205     3    12   am
   206     3     4    2
   207    32    33    2
   208    12    13    1
   209    17    16    1
   210    17    18   ar
   211    13    16    1
   212    20    18   ar
