@<TRIPOS>MOLECULE
tmp/5exmA00.pdb
 189 188 0 0 0
SMALL
GASTEIGER

@<TRIPOS>ATOM
      1  N         49.5550  -27.3280   37.4540 N.3    26  ARG26      -0.1182
      2  CA        49.3190  -25.9570   37.0350 C.3    26  ARG26       0.1910
      3  C         47.8550  -25.6040   37.2610 C.2    26  ARG26       0.2634
      4  O         47.0080  -26.5020   37.3210 O.2    26  ARG26      -0.2714
      5  CB        49.7200  -25.7750   35.5480 C.2    26  ARG26       0.0007
      6  CG        48.8210  -26.5180   34.5310 C.2    26  ARG26       0.0176
      7  CD        49.3060  -26.5530   33.0740 C.3    26  ARG26       0.2464
      8  NE        50.3730  -25.5950   32.7630 N.pl3  26  ARG26      -0.0815
      9  CZ        50.3510  -24.7270   31.7530 C.cat  26  ARG26       0.5349
     10  NH1       49.3060  -24.6730   30.9350 N.pl3  26  ARG26       0.1354
     11  NH2       51.3730  -23.9050   31.5550 N.pl3  26  ARG26       0.1354
     12  N         47.5700  -24.2980   37.3900 N.am   27  HIS27      -0.1959
     13  CA        46.2180  -23.7550   37.4840 C.3    27  HIS27       0.1787
     14  C         45.5310  -24.1150   36.1450 C.2    27  HIS27       0.2620
     15  O         46.1350  -23.9320   35.0700 O.2    27  HIS27      -0.2715
     16  CB        46.2750  -22.2280   37.6410 C.3    27  HIS27       0.0785
     17  CG        44.9600  -21.5320   37.3890 C.ar   27  HIS27       0.0821
     18  ND1       44.0230  -21.3610   38.4030 N.ar   27  HIS27      -0.2267
     19  CD2       44.4870  -20.9500   36.2580 C.ar   27  HIS27       0.1154
     20  CE1       43.0030  -20.7250   37.8530 C.ar   27  HIS27       0.1986
     21  NE2       43.2320  -20.4490   36.5630 N.ar   27  HIS27      -0.2212
     22  N         44.2940  -24.6190   36.2270 N.am   28  LEU28      -0.1963
     23  CA        43.4840  -24.9850   35.0680 C.3    28  LEU28       0.1728
     24  C         42.3340  -24.0000   34.8680 C.2    28  LEU28       0.2616
     25  O         42.1400  -23.4700   33.7650 O.2    28  LEU28      -0.2715
     26  CB        42.9170  -26.4120   35.2640 C.3    28  LEU28       0.0311
     27  CG        42.0340  -26.9810   34.1450 C.3    28  LEU28       0.0022
     28  CD1       42.8370  -27.1380   32.8250 C.3    28  LEU28       0.0001
     29  CD2       41.3620  -28.2960   34.5910 C.3    28  LEU28       0.0001
     30  N         41.5510  -23.7690   35.9430 N.am   29  CYS29      -0.1968
     31  CA        40.3400  -22.9610   35.8990 C.3    29  CYS29       0.1712
     32  C         40.0090  -22.3800   37.2630 C.2    29  CYS29       0.2296
     33  O         40.4790  -22.8740   38.2890 O.2    29  CYS29      -0.2864
     34  CB        39.1830  -23.8540   35.4270 C.3    29  CYS29       0.0983
     35  SG        39.0030  -23.9750   33.6260 S.3    29  CYS29      -0.0798
     36  N         33.7460  -26.6980   29.9640 N.3    44  HIS44      -0.1226
     37  CA        34.8770  -26.6750   28.9950 C.3    44  HIS44       0.1752
     38  C         36.2620  -26.9050   29.6360 C.2    44  HIS44       0.2596
     39  O         37.2090  -27.3180   28.9460 O.2    44  HIS44      -0.2718
     40  CB        34.8680  -25.4180   28.1020 C.3    44  HIS44       0.0759
     41  CG        35.2820  -24.1720   28.8300 C.ar   44  HIS44       0.0818
     42  ND1       34.3520  -23.2380   29.2420 N.ar   44  HIS44      -0.2268
     43  CD2       36.5070  -23.7920   29.2730 C.ar   44  HIS44       0.1154
     44  CE1       35.0360  -22.2950   29.8780 C.ar   44  HIS44       0.1986
     45  NE2       36.3330  -22.6000   29.9540 N.ar   44  HIS44      -0.2212
     46  N         36.3700  -26.6490   30.9510 N.am   45  CYS45      -0.1970
     47  CA        37.6070  -26.8600   31.7310 C.3    45  CYS45       0.1712
     48  C         38.0850  -28.2910   31.6520 C.2    45  CYS45       0.2296
     49  O         39.2760  -28.5410   31.8450 O.2    45  CYS45      -0.2864
     50  CB        37.3850  -26.4550   33.1890 C.3    45  CYS45       0.0983
     51  SG        37.1090  -24.6830   33.4250 S.3    45  CYS45      -0.0798
     52  N         37.9690  -30.4960   29.0400 N.3    47  TYR47      -0.1241
     53  CA        38.3250  -31.0310   27.7230 C.3    47  TYR47       0.1605
     54  C         39.5920  -31.9090   27.8650 C.2    47  TYR47       0.2264
     55  O         40.5960  -31.4620   28.4220 O.2    47  TYR47      -0.2867
     56  CB        38.5250  -29.9030   26.7000 C.3    47  TYR47       0.0534
     57  CG        38.8650  -30.4460   25.3330 C.ar   47  TYR47      -0.0201
     58  CD1       37.8650  -30.8910   24.4720 C.ar   47  TYR47      -0.0009
     59  CD2       40.1930  -30.6140   24.9380 C.ar   47  TYR47      -0.0009
     60  CE1       38.1720  -31.4330   23.2280 C.ar   47  TYR47       0.0417
     61  CE2       40.5140  -31.1730   23.7020 C.ar   47  TYR47       0.0417
     62  CZ        39.4970  -31.5640   22.8440 C.ar   47  TYR47       0.1957
     63  OH        39.7950  -32.1000   21.6220 O.3    47  TYR47      -0.2866
     64  N         45.0020  -14.1820   32.6340 N.3   134  TYR134     -0.1241
     65  CA        45.8530  -13.2090   31.9430 C.3   134  TYR134      0.1605
     66  C         45.3070  -11.7860   32.1040 C.2   134  TYR134      0.2264
     67  O         44.0980  -11.6070   32.2150 O.2   134  TYR134     -0.2867
     68  CB        45.8920  -13.5430   30.4340 C.3   134  TYR134      0.0534
     69  CG        46.6280  -14.7920   29.9850 C.ar  134  TYR134     -0.0201
     70  CD1       47.0030  -15.7810   30.8970 C.ar  134  TYR134     -0.0009
     71  CD2       46.8810  -15.0230   28.6360 C.ar  134  TYR134     -0.0009
     72  CE1       47.6130  -16.9630   30.4730 C.ar  134  TYR134      0.0417
     73  CE2       47.5030  -16.1940   28.2030 C.ar  134  TYR134      0.0417
     74  CZ        47.8700  -17.1580   29.1240 C.ar  134  TYR134      0.1957
     75  OH        48.4830  -18.2990   28.6750 O.3   134  TYR134     -0.2866
     76  N         50.5500  -14.4210   31.2060 N.3   140  LYS140     -0.1231
     77  CA        50.6960  -15.6240   31.9900 C.3   140  LYS140      0.1693
     78  C         49.7120  -15.5360   33.1410 C.2   140  LYS140      0.2591
     79  O         49.1930  -14.4570   33.4230 O.2   140  LYS140     -0.2718
     80  CB        52.1570  -15.8080   32.4710 C.3   140  LYS140      0.0285
     81  CG        52.7470  -14.6420   33.2620 C.3   140  LYS140      0.0035
     82  CD        54.1060  -15.0050   33.8640 C.3   140  LYS140      0.0206
     83  CE        55.2860  -14.7190   32.9530 C.3   140  LYS140      0.1093
     84  NZ        55.6590  -13.2760   32.9460 N.3   140  LYS140     -0.1314
     85  N         49.4500  -16.6670   33.7890 N.am  141  ILE141     -0.1980
     86  CA        48.5730  -16.7720   34.9610 C.3   141  ILE141      0.1595
     87  C         49.1430  -15.8550   36.0500 C.2   141  ILE141      0.2287
     88  O         50.3560  -15.8250   36.2560 O.2   141  ILE141     -0.2864
     89  CB        48.4660  -18.2730   35.3920 C.3   141  ILE141      0.0276
     90  CG1       47.6520  -19.0740   34.3480 C.3   141  ILE141      0.0022
     91  CG2       47.9100  -18.4840   36.8410 C.3   141  ILE141      0.0022
     92  CD1       46.2050  -18.5270   33.9700 C.3   141  ILE141      0.0001
     93  N         37.6010   -6.9990   31.6890 N.3   182  ASP182     -0.1225
     94  CA        36.9830   -8.2820   31.2870 C.3   182  ASP182      0.1805
     95  C         37.7300   -9.4490   31.8930 C.2   182  ASP182      0.2598
     96  O         38.8460   -9.3050   32.3710 O.2   182  ASP182     -0.2718
     97  CB        37.0820   -8.4300   29.7340 C.3   182  ASP182      0.1424
     98  CG        36.2090   -9.4650   29.0380 C.2   182  ASP182      0.3668
     99  OD1       35.3520  -10.1090   29.7270 O.co2 182  ASP182     -0.2456
    100  OD2       36.3520   -9.6190   27.8070 O.co2 182  ASP182     -0.2456
    101  N         37.1410  -10.6300   31.7640 N.am  183  ALA183     -0.1966
    102  CA        37.7870  -11.8850   32.0740 C.3   183  ALA183      0.1728
    103  C         38.7570  -12.1510   30.9140 C.2   183  ALA183      0.2616
    104  O         38.5740  -11.6110   29.8140 O.2   183  ALA183     -0.2715
    105  CB        36.7420  -12.9910   32.1250 C.3   183  ALA183      0.0334
    106  N         39.8000  -12.9360   31.1620 N.am  184  CYS184     -0.1954
    107  CA        40.7250  -13.3340   30.1170 C.3   184  CYS184      0.1843
    108  C         41.1780  -14.7820   30.3680 C.2   184  CYS184      0.2625
    109  O         40.6590  -15.4260   31.2850 O.2   184  CYS184     -0.2714
    110  CB        41.8950  -12.3550   29.9660 C.3   184  CYS184      0.0997
    111  SG        42.7290  -12.4500   28.3530 S.3   184  CYS184     -0.0797
    112  N         42.0780  -15.3150   29.5290 N.am  185  LYS185     -0.1963
    113  CA        42.5580  -16.7060   29.5950 C.3   185  LYS185      0.1728
    114  C         42.9860  -17.1400   31.0060 C.2   185  LYS185      0.2616
    115  O         43.8520  -16.4960   31.6040 O.2   185  LYS185     -0.2715
    116  CB        43.6810  -16.9260   28.5750 C.3   185  LYS185      0.0311
    117  CG        43.1930  -16.7090   27.1480 C.3   185  LYS185      0.0038
    118  CD        44.3460  -16.8190   26.1510 C.3   185  LYS185      0.0206
    119  CE        43.8450  -16.8810   24.7280 C.3   185  LYS185      0.1093
    120  NZ        44.8760  -17.4550   23.8250 N.3   185  LYS185     -0.1314
    121  N         42.3510  -18.1940   31.5290 N.am  186  GLY186     -0.1955
    122  CA        42.6310  -18.6930   32.8800 C.3   186  GLY186      0.1869
    123  C         41.6100  -18.2670   33.9190 C.2   186  GLY186      0.2309
    124  O         41.6330  -18.7520   35.0630 O.2   186  GLY186     -0.2863
    125  N         38.2750  -18.5890   33.2390 N.3   188  SER188     -0.1217
    126  CA        37.0940  -19.4210   32.9780 C.3   188  SER188      0.1889
    127  C         36.7570  -20.3930   34.1060 C.2   188  SER188      0.2288
    128  O         37.6580  -20.8670   34.8200 O.2   188  SER188     -0.2866
    129  CB        37.1830  -20.0890   31.6090 C.3   188  SER188      0.2089
    130  OG        38.0400  -21.2180   31.6550 O.3   188  SER188     -0.2183
    131  N         32.2240  -17.6780   34.3120 N.3   206  THR206     -0.1203
    132  CA        33.0680  -17.1850   33.1860 C.3   206  THR206      0.1994
    133  C         33.2100  -18.2970   32.1470 C.2   206  THR206      0.2619
    134  O         33.6780  -19.3800   32.4710 O.2   206  THR206     -0.2717
    135  CB        34.4040  -16.6710   33.7330 C.3   206  THR206      0.1784
    136  OG1       34.1330  -15.6830   34.7420 O.3   206  THR206     -0.2211
    137  CG2       35.3230  -16.1180   32.6290 C.3   206  THR206      0.0376
    138  N         32.7470  -18.0430   30.9240 N.am  207  SER207     -0.1937
    139  CA        32.6520  -19.0740   29.9020 C.3   207  SER207      0.2055
    140  C         33.4720  -18.7940   28.6530 C.2   207  SER207      0.2643
    141  O         34.4770  -19.4770   28.4220 O.2   207  SER207     -0.2714
    142  CB        31.1760  -19.3360   29.5730 C.3   207  SER207      0.2130
    143  OG        31.0120  -20.3840   28.6360 O.3   207  SER207     -0.2179
    144  N         33.0680  -17.7910   27.8600 N.am  208  TRP208     -0.1959
    145  CA        33.7920  -17.4940   26.6150 C.3   208  TRP208      0.1771
    146  C         33.6450  -16.0250   26.1810 C.2   208  TRP208      0.2620
    147  O         32.9090  -15.2580   26.7960 O.2   208  TRP208     -0.2715
    148  CB        33.3440  -18.4870   25.4990 C.3   208  TRP208      0.0590
    149  CG        31.9090  -18.3180   25.0850 C.ar  208  TRP208      0.0006
    150  CD1       30.8090  -18.7830   25.7380 C.ar  208  TRP208      0.0946
    151  CD2       31.4200  -17.5790   23.9460 C.ar  208  TRP208      0.0152
    152  NE1       29.6650  -18.3670   25.0920 N.ar  208  TRP208     -0.2442
    153  CE2       30.0130  -17.6620   23.9670 C.ar  208  TRP208      0.0810
    154  CE3       32.0440  -16.8540   22.9040 C.ar  208  TRP208      0.0012
    155  CZ2       29.2120  -17.0550   22.9910 C.ar  208  TRP208      0.0191
    156  CZ3       31.2500  -16.2420   21.9430 C.ar  208  TRP208      0.0001
    157  CH2       29.8550  -16.3640   21.9760 C.ar  208  TRP208      0.0015
    158  N         34.3370  -15.6580   25.1180 N.am  209  GLY209     -0.1954
    159  CA        34.2600  -14.3270   24.5210 C.3   209  GLY209      0.1869
    160  C         35.1530  -14.2270   23.2990 C.2   209  GLY209      0.2309
    161  O         35.9650  -15.1270   23.0600 O.2   209  GLY209     -0.2863
    162  N         38.2070  -12.6590   22.1570 N.3   211  GLY211     -0.1210
    163  CA        39.3720  -11.9930   22.7400 C.3   211  GLY211      0.1956
    164  C         39.1210  -11.6100   24.1900 C.2   211  GLY211      0.2612
    165  O         38.2550  -12.2070   24.8500 O.2   211  GLY211     -0.2717
    166  N         39.8480  -10.5900   24.6930 N.am  212  CYS212     -0.1970
    167  CA        39.7300  -10.1260   26.0890 C.3   212  CYS212      0.1712
    168  C         39.6150   -8.6130   26.1280 C.2   212  CYS212      0.2296
    169  O         40.4870   -7.9500   25.5870 O.2   212  CYS212     -0.2864
    170  CB        40.9390  -10.5740   26.9040 C.3   212  CYS212      0.0983
    171  SG        41.2110  -12.3600   26.9440 S.3   212  CYS212     -0.0798
    172  N         31.5710   -8.1130   24.8150 N.3   218  PRO218     -0.2102
    173  CA        31.4870   -8.4470   26.2530 C.3   218  PRO218      0.1504
    174  C         31.7980   -9.9200   26.5470 C.2   218  PRO218      0.2576
    175  O         31.6620  -10.7570   25.6660 O.2   218  PRO218     -0.2718
    176  CB        30.0390   -8.1090   26.6190 C.3   218  PRO218      0.0282
    177  CG        29.2740   -8.2000   25.3340 C.3   218  PRO218      0.0208
    178  CD        30.2300   -7.8620   24.2290 C.3   218  PRO218      0.0893
    179  N         32.2360  -10.2100   27.7700 N.am  219  GLY219     -0.1943
    180  CA        32.4770  -11.5770   28.2200 C.3   219  GLY219      0.2014
    181  C         31.1390  -12.2870   28.2680 C.2   219  GLY219      0.2638
    182  O         30.1360  -11.6550   28.5890 O.2   219  GLY219     -0.2714
    183  N         31.0910  -13.5800   27.8650 N.am  220  VAL220     -0.1977
    184  CA        29.8520  -14.3830   27.8890 C.3   220  VAL220      0.1596
    185  C         30.0050  -15.3420   29.0520 C.2   220  VAL220      0.2287
    186  O         31.0770  -15.9380   29.2330 O.2   220  VAL220     -0.2864
    187  CB        29.5440  -15.1090   26.5340 C.3   220  VAL220      0.0276
    188  CG1       28.1570  -15.7590   26.5660 C.3   220  VAL220      0.0022
    189  CG2       29.6410  -14.1370   25.3460 C.3   220  VAL220      0.0022
@<TRIPOS>BOND
     1    63    62    1
     2   156   157   ar
     3   156   154   ar
     4   157   155   ar
     5   162   163    1
     6   163   164    1
     7    62    60   ar
     8    62    61   ar
     9   154   151   ar
    10   155   153   ar
    11   161   160    2
    12    60    58   ar
    13   160   159    1
    14    61    59   ar
    15   120   119    1
    16   151   153   ar
    17   151   149   ar
    18   153   152   ar
    19   164   166   am
    20   164   165    2
    21   178   172    1
    22   178   177    1
    23    58    57   ar
    24   159   158    1
    25   166   167    1
    26   119   118    1
    27   172   173    1
    28    59    57   ar
    29   149   148    1
    30   149   150   ar
    31   152   150   ar
    32   158   146   am
    33    57    56    1
    34   177   176    1
    35   189   187    1
    36   148   145    1
    37   169   168    2
    38   175   174    2
    39   167   168    1
    40   167   170    1
    41   118   117    1
    42   146   145    1
    43   146   147    2
    44   173   174    1
    45   173   176    1
    46   187   188    1
    47   187   184    1
    48   174   179   am
    49   145   144    1
    50    56    53    1
    51   170   171    1
    52   171   111    1
    53   117   116    1
    54    53    54    1
    55    53    52    1
    56   179   180    1
    57   100    98   ar
    58   144   140   am
    59    54    55    2
    60   183   184    1
    61   183   181   am
    62   184   185    1
    63    40    41    1
    64    40    37    1
    65    73    71   ar
    66    73    74   ar
    67   180   181    1
    68   181   182    2
    69   111   110    1
    70   141   140    2
    71   116   113    1
    72   143   142    1
    73    71    69   ar
    74   140   139    1
    75    75    74    1
    76    41    42   ar
    77    41    43   ar
    78    39    38    2
    79    37    38    1
    80    37    36    1
    81    98    99   ar
    82    98    97    1
    83   185   186    2
    84    74    72   ar
    85    42    44   ar
    86    43    45   ar
    87   112   113    1
    88   112   108   am
    89   142   139    1
    90   113   114    1
    91    38    46   am
    92    97    94    1
    93   104   103    2
    94    44    45   ar
    95   139   138    1
    96   110   107    1
    97    69    68    1
    98    69    70   ar
    99   107   108    1
   100   107   106    1
   101   108   109    2
   102    68    65    1
   103    72    70   ar
   104   103   106   am
   105   103   102    1
   106   138   133   am
   107    10     9    1
   108    46    47    1
   109   114   121   am
   110   114   115    2
   111    76    77    1
   112    94    93    1
   113    94    95    1
   114   121   122    1
   115    11     9    1
   116   129   130    1
   117   129   126    1
   118    48    47    1
   119    48    49    2
   120    47    50    1
   121     9     8    2
   122   101    95   am
   123   101   102    1
   124    95    96    2
   125    65    66    1
   126    65    64    1
   127    77    80    1
   128    77    78    1
   129   102   105    1
   130    66    67    2
   131   133   134    2
   132   133   132    1
   133    80    81    1
   134   137   135    1
   135     8     7    1
   136    28    27    1
   137   122   123    1
   138    84    83    1
   139    83    82    1
   140   126   125    1
   141   126   127    1
   142     7     6    1
   143    78    79    2
   144    78    85   am
   145   132   135    1
   146   132   131    1
   147    50    51    1
   148    81    82    1
   149    51    35    1
   150    35    34    1
   151   135   136    1
   152    25    24    2
   153    85    86    1
   154   123   124    2
   155    92    90    1
   156   127   128    2
   157    27    29    1
   158    27    26    1
   159    90    89    1
   160     6     5    2
   161    24    23    1
   162    24    30   am
   163    86    89    1
   164    86    87    1
   165    23    26    1
   166    23    22    1
   167    15    14    2
   168    89    91    1
   169    34    31    1
   170     5     2    1
   171    31    30    1
   172    31    32    1
   173    87    88    2
   174    14    22   am
   175    14    13    1
   176    19    21   ar
   177    19    17   ar
   178    21    20   ar
   179     2     3    1
   180     2     1    1
   181     3     4    2
   182     3    12   am
   183    32    33    2
   184    17    16    1
   185    17    18   ar
   186    12    13    1
   187    13    16    1
   188    20    18   ar
