@<TRIPOS>MOLECULE
tmp/5exnA00.pdb
 206 204 0 0 0
SMALL
GASTEIGER

@<TRIPOS>ATOM
      1  N          2.8670    7.1680   -4.0610 N.3    26  ARG26      -0.1231
      2  CA         2.4290    8.2840   -4.8810 C.3    26  ARG26       0.1694
      3  C          1.1500    7.8940   -5.6060 C.2    26  ARG26       0.2592
      4  O          0.8840    6.7010   -5.8140 O.2    26  ARG26      -0.2718
      5  CB         3.5020    8.7280   -5.9070 C.3    26  ARG26       0.0321
      6  CG         3.9500    7.6340   -6.8690 C.3    26  ARG26       0.0489
      7  CD         4.8810    8.1610   -7.9440 C.3    26  ARG26       0.2205
      8  NE         4.8680    7.2930   -9.1240 N.pl3  26  ARG26      -0.0865
      9  CZ         4.8410    7.7240  -10.3830 C.cat  26  ARG26       0.5346
     10  NH1        4.8530    9.0250  -10.6480 N.pl3  26  ARG26       0.1354
     11  NH2        4.8110    6.8570  -11.3850 N.pl3  26  ARG26       0.1354
     12  N          0.3560    8.9140   -5.9520 N.am   27  HIS27      -0.1962
     13  CA        -0.8190    8.7460   -6.8190 C.3    27  HIS27       0.1787
     14  C         -0.3310    8.1600   -8.1410 C.2    27  HIS27       0.2620
     15  O          0.6460    8.6370   -8.7340 O.2    27  HIS27      -0.2715
     16  CB        -1.4510   10.1220   -7.0540 C.3    27  HIS27       0.0785
     17  CG        -2.4910   10.1480   -8.1480 C.ar   27  HIS27       0.0821
     18  ND1       -3.8240    9.8130   -7.9010 N.ar   27  HIS27      -0.2267
     19  CD2       -2.3680   10.5120   -9.4430 C.ar   27  HIS27       0.1154
     20  CE1       -4.4450    9.9410   -9.0620 C.ar   27  HIS27       0.1986
     21  NE2       -3.6160   10.3800  -10.0180 N.ar   27  HIS27      -0.2212
     22  N         -1.0440    7.1270   -8.6340 N.am   28  LEU28      -0.1963
     23  CA        -0.7320    6.4800   -9.8940 C.3    28  LEU28       0.1728
     24  C         -1.8000    6.8320  -10.9400 C.2    28  LEU28       0.2616
     25  O         -1.4830    7.2080  -12.0880 O.2    28  LEU28      -0.2715
     26  CB        -0.7130    4.9510   -9.6530 C.3    28  LEU28       0.0311
     27  CG        -0.4900    4.0720  -10.9000 C.3    28  LEU28       0.0022
     28  CD1        0.8330    4.3750  -11.5930 C.3    28  LEU28       0.0001
     29  CD2       -0.5870    2.6190  -10.5480 C.3    28  LEU28       0.0001
     30  N         -3.0830    6.6410  -10.5500 N.am   29  CYS29      -0.1968
     31  CA        -4.1900    6.7300  -11.5070 C.3    29  CYS29       0.1712
     32  C         -5.4810    7.0190  -10.7700 C.2    29  CYS29       0.2296
     33  O         -5.5440    6.8350   -9.5620 O.2    29  CYS29      -0.2864
     34  CB        -4.3330    5.3850  -12.2220 C.3    29  CYS29       0.0983
     35  SG        -3.3120    5.2170  -13.7020 S.3    29  CYS29      -0.0798
     36  N         -3.7820    0.4440  -18.7490 N.3    44  HIS44      -0.1226
     37  CA        -2.4560    1.0380  -18.9450 C.3    44  HIS44       0.1752
     38  C         -1.7940    1.4730  -17.6380 C.2    44  HIS44       0.2596
     39  O         -0.5710    1.6040  -17.5570 O.2    44  HIS44      -0.2718
     40  CB        -2.4660    2.1690  -19.9740 C.3    44  HIS44       0.0759
     41  CG        -3.0530    3.4310  -19.4580 C.ar   44  HIS44       0.0818
     42  ND1       -4.2220    3.9320  -19.9780 N.ar   44  HIS44      -0.2268
     43  CD2       -2.6310    4.2430  -18.4640 C.ar   44  HIS44       0.1154
     44  CE1       -4.4690    5.0410  -19.3060 C.ar   44  HIS44       0.1986
     45  NE2       -3.5590    5.2570  -18.3740 N.ar   44  HIS44      -0.2212
     46  N         -2.6090    1.6500  -16.5840 N.am   45  CYS45      -0.1970
     47  CA        -2.1130    2.0590  -15.2660 C.3    45  CYS45       0.1712
     48  C         -1.1580    1.0700  -14.6270 C.2    45  CYS45       0.2296
     49  O         -0.3730    1.4440  -13.7440 O.2    45  CYS45      -0.2864
     50  CB        -3.2870    2.2980  -14.3310 C.3    45  CYS45       0.0983
     51  SG        -4.2450    3.7670  -14.7390 S.3    45  CYS45      -0.0798
     52  N          1.1540   -0.8900  -16.0560 N.3    47  TYR47      -0.1227
     53  CA         2.3920   -1.2140  -16.7710 C.3    47  TYR47       0.1736
     54  C          3.5680   -1.4770  -15.8170 C.2    47  TYR47       0.2596
     55  O          4.1730   -2.5570  -15.8850 O.2    47  TYR47      -0.2718
     56  CB         2.7420   -0.1310  -17.7990 C.3    47  TYR47       0.0548
     57  CG         3.9640   -0.4960  -18.6130 C.ar   47  TYR47      -0.0200
     58  CD1        3.8770   -1.3970  -19.6700 C.ar   47  TYR47      -0.0009
     59  CD2        5.2200   -0.0100  -18.2720 C.ar   47  TYR47      -0.0009
     60  CE1        5.0100   -1.7850  -20.3850 C.ar   47  TYR47       0.0417
     61  CE2        6.3590   -0.4010  -18.9680 C.ar   47  TYR47       0.0417
     62  CZ         6.2480   -1.2750  -20.0350 C.ar   47  TYR47       0.1957
     63  OH         7.3760   -1.6470  -20.7290 O.3    47  TYR47      -0.2866
     64  N          3.8630   -0.5310  -14.9330 N.am   48  GLY48      -0.1957
     65  CA         4.9780   -0.7130  -13.9950 C.3    48  GLY48       0.1869
     66  C          4.6210   -1.2750  -12.6300 C.2    48  GLY48       0.2309
     67  O          5.3320   -0.9980  -11.6580 O.2    48  GLY48      -0.2863
     68  N         -2.4480   16.7070  -14.0140 N.3   134  TYR134     -0.1241
     69  CA        -1.7980   17.9670  -14.3760 C.3   134  TYR134      0.1605
     70  C         -2.7790   18.9560  -14.9790 C.2   134  TYR134      0.2264
     71  O         -3.7630   18.5550  -15.5960 O.2   134  TYR134     -0.2867
     72  CB        -0.7760   17.6430  -15.4580 C.3   134  TYR134      0.0534
     73  CG         0.4910   16.8990  -15.0910 C.ar  134  TYR134     -0.0201
     74  CD1        0.5970   16.1860  -13.8930 C.ar  134  TYR134     -0.0009
     75  CD2        1.5600   16.8400  -15.9810 C.ar  134  TYR134     -0.0009
     76  CE1        1.7570   15.4670  -13.5780 C.ar  134  TYR134      0.0417
     77  CE2        2.7000   16.1030  -15.6930 C.ar  134  TYR134      0.0417
     78  CZ         2.7970   15.4190  -14.4950 C.ar  134  TYR134      0.1957
     79  OH         3.9460   14.7200  -14.2260 O.3   134  TYR134     -0.2866
     80  N          0.6660   20.0950  -19.8940 N.3   137  LEU137     -0.1245
     81  CA         1.5920   19.0090  -20.1900 C.3   137  LEU137      0.1561
     82  C          2.7100   18.8700  -19.1900 C.2   137  LEU137      0.2260
     83  O          2.9530   17.7600  -18.7190 O.2   137  LEU137     -0.2867
     84  CB         2.1370   19.1320  -21.6350 C.3   137  LEU137      0.0270
     85  CG         2.4750   17.8240  -22.3720 C.3   137  LEU137      0.0019
     86  CD1        1.3180   16.8280  -22.3490 C.3   137  LEU137      0.0001
     87  CD2        2.8320   18.1200  -23.8160 C.3   137  LEU137      0.0001
     88  N          2.2520   19.2110  -12.3190 N.3   140  LYS140     -0.1231
     89  CA         2.3550   18.2760  -11.2100 C.3   140  LYS140      0.1693
     90  C          0.9470   17.8610  -10.8760 C.2   140  LYS140      0.2591
     91  O         -0.0050   18.5250  -11.3070 O.2   140  LYS140     -0.2718
     92  CB         2.9820   18.9700   -9.9790 C.3   140  LYS140      0.0285
     93  CG         2.3730   20.3270   -9.6350 C.3   140  LYS140      0.0035
     94  CD         2.9370   20.9340   -8.3490 C.3   140  LYS140      0.0206
     95  CE         2.1230   22.1280   -7.9000 C.3   140  LYS140      0.1093
     96  NZ         0.7880   21.7260   -7.3770 N.3   140  LYS140     -0.1314
     97  N          0.8220   16.7920  -10.0740 N.am  141  ILE141     -0.1980
     98  CA        -0.4920   16.3430   -9.5930 C.3   141  ILE141      0.1595
     99  C         -1.0850   17.4760   -8.7610 C.2   141  ILE141      0.2287
    100  O         -0.3500   18.2120   -8.0750 O.2   141  ILE141     -0.2864
    101  CB        -0.2960   15.0320   -8.7940 C.3   141  ILE141      0.0276
    102  CG1        0.1720   13.8710   -9.7200 C.3   141  ILE141      0.0022
    103  CG2       -1.5040   14.6090   -7.9170 C.3   141  ILE141      0.0022
    104  CD1       -0.6810   13.5080  -10.9140 C.3   141  ILE141      0.0001
    105  N         -9.7750   19.3820  -20.6800 N.3   182  ASP182     -0.1225
    106  CA        -9.5980   17.9700  -21.0290 C.3   182  ASP182      0.1805
    107  C         -8.8760   17.3110  -19.8590 C.2   182  ASP182      0.2598
    108  O         -8.3850   17.9800  -18.9590 O.2   182  ASP182     -0.2718
    109  CB        -8.6480   17.9100  -22.2910 C.3   182  ASP182      0.1424
    110  CG        -8.1780   16.5870  -22.8950 C.2   182  ASP182      0.3668
    111  OD1       -8.9220   15.5970  -22.8000 O.co2 182  ASP182     -0.2456
    112  OD2       -7.1110   16.5830  -23.6010 O.co2 182  ASP182     -0.2456
    113  N         -8.8120   15.9900  -19.8860 N.am  183  ALA183     -0.1966
    114  CA        -7.9990   15.2630  -18.9480 C.3   183  ALA183      0.1728
    115  C         -6.5060   15.4780  -19.3270 C.2   183  ALA183      0.2616
    116  O         -6.1840   15.8740  -20.4560 O.2   183  ALA183     -0.2715
    117  CB        -8.3170   13.7810  -19.0610 C.3   183  ALA183      0.0334
    118  N         -5.5970   15.2080  -18.3770 N.am  184  CYS184     -0.1954
    119  CA        -4.1600   15.3000  -18.6370 C.3   184  CYS184      0.1843
    120  C         -3.4520   14.2610  -17.7680 C.2   184  CYS184      0.2625
    121  O         -4.1190   13.4250  -17.1370 O.2   184  CYS184     -0.2714
    122  CB        -3.6510   16.7200  -18.3910 C.3   184  CYS184      0.0997
    123  SG        -2.1510   17.1630  -19.3170 S.3   184  CYS184     -0.0797
    124  N         -2.1240   14.2500  -17.7650 N.am  185  LYS185     -0.1963
    125  CA        -1.3440   13.2780  -17.0330 C.3   185  LYS185      0.1728
    126  C         -1.7690   13.1680  -15.5820 C.2   185  LYS185      0.2616
    127  O         -1.8520   14.1780  -14.8870 O.2   185  LYS185     -0.2715
    128  CB         0.1430   13.6670  -17.1200 C.3   185  LYS185      0.0311
    129  CG         0.6070   13.6380  -18.5570 C.3   185  LYS185      0.0038
    130  CD         2.0990   13.9370  -18.6360 C.3   185  LYS185      0.0206
    131  CE         2.5760   13.5110  -20.0140 C.3   185  LYS185      0.1093
    132  NZ         4.0640   13.5690  -20.1280 N.3   185  LYS185     -0.1314
    133  N         -1.9970   11.9380  -15.1230 N.am  186  GLY186     -0.1955
    134  CA        -2.4590   11.6790  -13.7560 C.3   186  GLY186      0.1869
    135  C         -3.9760   11.5080  -13.6490 C.2   186  GLY186      0.2309
    136  O         -4.4850   11.0950  -12.6050 O.2   186  GLY186     -0.2863
    137  N         -5.7240    9.5610  -15.9400 N.3   188  SER188     -0.1217
    138  CA        -6.1730    8.3190  -16.5490 C.3   188  SER188      0.1889
    139  C         -6.6470    7.3090  -15.5320 C.2   188  SER188      0.2288
    140  O         -6.2360    7.3240  -14.3640 O.2   188  SER188     -0.2866
    141  CB        -5.1080    7.7490  -17.4610 C.3   188  SER188      0.2089
    142  OG        -4.0190    7.3480  -16.6600 O.3   188  SER188     -0.2183
    143  N        -10.9940    7.4830  -18.5580 N.3   206  THR206     -0.1203
    144  CA        -9.9390    8.3100  -19.1440 C.3   206  THR206      0.1994
    145  C         -8.7960    7.4440  -19.6170 C.2   206  THR206      0.2619
    146  O         -8.2090    6.7250  -18.8210 O.2   206  THR206     -0.2717
    147  CB        -9.5210    9.3510  -18.1000 C.3   206  THR206      0.1784
    148  OG1      -10.6950   10.0730  -17.7220 O.3   206  THR206     -0.2211
    149  CG2       -8.4630   10.3140  -18.6300 C.3   206  THR206      0.0376
    150  N         -8.4650    7.5490  -20.9110 N.am  207  SER207     -0.1937
    151  CA        -7.4800    6.6460  -21.4950 C.3   207  SER207      0.2055
    152  C         -6.2740    7.3750  -22.1250 C.2   207  SER207      0.2643
    153  O         -5.1590    7.2240  -21.6060 O.2   207  SER207     -0.2714
    154  CB        -8.1820    5.7010  -22.4850 C.3   207  SER207      0.2130
    155  OG        -7.3080    4.7590  -23.1010 O.3   207  SER207     -0.2179
    156  N         -6.4680    8.1630  -23.2120 N.am  208  TRP208     -0.1959
    157  CA        -5.3180    8.8060  -23.8760 C.3   208  TRP208      0.1771
    158  C         -5.7480    9.9650  -24.7390 C.2   208  TRP208      0.2620
    159  O         -6.9310   10.1220  -25.0130 O.2   208  TRP208     -0.2715
    160  CB        -4.5810    7.7630  -24.7770 C.3   208  TRP208      0.0590
    161  CG        -5.4100    7.2230  -25.9080 C.ar  208  TRP208      0.0006
    162  CD1       -6.2740    6.1770  -25.8460 C.ar  208  TRP208      0.0946
    163  CD2       -5.3850    7.6400  -27.2950 C.ar  208  TRP208      0.0152
    164  NE1       -6.8430    5.9480  -27.0790 N.ar  208  TRP208     -0.2442
    165  CE2       -6.3220    6.8380  -27.9870 C.ar  208  TRP208      0.0810
    166  CE3       -4.7100    8.6560  -28.0010 C.ar  208  TRP208      0.0012
    167  CZ2       -6.5560    6.9660  -29.3660 C.ar  208  TRP208      0.0191
    168  CZ3       -4.9690    8.8080  -29.3670 C.ar  208  TRP208      0.0001
    169  CH2       -5.8960    7.9850  -30.0270 C.ar  208  TRP208      0.0015
    170  N         -4.7670   10.7370  -25.2030 N.am  209  GLY209     -0.1954
    171  CA        -5.0100   11.8160  -26.1460 C.3   209  GLY209      0.1869
    172  C         -3.6960   12.3350  -26.6720 C.2   209  GLY209      0.2309
    173  O         -2.6490   11.9900  -26.1390 O.2   209  GLY209     -0.2863
    174  N         -1.4810   15.2550  -26.6200 N.3   211  GLY211     -0.1210
    175  CA        -1.3430   16.4640  -25.8130 C.3   211  GLY211      0.1956
    176  C         -2.5400   16.5700  -24.8800 C.2   211  GLY211      0.2612
    177  O         -3.3340   15.6230  -24.7750 O.2   211  GLY211     -0.2717
    178  N         -2.6750   17.7000  -24.2110 N.am  212  CYS212     -0.1970
    179  CA        -3.7720   17.9710  -23.2630 C.3   212  CYS212      0.1712
    180  C         -4.5330   19.1920  -23.6670 C.2   212  CYS212      0.2296
    181  O         -3.9080   20.2520  -23.7610 O.2   212  CYS212     -0.2864
    182  CB        -3.2230   18.1260  -21.8530 C.3   212  CYS212      0.0983
    183  SG        -2.3220   16.6820  -21.2760 S.3   212  CYS212     -0.0798
    184  N         -9.9780   14.1400  -26.0680 N.3   219  GLY219     -0.1210
    185  CA        -9.5150   13.0320  -25.2620 C.3   219  GLY219      0.1956
    186  C        -10.2630   11.7810  -25.6810 C.2   219  GLY219      0.2612
    187  O        -11.4070   11.8340  -26.1380 O.2   219  GLY219     -0.2717
    188  N         -9.5960   10.6460  -25.5280 N.am  220  VAL220     -0.1965
    189  CA       -10.1350    9.3400  -25.8960 C.3   220  VAL220      0.1727
    190  C        -10.3410    8.5440  -24.6060 C.2   220  VAL220      0.2616
    191  O         -9.4540    8.4280  -23.7470 O.2   220  VAL220     -0.2715
    192  CB        -9.2330    8.6130  -26.9270 C.3   220  VAL220      0.0290
    193  CG1       -9.9030    7.3210  -27.4250 C.3   220  VAL220      0.0023
    194  CG2       -8.8820    9.5440  -28.1020 C.3   220  VAL220      0.0023
    195  N        -11.5240    7.9800  -24.5100 N.am  221  TYR221     -0.1974
    196  CA       -11.9620    7.2510  -23.3220 C.3   221  TYR221      0.1639
    197  C        -12.4570    5.8710  -23.6870 C.2   221  TYR221      0.2290
    198  O        -13.0150    5.6520  -24.7630 O.2   221  TYR221     -0.2864
    199  CB       -13.1210    8.0300  -22.6680 C.3   221  TYR221      0.0560
    200  CG       -12.7560    9.4110  -22.2180 C.ar  221  TYR221     -0.0198
    201  CD1      -12.6530   10.4610  -23.1320 C.ar  221  TYR221     -0.0009
    202  CD2      -12.5710    9.6960  -20.8720 C.ar  221  TYR221     -0.0009
    203  CE1      -12.3110   11.7400  -22.7200 C.ar  221  TYR221      0.0417
    204  CE2      -12.2160   10.9670  -20.4510 C.ar  221  TYR221      0.0417
    205  CZ       -12.0530   11.9780  -21.3820 C.ar  221  TYR221      0.1957
    206  OH       -11.6970   13.2220  -20.9430 O.3   221  TYR221     -0.2866
@<TRIPOS>BOND
     1   169   168   ar
     2   169   167   ar
     3   168   166   ar
     4   167   165   ar
     5   194   192    1
     6   166   163   ar
     7   165   163   ar
     8   165   164   ar
     9   193   192    1
    10   163   161   ar
    11   164   162   ar
    12   192   189    1
    13   172   171    1
    14   172   173    2
    15   174   175    1
    16   171   170    1
    17   187   186    2
    18   184   185    1
    19   161   162   ar
    20   161   160    1
    21   189   188    1
    22   189   190    1
    23   175   176    1
    24   186   188   am
    25   186   185    1
    26   170   158   am
    27   159   158    2
    28   176   177    2
    29   176   178   am
    30   160   157    1
    31   198   197    2
    32   158   157    1
    33   190   195   am
    34   190   191    2
    35   195   196    1
    36   178   179    1
    37   157   156    1
    38    87    85    1
    39   181   180    2
    40   197   196    1
    41   180   179    1
    42   112   110   ar
    43   196   199    1
    44   179   182    1
    45   156   152   am
    46   201   203   ar
    47   201   200   ar
    48   155   154    1
    49   110   111   ar
    50   110   109    1
    51   203   205   ar
    52   199   200    1
    53   154   151    1
    54    85    86    1
    55    85    84    1
    56   109   106    1
    57   200   202   ar
    58   152   153    2
    59   152   151    1
    60   182   183    1
    61    84    81    1
    62   151   150    1
    63   205   206    1
    64   205   204   ar
    65   183   123    1
    66   106   105    1
    67   106   107    1
    68   150   145   am
    69   202   204   ar
    70    63    62    1
    71   116   115    2
    72    60    62   ar
    73    60    58   ar
    74    81    80    1
    75    81    82    1
    76   132   131    1
    77    62    61   ar
    78   131   130    1
    79    42    41   ar
    80    42    44   ar
    81    40    41    1
    82    40    37    1
    83   113   107   am
    84   113   114    1
    85   107   108    2
    86    58    57   ar
    87   145   144    1
    88   145   146    2
    89    41    43   ar
    90   115   114    1
    91   115   118   am
    92   123   122    1
    93    44    45   ar
    94    82    83    2
    95   144   143    1
    96   144   147    1
    97   117   114    1
    98    61    59   ar
    99    37    36    1
   100    37    38    1
   101   119   122    1
   102   119   118    1
   103   119   120    1
   104   130   129    1
   105   149   147    1
   106    57    59   ar
   107    57    56    1
   108   129   128    1
   109    43    45   ar
   110   147   148    1
   111    56    53    1
   112   120   124   am
   113   120   121    2
   114   124   125    1
   115    38    39    2
   116    38    46   am
   117   141   142    1
   118   141   138    1
   119   128   125    1
   120   125   126    1
   121    53    52    1
   122    53    54    1
   123    46    47    1
   124   138   137    1
   125   138   139    1
   126    75    77   ar
   127    75    73   ar
   128    55    54    2
   129    54    64   am
   130    77    78   ar
   131    71    70    2
   132   126   133   am
   133   126   127    2
   134   139   140    2
   135    72    73    1
   136    72    69    1
   137    47    48    1
   138    47    50    1
   139   133   134    1
   140    73    74   ar
   141    70    69    1
   142    64    65    1
   143    51    50    1
   144    51    35    1
   145    48    49    2
   146    78    79    1
   147    78    76   ar
   148    69    68    1
   149    65    66    1
   150    74    76   ar
   151   134   135    1
   152    35    34    1
   153   135   136    2
   154    66    67    2
   155    88    89    1
   156    34    31    1
   157    25    24    2
   158    28    27    1
   159    31    32    1
   160    31    30    1
   161    11     9    1
   162    91    90    2
   163    89    90    1
   164    89    92    1
   165    24    30   am
   166    24    23    1
   167   104   102    1
   168    27    29    1
   169    27    26    1
   170    90    97   am
   171    32    33    2
   172    10     9    1
   173     9     8    2
   174    97    98    1
   175    21    19   ar
   176    21    20   ar
   177    92    93    1
   178    23    26    1
   179    23    22    1
   180   102   101    1
   181    93    94    1
   182    98   101    1
   183    98    99    1
   184    19    17   ar
   185     8     7    1
   186    20    18   ar
   187   101   103    1
   188    99   100    2
   189    15    14    2
   190    22    14   am
   191    94    95    1
   192    17    18   ar
   193    17    16    1
   194    14    13    1
   195     7     6    1
   196    95    96    1
   197    16    13    1
   198     6     5    1
   199    13    12    1
   200    12     3   am
   201     5     2    1
   202     4     3    2
   203     3     2    1
   204     2     1    1
