@<TRIPOS>MOLECULE
tmp/5exoA00.pdb
 101 93 0 0 0
SMALL
GASTEIGER

@<TRIPOS>ATOM
      1  N         12.1090  -12.2750    7.6680 N.3    31  ARG31      -0.1245
      2  CA        12.5250  -10.9390    7.2490 C.3    31  ARG31       0.1563
      3  C         11.4330   -9.8940    7.4120 C.2    31  ARG31       0.2260
      4  O         10.2450  -10.2030    7.4090 O.2    31  ARG31      -0.2867
      5  CB        12.9840  -10.9750    5.7930 C.3    31  ARG31       0.0307
      6  CG        11.8360  -11.2040    4.8020 C.3    31  ARG31       0.0489
      7  CD        12.2900  -11.3660    3.3530 C.3    31  ARG31       0.2205
      8  NE        12.9480  -10.1850    2.7780 N.pl3  31  ARG31      -0.0865
      9  CZ        12.3480   -9.1710    2.1510 C.cat  31  ARG31       0.5346
     10  NH1       11.0210   -9.1110    2.0310 N.pl3  31  ARG31       0.1354
     11  NH2       13.0930   -8.1740    1.6700 N.pl3  31  ARG31       0.1354
     12  N         10.9650   -0.1700    2.1610 N.3    35  ASP35      -0.1239
     13  CA        11.5870    0.2820    0.9070 C.3    35  ASP35       0.1674
     14  C         11.0350    1.6630    0.5520 C.2    35  ASP35       0.2266
     15  O          9.8780    1.8060    0.1170 O.2    35  ASP35      -0.2867
     16  CB        11.2780   -0.6990   -0.2070 C.3    35  ASP35       0.1410
     17  CG        12.0110   -2.0190   -0.0600 C.2    35  ASP35       0.3668
     18  OD1       13.2110   -2.0250   -0.3180 O.co2  35  ASP35      -0.2456
     19  OD2       11.4080   -3.0350    0.3320 O.co2  35  ASP35      -0.2456
     20  N         16.5280    1.0340    1.7690 N.3    45  HIS45      -0.1241
     21  CA        16.0250   -0.3030    2.0730 C.3    45  HIS45       0.1621
     22  C         16.4950   -0.6330    3.4650 C.2    45  HIS45       0.2264
     23  O         17.7010   -0.5840    3.7320 O.2    45  HIS45      -0.2867
     24  CB        16.6550   -1.2490    1.0460 C.3    45  HIS45       0.0745
     25  CG        16.4270   -2.7110    1.2310 C.ar   45  HIS45       0.0817
     26  ND1       15.2330   -3.3400    0.9300 N.ar   45  HIS45      -0.2268
     27  CD2       17.3060   -3.7040    1.5280 C.ar   45  HIS45       0.1154
     28  CE1       15.3720   -4.6490    1.0980 C.ar   45  HIS45       0.1986
     29  NE2       16.6220   -4.8980    1.4480 N.ar   45  HIS45      -0.2212
     30  N         16.2150   -3.6330    6.2230 N.3    47  ASN47      -0.1240
     31  CA        15.9290   -5.0600    6.0660 C.3    47  ASN47       0.1653
     32  C         16.4470   -5.8730    7.2550 C.2    47  ASN47       0.2266
     33  O         17.5360   -6.4620    7.1890 O.2    47  ASN47      -0.2867
     34  CB        16.5360   -5.5450    4.7250 C.3    47  ASN47       0.1155
     35  CG        16.3810   -7.0370    4.4440 C.2    47  ASN47       0.2627
     36  OD1       17.2290   -7.6110    3.7790 O.2    47  ASN47      -0.2716
     37  ND2       15.3070   -7.6710    4.9320 N.am   47  ASN47      -0.0877
     38  N         16.9170   -9.1300    9.1030 N.3    49  ARG49      -0.1245
     39  CA        17.0020  -10.5370    8.7210 C.3    49  ARG49       0.1563
     40  C         17.1470  -11.3670   10.0020 C.2    49  ARG49       0.2260
     41  O         18.0650  -11.1400   10.8090 O.2    49  ARG49      -0.2867
     42  CB        18.2110  -10.7520    7.8160 C.3    49  ARG49       0.0307
     43  CG        18.1870   -9.9680    6.5570 C.3    49  ARG49       0.0489
     44  CD        19.4100  -10.2190    5.6780 C.3    49  ARG49       0.2205
     45  NE        19.3130   -9.4010    4.4610 N.pl3  49  ARG49      -0.0865
     46  CZ        20.2320   -9.3670    3.5120 C.cat  49  ARG49       0.5346
     47  NH1       21.3350  -10.1060    3.6110 N.pl3  49  ARG49       0.1354
     48  NH2       20.0540   -8.5830    2.4710 N.pl3  49  ARG49       0.1354
     49  N         20.2220   -5.1290    7.5940 N.3    59  VAL59      -0.1245
     50  CA        20.9180   -4.7000    6.3820 C.3    59  VAL59       0.1561
     51  C         20.2220   -3.4630    5.8350 C.2    59  VAL59       0.2260
     52  O         19.0120   -3.4590    5.6770 O.2    59  VAL59      -0.2867
     53  CB        20.9270   -5.8070    5.3310 C.3    59  VAL59       0.0252
     54  CG1       21.5860   -5.3230    4.0420 C.3    59  VAL59       0.0019
     55  CG2       21.6790   -7.0400    5.8690 C.3    59  VAL59       0.0019
     56  N         20.5690   -0.5020    2.5490 N.3    61  ASN61      -0.1240
     57  CA        21.1830   -0.3220    1.2480 C.3    61  ASN61       0.1653
     58  C         20.3000    0.5420    0.3570 C.2    61  ASN61       0.2266
     59  O         19.1850    0.9330    0.7450 O.2    61  ASN61      -0.2867
     60  CB        21.4730   -1.6920    0.5770 C.3    61  ASN61       0.1155
     61  CG        22.6650   -1.6700   -0.3890 C.2    61  ASN61       0.2627
     62  OD1       23.1530   -0.6060   -0.7830 O.2    61  ASN61      -0.2716
     63  ND2       23.1430   -2.8690   -0.7690 N.am   61  ASN61      -0.0877
     64  N         19.2400    0.8620   -3.9910 N.3    63  LYS63      -0.1245
     65  CA        19.2220    0.1840   -5.3000 C.3    63  LYS63       0.1561
     66  C         19.0570    1.2490   -6.3650 C.2    63  LYS63       0.2260
     67  O         18.0540    1.9780   -6.3690 O.2    63  LYS63      -0.2867
     68  CB        18.0520   -0.8160   -5.3870 C.3    63  LYS63       0.0271
     69  CG        18.1400   -1.7410   -6.5980 C.3    63  LYS63       0.0035
     70  CD        17.1070   -2.8590   -6.6200 C.3    63  LYS63       0.0206
     71  CE        15.7520   -2.4120   -7.0150 C.3    63  LYS63       0.1093
     72  NZ        14.8660   -3.6260   -7.2580 N.3    63  LYS63      -0.1314
     73  N         22.1260   -3.1500   -6.4720 N.3    68  TRP68      -0.1241
     74  CA        22.3500   -2.8390   -5.0660 C.3    68  TRP68       0.1605
     75  C         23.7540   -2.2760   -4.8300 C.2    68  TRP68       0.2264
     76  O         24.7310   -2.7060   -5.4720 O.2    68  TRP68      -0.2867
     77  CB        22.1080   -4.0750   -4.2070 C.3    68  TRP68       0.0550
     78  CG        20.6650   -4.4860   -4.1280 C.ar   68  TRP68       0.0003
     79  CD1       20.0730   -5.5460   -4.7560 C.ar   68  TRP68       0.0946
     80  CD2       19.6300   -3.8390   -3.3800 C.ar   68  TRP68       0.0152
     81  NE1       18.7330   -5.5940   -4.4430 N.ar   68  TRP68      -0.2442
     82  CE2       18.4430   -4.5570   -3.5930 C.ar   68  TRP68       0.0810
     83  CE3       19.6060   -2.7260   -2.5250 C.ar   68  TRP68       0.0012
     84  CZ2       17.2300   -4.1760   -3.0060 C.ar   68  TRP68       0.0191
     85  CZ3       18.4050   -2.3510   -1.9490 C.ar   68  TRP68       0.0001
     86  CH2       17.2370   -3.0790   -2.1880 C.ar   68  TRP68       0.0015
     87  N         26.3820   -2.3910    1.2680 N.3    71  GLU71      -0.1245
     88  CA        25.5520   -2.5800    2.4610 C.3    71  GLU71       0.1567
     89  C         26.1120   -1.9240    3.7040 C.2    71  GLU71       0.2260
     90  O         27.3350   -1.9290    3.9280 O.2    71  GLU71      -0.2867
     91  CB        25.3680   -4.0810    2.7550 C.3    71  GLU71       0.0388
     92  CG        24.5920   -4.7890    1.6860 C.3    71  GLU71       0.1160
     93  CD        24.4090   -6.2960    1.9310 C.2    71  GLU71       0.3649
     94  OE1       25.0570   -6.8700    2.8450 O.co2  71  GLU71      -0.2457
     95  OE2       23.5740   -6.8800    1.2100 O.co2  71  GLU71      -0.2457
     96  N          6.8800   -4.6910    3.7260 N.3   124  SER124     -0.1217
     97  CA         6.7220   -6.0960    3.4190 C.3   124  SER124      0.1889
     98  C          7.4070   -6.9550    4.4650 C.2   124  SER124      0.2288
     99  O          8.1340   -6.4610    5.3310 O.2   124  SER124     -0.2866
    100  CB         7.2510   -6.4290    2.0350 C.3   124  SER124      0.2089
    101  OG         8.6220   -6.0950    1.9310 O.3   124  SER124     -0.2183
@<TRIPOS>BOND
     1    72    71    1
     2    71    70    1
     3    70    69    1
     4    69    68    1
     5    73    74    1
     6    67    66    2
     7    66    65    1
     8    76    75    2
     9    68    65    1
    10    65    64    1
    11    74    75    1
    12    74    77    1
    13    79    81   ar
    14    79    78   ar
    15    81    82   ar
    16    77    78    1
    17    78    80   ar
    18    82    80   ar
    19    82    84   ar
    20    80    83   ar
    21    84    86   ar
    22    83    85   ar
    23    86    85   ar
    24    62    61    2
    25    63    61   am
    26    61    60    1
    27    18    17   ar
    28    16    17    1
    29    16    13    1
    30    17    19   ar
    31    15    14    2
    32    58    59    2
    33    58    57    1
    34    14    13    1
    35    60    57    1
    36    13    12    1
    37    26    28   ar
    38    26    25   ar
    39    24    25    1
    40    24    21    1
    41    28    29   ar
    42    95    93   ar
    43    25    27   ar
    44    57    56    1
    45    87    88    1
    46    29    27   ar
    47    11     9    1
    48    92    93    1
    49    92    91    1
    50    20    21    1
    51   101   100    1
    52    93    94   ar
    53    10     9    1
    54   100    97    1
    55    21    22    1
    56     9     8    2
    57    88    91    1
    58    88    89    1
    59    48    46    1
    60     8     7    1
    61     7     6    1
    62    97    96    1
    63    97    98    1
    64    22    23    2
    65    46    47    1
    66    46    45    2
    67    89    90    2
    68    36    35    2
    69    54    53    1
    70    35    34    1
    71    35    37   am
    72    45    44    1
    73    98    99    2
    74    34    31    1
    75     6     5    1
    76    53    55    1
    77    53    50    1
    78    52    51    2
    79    44    43    1
    80     5     2    1
    81    51    50    1
    82    31    30    1
    83    31    32    1
    84    50    49    1
    85    43    42    1
    86    33    32    2
    87     2     3    1
    88     2     1    1
    89     4     3    2
    90    42    39    1
    91    39    38    1
    92    39    40    1
    93    40    41    2
