@<TRIPOS>MOLECULE
tmp/5exsA00.pdb
 207 195 0 0 0
SMALL
GASTEIGER

@<TRIPOS>ATOM
      1  N         -0.5320   42.0310    5.2070 N.3     3  ARG3       -0.1231
      2  CA         0.2620   42.8460    4.3080 C.3     3  ARG3        0.1694
      3  C         -0.6560   43.5120    3.3060 C.2     3  ARG3        0.2593
      4  O         -1.6910   42.9610    2.9450 O.2     3  ARG3       -0.2718
      5  CB         1.3010   41.9980    3.5760 C.3     3  ARG3        0.0321
      6  CG         2.2710   41.2860    4.5010 C.3     3  ARG3        0.0489
      7  CD         3.0220   42.2780    5.3420 C.3     3  ARG3        0.2205
      8  NE         4.2040   41.6790    5.9370 N.pl3   3  ARG3       -0.0865
      9  CZ         5.1530   42.3640    6.5610 C.cat   3  ARG3        0.5346
     10  NH1        5.0680   43.6870    6.6580 N.pl3   3  ARG3        0.1354
     11  NH2        6.1940   41.7220    7.0740 N.pl3   3  ARG3        0.1354
     12  N         -0.2800   44.6990    2.8560 N.am    4  SER4       -0.1938
     13  CA        -0.9620   45.3270    1.7430 C.3     4  SER4        0.2055
     14  C         -0.4680   44.7110    0.4510 C.2     4  SER4        0.2643
     15  O          0.5230   43.9790    0.4370 O.2     4  SER4       -0.2714
     16  CB        -0.7360   46.8400    1.7410 C.3     4  SER4        0.2130
     17  OG        -1.8180   47.5040    2.3640 O.3     4  SER4       -0.2179
     18  N         -1.1660   44.9980   -0.6360 N.am    5  LEU5       -0.1963
     19  CA        -0.7680   44.4670   -1.9170 C.3     5  LEU5        0.1728
     20  C         -0.1800   45.5980   -2.7120 C.2     5  LEU5        0.2616
     21  O         -0.8880   46.5210   -3.1150 O.2     5  LEU5       -0.2715
     22  CB        -1.9410   43.8290   -2.6450 C.3     5  LEU5        0.0311
     23  CG        -1.7000   42.4050   -3.1340 C.3     5  LEU5        0.0022
     24  CD1       -0.9010   41.6080   -2.1170 C.3     5  LEU5        0.0001
     25  CD2       -3.0290   41.7360   -3.4100 C.3     5  LEU5        0.0001
     26  N          1.1320   45.5090   -2.9020 N.am    6  VAL6       -0.1977
     27  CA         1.9510   46.4710   -3.6320 C.3     6  VAL6        0.1596
     28  C          1.8580   46.2780   -5.1600 C.2     6  VAL6        0.2287
     29  O          1.7080   45.1440   -5.6390 O.2     6  VAL6       -0.2864
     30  CB         3.4200   46.3360   -3.1450 C.3     6  VAL6        0.0276
     31  CG1        4.4040   47.0070   -4.0940 C.3     6  VAL6        0.0022
     32  CG2        3.5710   46.8200   -1.6730 C.3     6  VAL6        0.0022
     33  N         -3.1460   44.0820  -10.4920 N.3    12  ILE12      -0.1245
     34  CA        -3.0830   44.2380   -9.0340 C.3    12  ILE12       0.1561
     35  C         -4.0950   45.2880   -8.5250 C.2    12  ILE12       0.2260
     36  O         -4.6250   45.1520   -7.4250 O.2    12  ILE12      -0.2867
     37  CB        -1.6440   44.5630   -8.5370 C.3    12  ILE12       0.0252
     38  CG1       -1.3710   43.8270   -7.2260 C.3    12  ILE12       0.0019
     39  CG2       -1.4190   46.0330   -8.3060 C.3    12  ILE12       0.0019
     40  CD1       -1.1020   42.3390   -7.4200 C.3    12  ILE12       0.0001
     41  N          2.4500   29.4530   -7.3370 N.3    35  SER35      -0.1202
     42  CA         3.1520   29.5440   -6.0720 C.3    35  SER35       0.2020
     43  C          3.8790   30.8920   -5.9130 C.2    35  SER35       0.2619
     44  O          4.5890   31.3830   -6.8350 O.2    35  SER35      -0.2717
     45  CB         4.1340   28.3740   -5.9420 C.3    35  SER35       0.2103
     46  OG         4.4880   28.1670   -4.5910 O.3    35  SER35      -0.2182
     47  N          3.6640   31.4880   -4.7390 N.am   36  GLY36      -0.1942
     48  CA         4.3000   32.7390   -4.3620 C.3    36  GLY36       0.2014
     49  C          3.7880   33.9550   -5.1140 C.2    36  GLY36       0.2640
     50  O          4.5380   34.8980   -5.3270 O.2    36  GLY36      -0.2714
     51  N          2.5190   33.9520   -5.5170 N.am   37  THR37      -0.1936
     52  CA         1.9740   35.1210   -6.2280 C.3    37  THR37       0.2028
     53  C          1.1630   36.0520   -5.3420 C.2    37  THR37       0.2643
     54  O          0.6590   37.0670   -5.8200 O.2    37  THR37      -0.2714
     55  CB         1.0900   34.7480   -7.4370 C.3    37  THR37       0.1808
     56  OG1        0.1830   33.7000   -7.0800 O.3    37  THR37      -0.2208
     57  CG2        1.9540   34.3470   -8.6210 C.3    37  THR37       0.0379
     58  N          1.0180   35.7170   -4.0670 N.am   38  GLY38      -0.1939
     59  CA         0.3800   36.6410   -3.1600 C.3    38  GLY38       0.2014
     60  C         -0.9390   36.1560   -2.6120 C.2    38  GLY38       0.2639
     61  O         -1.6610   36.9280   -1.9970 O.2    38  GLY38      -0.2714
     62  N         -1.2290   34.8740   -2.8080 N.am   39  LYS39      -0.1963
     63  CA        -2.5370   34.3080   -2.5010 C.3    39  LYS39       0.1728
     64  C         -2.8590   34.2810   -1.0120 C.2    39  LYS39       0.2616
     65  O         -4.0000   34.5460   -0.6350 O.2    39  LYS39      -0.2715
     66  CB        -2.6490   32.8840   -3.0710 C.3    39  LYS39       0.0311
     67  CG        -2.4120   32.8200   -4.5700 C.3    39  LYS39       0.0038
     68  CD        -2.9520   31.5340   -5.1810 C.3    39  LYS39       0.0206
     69  CE        -2.0790   30.3250   -4.8040 C.3    39  LYS39       0.1093
     70  NZ        -0.6200   30.5550   -5.0330 N.3    39  LYS39      -0.1314
     71  N         -1.8880   33.9290   -0.1680 N.am   40  GLU40      -0.1963
     72  CA        -2.1110   33.9700    1.2690 C.3    40  GLU40       0.1733
     73  C         -2.2520   35.4020    1.7430 C.2    40  GLU40       0.2616
     74  O         -3.1020   35.6870    2.5770 O.2    40  GLU40      -0.2715
     75  CB        -0.9880   33.2810    2.0290 C.3    40  GLU40       0.0429
     76  CG        -1.5080   32.4350    3.1840 C.3    40  GLU40       0.1163
     77  CD        -0.7420   32.6290    4.4880 C.2    40  GLU40       0.3649
     78  OE1       -0.1210   33.6940    4.6360 O.co2  40  GLU40      -0.2457
     79  OE2       -0.7700   31.7240    5.3570 O.co2  40  GLU40      -0.2457
     80  N         -1.4050   36.2910    1.2200 N.am   41  VAL41      -0.1977
     81  CA        -1.4770   37.7180    1.4760 C.3    41  VAL41       0.1596
     82  C         -2.8730   38.2380    1.2420 C.2    41  VAL41       0.2287
     83  O         -3.4430   38.9410    2.0900 O.2    41  VAL41      -0.2864
     84  CB        -0.5470   38.5310    0.5690 C.3    41  VAL41       0.0276
     85  CG1       -0.6350   40.0000    0.9450 C.3    41  VAL41       0.0022
     86  CG2        0.8850   38.0490    0.6800 C.3    41  VAL41       0.0022
     87  N         -9.0530   28.9410    6.0160 N.3   102  PHE102     -0.1241
     88  CA        -8.3670   29.1590    4.7490 C.3   102  PHE102      0.1605
     89  C         -7.8710   27.8440    4.1650 C.2   102  PHE102      0.2264
     90  O         -6.9370   27.2280    4.6830 O.2   102  PHE102     -0.2867
     91  CB        -7.2110   30.1440    4.9240 C.3   102  PHE102      0.0534
     92  CG        -6.2960   30.2510    3.7270 C.ar  102  PHE102     -0.0203
     93  CD1       -6.7980   30.2760    2.4370 C.ar  102  PHE102     -0.0042
     94  CD2       -4.9250   30.3140    3.9030 C.ar  102  PHE102     -0.0042
     95  CE1       -5.9440   30.3450    1.3510 C.ar  102  PHE102     -0.0003
     96  CE2       -4.0830   30.3790    2.8310 C.ar  102  PHE102     -0.0003
     97  CZ        -4.5780   30.4040    1.5580 C.ar  102  PHE102     -0.0000
     98  N         -5.9820   26.0630    1.6860 N.3   104  ASP104     -0.1225
     99  CA        -4.9010   26.2210    0.7490 C.3   104  ASP104      0.1805
    100  C         -4.6070   24.8910    0.0760 C.2   104  ASP104      0.2597
    101  O         -4.7990   23.8330    0.6860 O.2   104  ASP104     -0.2718
    102  CB        -3.6740   26.7580    1.4710 C.3   104  ASP104      0.1424
    103  CG        -2.5980   27.2210    0.5190 C.2   104  ASP104      0.3668
    104  OD1       -2.9080   27.4830   -0.6720 O.co2 104  ASP104     -0.2456
    105  OD2       -1.4420   27.3110    0.9670 O.co2 104  ASP104     -0.2456
    106  N         -4.1680   24.9460   -1.1810 N.am  105  GLU105     -0.1979
    107  CA        -3.9550   23.7570   -2.0150 C.3   105  GLU105      0.1602
    108  C         -5.2120   22.9010   -2.0430 C.2   105  GLU105      0.2287
    109  O         -5.1660   21.6910   -1.7900 O.2   105  GLU105     -0.2864
    110  CB        -2.7870   22.9190   -1.5140 C.3   105  GLU105      0.0415
    111  CG        -1.6870   23.7030   -0.8380 C.3   105  GLU105      0.1163
    112  CD        -1.0520   22.9590    0.3440 C.2   105  GLU105      0.3649
    113  OE1       -0.1470   23.5460    0.9710 O.co2 105  GLU105     -0.2457
    114  OE2       -1.4670   21.8160    0.6500 O.co2 105  GLU105     -0.2457
    115  N         -7.4730   28.5040   -1.8780 N.3   144  ALA144     -0.1245
    116  CA        -6.4430   28.8830   -2.8120 C.3   144  ALA144      0.1562
    117  C         -5.8870   27.6480   -3.5130 C.2   144  ALA144      0.2260
    118  O         -5.7800   26.5740   -2.9170 O.2   144  ALA144     -0.2867
    119  CB        -5.3480   29.6550   -2.0990 C.3   144  ALA144      0.0290
    120  N         -2.9910   26.5400   -6.9170 N.3   146  HIS146     -0.1241
    121  CA        -2.1250   26.8270   -8.0530 C.3   146  HIS146      0.1621
    122  C         -2.4700   25.8660   -9.1990 C.2   146  HIS146      0.2264
    123  O         -1.9530   25.9900  -10.3120 O.2   146  HIS146     -0.2867
    124  CB        -0.6410   26.7060   -7.6670 C.3   146  HIS146      0.0745
    125  CG        -0.1980   25.3000   -7.3580 C.ar  146  HIS146      0.0817
    126  ND1        0.1980   24.9000   -6.0990 N.ar  146  HIS146     -0.2268
    127  CD2       -0.0760   24.2070   -8.1500 C.ar  146  HIS146      0.1154
    128  CE1        0.5430   23.6260   -6.1280 C.ar  146  HIS146      0.1986
    129  NE2        0.3810   23.1820   -7.3600 N.ar  146  HIS146     -0.2212
    130  N         -4.4730   35.8690   -9.1870 N.3   173  MET173     -0.1245
    131  CA        -3.1910   36.5340   -8.9600 C.3   173  MET173      0.1570
    132  C         -2.2230   36.3090  -10.1180 C.2   173  MET173      0.2261
    133  O         -1.7670   35.1730  -10.3390 O.2   173  MET173     -0.2867
    134  CB        -2.5450   36.0390   -7.6660 C.3   173  MET173      0.0387
    135  CG        -3.4580   36.1370   -6.4420 C.3   173  MET173      0.0595
    136  SD        -3.9960   37.8300   -6.1950 S.3   173  MET173     -0.1393
    137  CE        -2.4460   38.5610   -5.6600 C.3   173  MET173      0.0692
    138  N          3.7580   40.9410  -14.6820 N.3   179  ARG179     -0.1245
    139  CA         3.6410   42.2770  -14.1040 C.3   179  ARG179      0.1563
    140  C          5.0110   42.7990  -13.7060 C.2   179  ARG179      0.2260
    141  O          5.2120   43.2330  -12.5670 O.2   179  ARG179     -0.2867
    142  CB         2.6970   42.2780  -12.9050 C.3   179  ARG179      0.0307
    143  CG         2.6740   40.9930  -12.1380 C.3   179  ARG179      0.0489
    144  CD         2.3940   41.2540  -10.6770 C.3   179  ARG179      0.2205
    145  NE         2.1080   40.0020   -9.9770 N.pl3 179  ARG179     -0.0865
    146  CZ         2.0720   39.8710   -8.6530 C.cat 179  ARG179      0.5346
    147  NH1        2.2970   40.9280   -7.8730 N.pl3 179  ARG179      0.1354
    148  NH2        1.8050   38.6790   -8.1180 N.pl3 179  ARG179      0.1354
    149  N          7.7260   46.3720   -5.4510 N.3   186  LEU186     -0.1245
    150  CA         7.8110   45.1910   -4.6190 C.3   186  LEU186      0.1561
    151  C          9.2080   45.1390   -3.9910 C.2   186  LEU186      0.2260
    152  O          9.3660   44.7140   -2.8470 O.2   186  LEU186     -0.2867
    153  CB         7.5220   43.9100   -5.4390 C.3   186  LEU186      0.0270
    154  CG         6.1450   43.7030   -6.0670 C.3   186  LEU186      0.0019
    155  CD1        6.2030   42.7340   -7.2390 C.3   186  LEU186      0.0001
    156  CD2        5.1150   43.2130   -5.0280 C.3   186  LEU186      0.0001
    157  N          9.1780   47.4380   -1.1490 N.3   189  GLU189     -0.1231
    158  CA         8.4670   46.7920   -0.0550 C.3   189  GLU189      0.1699
    159  C          9.3110   45.7490    0.6960 C.2   189  GLU189      0.2592
    160  O          9.3440   45.7470    1.9280 O.2   189  GLU189     -0.2718
    161  CB         7.2020   46.1370   -0.5800 C.3   189  GLU189      0.0402
    162  CG         6.3740   45.4710    0.4830 C.3   189  GLU189      0.1161
    163  CD         6.0660   46.3910    1.6670 C.2   189  GLU189      0.3649
    164  OE1        5.9390   45.8630    2.7910 O.co2 189  GLU189     -0.2457
    165  OE2        5.9580   47.6250    1.4800 O.co2 189  GLU189     -0.2457
    166  N          9.9910   44.8780   -0.0510 N.am  190  LEU190     -0.1980
    167  CA        10.7730   43.7890    0.5340 C.3   190  LEU190      0.1596
    168  C         12.0110   44.3010    1.2660 C.2   190  LEU190      0.2287
    169  O         12.3510   43.8040    2.3400 O.2   190  LEU190     -0.2864
    170  CB        11.1610   42.7670   -0.5450 C.3   190  LEU190      0.0297
    171  CG         9.9680   41.9650   -1.0850 C.3   190  LEU190      0.0022
    172  CD1       10.2660   41.1090   -2.3340 C.3   190  LEU190      0.0001
    173  CD2        9.3780   41.1030    0.0080 C.3   190  LEU190      0.0001
    174  N         10.9340   45.8970    4.4320 N.3   193  ARG193     -0.1245
    175  CA        10.6100   44.8440    5.3610 C.3   193  ARG193      0.1563
    176  C         11.8820   44.3690    6.0760 C.2   193  ARG193      0.2260
    177  O         11.9860   44.4220    7.3060 O.2   193  ARG193     -0.2867
    178  CB         9.9140   43.7070    4.6140 C.3   193  ARG193      0.0307
    179  CG         8.4880   43.4870    5.0700 C.3   193  ARG193      0.0489
    180  CD         7.4840   43.6280    3.9330 C.3   193  ARG193      0.2205
    181  NE         7.3060   42.4060    3.1530 N.pl3 193  ARG193     -0.0865
    182  CZ         6.1670   42.0670    2.5510 C.cat 193  ARG193      0.5346
    183  NH1        5.0990   42.8530    2.6310 N.pl3 193  ARG193      0.1354
    184  NH2        6.0870   40.9290    1.8690 N.pl3 193  ARG193      0.1354
    185  N          6.9260   36.2360   -6.7680 N.3   221  VAL221     -0.1231
    186  CA         7.2820   37.2260   -5.7490 C.3   221  VAL221      0.1692
    187  C          8.0370   36.6250   -4.5420 C.2   221  VAL221      0.2591
    188  O          8.9670   37.2570   -4.0370 O.2   221  VAL221     -0.2718
    189  CB         6.0430   38.0080   -5.2530 C.3   221  VAL221      0.0266
    190  CG1        6.4540   39.1540   -4.2970 C.3   221  VAL221      0.0020
    191  CG2        5.2850   38.5730   -6.4250 C.3   221  VAL221      0.0020
    192  N          7.6890   35.4170   -4.0910 N.am  222  ARG222     -0.1980
    193  CA         8.5080   34.7510   -3.0680 C.3   222  ARG222      0.1597
    194  C          9.9820   34.5220   -3.5010 C.2   222  ARG222      0.2287
    195  O         10.8990   34.5230   -2.6590 O.2   222  ARG222     -0.2864
    196  CB         7.8960   33.4030   -2.6660 C.3   222  ARG222      0.0334
    197  CG         8.6650   32.6990   -1.5340 C.3   222  ARG222      0.0492
    198  CD         8.0340   31.3850   -1.0730 C.3   222  ARG222      0.2205
    199  NE         6.6050   31.5150   -0.8160 N.pl3 222  ARG222     -0.0865
    200  CZ         5.6670   30.8550   -1.4870 C.cat 222  ARG222      0.5346
    201  NH1        6.0150   30.0070   -2.4450 N.pl3 222  ARG222      0.1354
    202  NH2        4.3870   31.0330   -1.1890 N.pl3 222  ARG222      0.1354
    203  N         11.7160   37.7540   -3.2900 N.3   225  ALA225     -0.1245
    204  CA        11.9980   37.9940   -1.8860 C.3   225  ALA225      0.1562
    205  C         13.2760   37.2930   -1.4620 C.2   225  ALA225      0.2260
    206  O         14.1190   37.8780   -0.8000 O.2   225  ALA225     -0.2867
    207  CB        10.8430   37.5490   -1.0320 C.3   225  ALA225      0.0290
@<TRIPOS>BOND
     1   138   139    1
     2   139   140    1
     3   139   142    1
     4   140   141    2
     5   142   143    1
     6   143   144    1
     7   144   145    1
     8    33    34    1
     9   133   132    2
    10   123   122    2
    11   132   131    1
    12   145   146    2
    13   122   121    1
    14   130   131    1
    15    34    37    1
    16    34    35    1
    17   131   134    1
    18   146   148    1
    19   146   147    1
    20    57    55    1
    21    37    39    1
    22    37    38    1
    23    35    36    2
    24   127   129   ar
    25   127   125   ar
    26   121   124    1
    27   121   120    1
    28   124   125    1
    29   134   135    1
    30    55    56    1
    31    55    52    1
    32    40    38    1
    33   129   128   ar
    34   125   126   ar
    35    41    42    1
    36   155   154    1
    37    44    43    2
    38   185   186    1
    39   135   136    1
    40   191   189    1
    41    52    51    1
    42    52    53    1
    43   136   137    1
    44   128   126   ar
    45    42    45    1
    46    42    43    1
    47   154   153    1
    48   154   156    1
    49    45    46    1
    50    43    47   am
    51    54    53    2
    52   186   189    1
    53   186   187    1
    54    29    28    2
    55    51    49   am
    56   149   150    1
    57   153   150    1
    58    53    58   am
    59    50    49    2
    60   189   190    1
    61    68    69    1
    62    68    67    1
    63    28    27    1
    64    49    48    1
    65    70    69    1
    66    47    48    1
    67   150   151    1
    68    67    66    1
    69   187   192   am
    70   187   188    2
    71    31    30    1
    72   192   193    1
    73    58    59    1
    74   151   152    2
    75    27    30    1
    76    27    26    1
    77   117   118    2
    78   117   116    1
    79   194   193    1
    80   194   195    2
    81    25    23    1
    82   203   204    1
    83    59    60    1
    84    30    32    1
    85    23    22    1
    86    23    24    1
    87    21    20    2
    88    66    63    1
    89   193   196    1
    90    26    20   am
    91   116   119    1
    92   116   115    1
    93    62    60   am
    94    62    63    1
    95    20    19    1
    96   196   197    1
    97    22    19    1
    98    60    61    2
    99    63    64    1
   100   201   200    1
   101   172   171    1
   102   108   107    1
   103   108   109    2
   104   107   110    1
   105   107   106    1
   106    19    18    1
   107   204   205    1
   108   204   207    1
   109   197   198    1
   110   110   111    1
   111   200   202    1
   112   200   199    2
   113   205   206    2
   114   106   100   am
   115   157   158    1
   116   171   170    1
   117   171   173    1
   118   198   199    1
   119    64    65    2
   120    64    71   am
   121   111   112    1
   122   104   103   ar
   123    18    14   am
   124   161   158    1
   125   161   162    1
   126   170   167    1
   127    71    72    1
   128   158   159    1
   129   166   167    1
   130   166   159   am
   131   100   101    2
   132   100    99    1
   133   112   114   ar
   134   112   113   ar
   135    15    14    2
   136    14    13    1
   137   162   163    1
   138   103   105   ar
   139   103   102    1
   140   167   168    1
   141    84    86    1
   142    84    85    1
   143    84    81    1
   144   159   160    2
   145    99   102    1
   146    99    98    1
   147    80    81    1
   148    80    73   am
   149    82    81    1
   150    82    83    2
   151   168   169    2
   152    72    73    1
   153    72    75    1
   154    95    97   ar
   155    95    93   ar
   156   165   163   ar
   157    97    96   ar
   158   163   164   ar
   159    16    13    1
   160    16    17    1
   161    73    74    2
   162    13    12    1
   163   184   182    1
   164    75    76    1
   165    93    92   ar
   166   182   183    1
   167   182   181    2
   168    96    94   ar
   169    12     3   am
   170     4     3    2
   171   181   180    1
   172    76    77    1
   173     3     2    1
   174     5     2    1
   175     5     6    1
   176    92    94   ar
   177    92    91    1
   178   180   179    1
   179    89    90    2
   180    89    88    1
   181     2     1    1
   182   174   175    1
   183    77    78   ar
   184    77    79   ar
   185     6     7    1
   186   178   179    1
   187   178   175    1
   188    88    91    1
   189    88    87    1
   190     7     8    1
   191   175   176    1
   192     8     9    2
   193   176   177    2
   194     9    10    1
   195     9    11    1
