@<TRIPOS>MOLECULE
tmp/5extA00.pdb
 183 172 0 0 0
SMALL
GASTEIGER

@<TRIPOS>ATOM
      1  N         52.3550   48.7200   -4.4860 N.3     3  ARG3       -0.1231
      2  CA        53.1810   47.9520   -3.5690 C.3     3  ARG3        0.1694
      3  C         52.2660   47.2700   -2.5640 C.2     3  ARG3        0.2593
      4  O         51.1560   47.7310   -2.3300 O.2     3  ARG3       -0.2718
      5  CB        54.1750   48.8580   -2.8430 C.3     3  ARG3        0.0321
      6  CG        55.5500   48.9790   -3.4680 C.3     3  ARG3        0.0489
      7  CD        55.5480   49.3270   -4.9320 C.3     3  ARG3        0.2205
      8  NE        56.2550   48.2890   -5.6780 N.pl3   3  ARG3       -0.0865
      9  CZ        57.5760   48.2350   -5.8450 C.cat   3  ARG3        0.5346
     10  NH1       58.3640   49.1700   -5.3320 N.pl3   3  ARG3        0.1354
     11  NH2       58.1130   47.2370   -6.5310 N.pl3   3  ARG3        0.1354
     12  N         52.7120   46.1760   -1.9640 N.am    4  SER4       -0.1938
     13  CA        51.9440   45.6080   -0.8760 C.3     4  SER4        0.2055
     14  C         52.5300   46.0280    0.4610 C.2     4  SER4        0.2643
     15  O         53.6940   46.4120    0.5580 O.2     4  SER4       -0.2714
     16  CB        51.8780   44.0900   -0.9850 C.3     4  SER4        0.2130
     17  OG        50.5300   43.6840   -1.1840 O.3     4  SER4       -0.2179
     18  N         51.7050   45.9670    1.4930 N.am    5  LEU5       -0.1963
     19  CA        52.0910   46.4390    2.8170 C.3     5  LEU5        0.1728
     20  C         52.6660   45.3310    3.6530 C.2     5  LEU5        0.2616
     21  O         51.9420   44.6110    4.3350 O.2     5  LEU5       -0.2715
     22  CB        50.9020   47.0480    3.5520 C.3     5  LEU5        0.0311
     23  CG        50.4350   48.4010    3.0450 C.3     5  LEU5        0.0022
     24  CD1       51.6290   49.3940    2.9960 C.3     5  LEU5        0.0001
     25  CD2       49.7300   48.2470    1.6950 C.3     5  LEU5        0.0001
     26  N         53.9790   45.2060    3.5840 N.am    6  VAL6       -0.1977
     27  CA        54.7350   44.2520    4.3690 C.3     6  VAL6        0.1596
     28  C         54.5890   44.5760    5.8420 C.2     6  VAL6        0.2287
     29  O         54.4050   45.7300    6.2060 O.2     6  VAL6       -0.2864
     30  CB        56.2150   44.2890    3.9540 C.3     6  VAL6        0.0276
     31  CG1       57.0330   43.3230    4.7530 C.3     6  VAL6        0.0022
     32  CG2       56.3360   44.0210    2.4650 C.3     6  VAL6        0.0022
     33  N         49.5750   46.8880   11.4660 N.3    12  ILE12      -0.1245
     34  CA        49.6660   46.7580   10.0150 C.3    12  ILE12       0.1561
     35  C         48.6560   45.7310    9.4890 C.2    12  ILE12       0.2260
     36  O         48.1710   45.8510    8.3600 O.2    12  ILE12      -0.2867
     37  CB        51.1020   46.3840    9.5640 C.3    12  ILE12       0.0252
     38  CG1       51.4830   47.1910    8.3230 C.3    12  ILE12       0.0019
     39  CG2       51.2470   44.9120    9.3010 C.3    12  ILE12       0.0019
     40  CD1       51.8230   48.6140    8.6350 C.3    12  ILE12       0.0001
     41  N         54.9680   61.4240    8.1180 N.3    35  SER35      -0.1202
     42  CA        55.6620   61.3280    6.8460 C.3    35  SER35       0.2020
     43  C         56.4690   60.0370    6.7140 C.2    35  SER35       0.2619
     44  O         57.1860   59.6410    7.6370 O.2    35  SER35      -0.2717
     45  CB        56.5920   62.5340    6.6780 C.3    35  SER35       0.2103
     46  OG        56.8990   62.7220    5.3150 O.3    35  SER35      -0.2182
     47  N         56.3520   59.3870    5.5620 N.am   36  GLY36      -0.1942
     48  CA        57.0810   58.1560    5.2950 C.3    36  GLY36       0.2014
     49  C         56.4800   56.8820    5.8850 C.2    36  GLY36       0.2640
     50  O         57.1380   55.8330    5.9590 O.2    36  GLY36      -0.2714
     51  N         55.2290   56.9520    6.3140 N.am   37  THR37      -0.1936
     52  CA        54.6510   55.7910    6.9730 C.3    37  THR37       0.2028
     53  C         53.9010   54.8660    6.0160 C.2    37  THR37       0.2643
     54  O         53.3780   53.8510    6.4430 O.2    37  THR37      -0.2714
     55  CB        53.7110   56.1950    8.1210 C.3    37  THR37       0.1808
     56  OG1       52.6870   57.0790    7.6390 O.3    37  THR37      -0.2208
     57  CG2       54.5150   56.8360    9.2430 C.3    37  THR37       0.0379
     58  N         53.8890   55.2120    4.7290 N.am   38  GLY38      -0.1939
     59  CA        53.2620   54.4050    3.6930 C.3    38  GLY38       0.2014
     60  C         51.8420   54.8350    3.3190 C.2    38  GLY38       0.2639
     61  O         51.0610   54.0270    2.8260 O.2    38  GLY38      -0.2714
     62  N         51.5080   56.1070    3.5470 N.am   39  LYS39      -0.1963
     63  CA        50.1780   56.6140    3.2390 C.3    39  LYS39       0.1728
     64  C         49.8960   56.5880    1.7370 C.2    39  LYS39       0.2616
     65  O         48.8020   56.2260    1.3210 O.2    39  LYS39      -0.2715
     66  CB        49.9940   58.0360    3.7920 C.3    39  LYS39       0.0311
     67  CG        50.0400   58.1240    5.3060 C.3    39  LYS39       0.0038
     68  CD        49.6170   59.4970    5.8330 C.3    39  LYS39       0.0206
     69  CE        50.3730   60.6100    5.1410 C.3    39  LYS39       0.1093
     70  NZ        51.8230   60.5470    5.4210 N.3    39  LYS39      -0.1314
     71  N         50.8770   56.9600    0.9200 N.am   40  GLU40      -0.1963
     72  CA        50.6720   56.8850   -0.5210 C.3    40  GLU40       0.1733
     73  C         50.5980   55.4390   -1.0360 C.2    40  GLU40       0.2616
     74  O         49.8750   55.1670   -1.9800 O.2    40  GLU40      -0.2715
     75  CB        51.7650   57.6430   -1.2760 C.3    40  GLU40       0.0429
     76  CG        51.4090   57.8400   -2.7390 C.3    40  GLU40       0.1163
     77  CD        52.2600   58.8750   -3.4580 C.2    40  GLU40       0.3649
     78  OE1       52.9650   59.6760   -2.7990 O.co2  40  GLU40      -0.2457
     79  OE2       52.2090   58.8900   -4.7060 O.co2  40  GLU40      -0.2457
     80  N         51.3610   54.5320   -0.4250 N.am   41  VAL41      -0.1977
     81  CA        51.2350   53.1210   -0.7180 C.3    41  VAL41       0.1596
     82  C         49.8010   52.6490   -0.4890 C.2    41  VAL41       0.2287
     83  O         49.2150   52.0270   -1.3660 O.2    41  VAL41      -0.2864
     84  CB        52.1580   52.2250    0.1410 C.3    41  VAL41       0.0276
     85  CG1       52.0500   50.7920   -0.3480 C.3    41  VAL41       0.0022
     86  CG2       53.6050   52.6720    0.0750 C.3    41  VAL41       0.0022
     87  N         43.7570   61.7230   -5.2550 N.3   102  PHE102     -0.1241
     88  CA        44.5050   61.6250   -4.0020 C.3   102  PHE102      0.1605
     89  C         44.9490   62.9880   -3.4900 C.2   102  PHE102      0.2264
     90  O         45.8150   63.6350   -4.0700 O.2   102  PHE102     -0.2867
     91  CB        45.7290   60.7170   -4.1870 C.3   102  PHE102      0.0534
     92  CG        46.5740   60.5560   -2.9450 C.ar  102  PHE102     -0.0203
     93  CD1       45.9970   60.2340   -1.7290 C.ar  102  PHE102     -0.0042
     94  CD2       47.9550   60.7020   -3.0060 C.ar  102  PHE102     -0.0042
     95  CE1       46.7860   60.0830   -0.5930 C.ar  102  PHE102     -0.0003
     96  CE2       48.7450   60.5450   -1.8820 C.ar  102  PHE102     -0.0003
     97  CZ        48.1710   60.2400   -0.6730 C.ar  102  PHE102     -0.0000
     98  N         46.9860   64.7620   -1.2730 N.3   104  ASP104     -0.1239
     99  CA        48.1710   64.6250   -0.4450 C.3   104  ASP104      0.1674
    100  C         48.3600   65.8650    0.4350 C.2   104  ASP104      0.2266
    101  O         48.3540   66.9920   -0.0500 O.2   104  ASP104     -0.2867
    102  CB        49.3860   64.3780   -1.3460 C.3   104  ASP104      0.1410
    103  CG        50.6850   64.3530   -0.5870 C.2   104  ASP104      0.3668
    104  OD1       50.9870   63.3140    0.0530 O.co2 104  ASP104     -0.2456
    105  OD2       51.4070   65.3770   -0.6450 O.co2 104  ASP104     -0.2456
    106  N         48.0590   55.0470   10.1300 N.3   173  MET173     -0.1245
    107  CA        49.3380   54.3630    9.8980 C.3   173  MET173      0.1570
    108  C         50.3050   54.5840   11.0550 C.2   173  MET173      0.2261
    109  O         50.7730   55.6920   11.2490 O.2   173  MET173     -0.2867
    110  CB        49.9960   54.8720    8.6150 C.3   173  MET173      0.0387
    111  CG        49.2060   54.6510    7.3540 C.3   173  MET173      0.0595
    112  SD        48.7950   52.9160    7.0600 S.3   173  MET173     -0.1393
    113  CE        50.4370   52.1530    7.0790 C.3   173  MET173      0.0692
    114  N         56.3050   49.8980   15.3330 N.3   179  ARG179     -0.1245
    115  CA        56.1810   48.5740   14.7240 C.3   179  ARG179      0.1563
    116  C         57.5530   48.0180   14.3450 C.2   179  ARG179      0.2260
    117  O         57.7400   47.4910   13.2460 O.2   179  ARG179     -0.2867
    118  CB        55.2610   48.6170   13.4970 C.3   179  ARG179      0.0307
    119  CG        55.4710   49.8460   12.6400 C.3   179  ARG179      0.0489
    120  CD        54.7390   49.7690   11.3140 C.3   179  ARG179      0.2205
    121  NE        54.5360   51.1140   10.7850 N.pl3 179  ARG179     -0.0865
    122  CZ        54.5000   51.4170    9.4930 C.cat 179  ARG179      0.5346
    123  NH1       54.6570   50.4670    8.5830 N.pl3 179  ARG179      0.1354
    124  NH2       54.3100   52.6710    9.1130 N.pl3 179  ARG179      0.1354
    125  N         60.4950   44.5550    6.4910 N.3   186  LEU186     -0.1245
    126  CA        60.5970   45.7310    5.6560 C.3   186  LEU186      0.1561
    127  C         61.9820   45.7690    4.9980 C.2   186  LEU186      0.2260
    128  O         62.1270   46.0880    3.8080 O.2   186  LEU186     -0.2867
    129  CB        60.3330   46.9930    6.4850 C.3   186  LEU186      0.0270
    130  CG        58.8980   47.2700    6.9580 C.3   186  LEU186      0.0019
    131  CD1       58.8460   48.2950    8.0720 C.3   186  LEU186      0.0001
    132  CD2       58.0200   47.7360    5.8160 C.3   186  LEU186      0.0001
    133  N         61.9090   43.3020    1.9870 N.3   189  GLU189     -0.1231
    134  CA        61.2170   43.9260    0.8640 C.3   189  GLU189      0.1699
    135  C         62.0610   45.0270    0.1820 C.2   189  GLU189      0.2592
    136  O         62.2190   45.0390   -1.0510 O.2   189  GLU189     -0.2718
    137  CB        59.8680   44.4940    1.3350 C.3   189  GLU189      0.0402
    138  CG        59.1310   45.3350    0.2920 C.3   189  GLU189      0.1161
    139  CD        58.6580   44.5220   -0.9050 C.2   189  GLU189      0.3649
    140  OE1       58.3440   45.1340   -1.9510 O.co2 189  GLU189     -0.2457
    141  OE2       58.5970   43.2730   -0.8080 O.co2 189  GLU189     -0.2457
    142  N         62.6180   45.9340    0.9830 N.am  190  LEU190     -0.1980
    143  CA        63.3800   47.0510    0.4290 C.3   190  LEU190      0.1596
    144  C         64.6000   46.5770   -0.3240 C.2   190  LEU190      0.2287
    145  O         65.0160   47.2100   -1.2890 O.2   190  LEU190     -0.2864
    146  CB        63.8020   48.0260    1.5320 C.3   190  LEU190      0.0297
    147  CG        62.6450   48.8360    2.1040 C.3   190  LEU190      0.0022
    148  CD1       63.0180   49.4980    3.4210 C.3   190  LEU190      0.0001
    149  CD2       62.2180   49.8560    1.0630 C.3   190  LEU190      0.0001
    150  N         63.5290   44.8810   -3.7650 N.3   193  ARG193     -0.1245
    151  CA        63.2560   45.9420   -4.7180 C.3   193  ARG193      0.1563
    152  C         64.5460   46.3820   -5.3610 C.2   193  ARG193      0.2260
    153  O         64.6380   46.4710   -6.5790 O.2   193  ARG193     -0.2867
    154  CB        62.5770   47.1320   -4.0460 C.3   193  ARG193      0.0307
    155  CG        61.2080   46.8310   -3.4780 C.3   193  ARG193      0.0489
    156  CD        60.4970   48.1170   -3.1090 C.3   193  ARG193      0.2205
    157  NE        59.2500   47.8900   -2.3880 N.pl3 193  ARG193     -0.0865
    158  CZ        58.6270   48.8210   -1.6750 C.cat 193  ARG193      0.5346
    159  NH1       59.1340   50.0500   -1.5850 N.pl3 193  ARG193      0.1354
    160  NH2       57.5050   48.5220   -1.0390 N.pl3 193  ARG193      0.1354
    161  N         59.6310   54.7530    7.3610 N.3   221  VAL221     -0.1231
    162  CA        60.0260   53.7320    6.4080 C.3   221  VAL221      0.1692
    163  C         60.7830   54.3250    5.2260 C.2   221  VAL221      0.2591
    164  O         61.6620   53.6680    4.6720 O.2   221  VAL221     -0.2718
    165  CB        58.8180   52.9160    5.9000 C.3   221  VAL221      0.0266
    166  CG1       59.2770   51.8510    4.8950 C.3   221  VAL221      0.0020
    167  CG2       58.0570   52.2730    7.0700 C.3   221  VAL221      0.0020
    168  N         60.4600   55.5630    4.8470 N.am  222  ARG222     -0.1980
    169  CA        61.2460   56.2640    3.8300 C.3   222  ARG222      0.1597
    170  C         62.7160   56.4680    4.2690 C.2   222  ARG222      0.2287
    171  O         63.6450   56.3260    3.4730 O.2   222  ARG222     -0.2864
    172  CB        60.6090   57.6130    3.5000 C.3   222  ARG222      0.0334
    173  CG        61.3280   58.3690    2.4110 C.3   222  ARG222      0.0492
    174  CD        60.3410   59.1140    1.5650 C.3   222  ARG222      0.2205
    175  NE        59.6520   60.0970    2.3860 N.pl3 222  ARG222     -0.0865
    176  CZ        58.3390   60.2920    2.4060 C.cat 222  ARG222      0.5346
    177  NH1       57.5310   59.5810    1.6320 N.pl3 222  ARG222      0.1354
    178  NH2       57.8470   61.2260    3.2020 N.pl3 222  ARG222      0.1354
    179  N         64.3540   53.1410    3.9780 N.3   225  ALA225     -0.1245
    180  CA        64.6740   52.9210    2.5650 C.3   225  ALA225      0.1562
    181  C         65.9400   53.6770    2.1270 C.2   225  ALA225      0.2260
    182  O         66.7710   53.1590    1.3720 O.2   225  ALA225     -0.2867
    183  CB        63.4940   53.3140    1.6840 C.3   225  ALA225      0.0290
@<TRIPOS>BOND
     1   153   152    2
     2    11     9    1
     3     9     8    2
     4     9    10    1
     5     8     7    1
     6   152   151    1
     7    87    88    1
     8     7     6    1
     9   151   154    1
    10   151   150    1
    11    79    77   ar
    12     1     2    1
    13    91    88    1
    14    91    92    1
    15    90    89    2
    16   154   155    1
    17    88    89    1
    18     2     5    1
    19     2     3    1
    20   155   156    1
    21     6     5    1
    22    77    78   ar
    23    77    76    1
    24   156   157    1
    25    94    92   ar
    26    94    96   ar
    27    92    93   ar
    28    76    75    1
    29     3     4    2
    30     3    12   am
    31   157   158    2
    32    74    73    2
    33    12    13    1
    34   140   139   ar
    35    96    97   ar
    36    93    95   ar
    37   158   159    1
    38   158   160    1
    39    83    82    2
    40   102   103    1
    41   102    99    1
    42   145   144    2
    43    75    72    1
    44    98    99    1
    45    17    16    1
    46   136   135    2
    47    73    72    1
    48    73    80   am
    49    16    13    1
    50   139   141   ar
    51   139   138    1
    52    13    14    1
    53    81    82    1
    54    81    80    1
    55    81    84    1
    56    97    95   ar
    57   105   103   ar
    58   103   104   ar
    59    72    71    1
    60    99   100    1
    61    85    84    1
    62   144   143    1
    63   101   100    2
    64    86    84    1
    65   135   134    1
    66   135   142   am
    67   138   137    1
    68   143   142    1
    69   143   146    1
    70    14    15    2
    71    14    18   am
    72   134   137    1
    73   134   133    1
    74    71    64   am
    75   149   147    1
    76    65    64    2
    77   182   181    2
    78    18    19    1
    79   146   147    1
    80   174   175    1
    81   174   173    1
    82   177   176    1
    83   183   180    1
    84    25    23    1
    85    64    63    1
    86   147   148    1
    87   181   180    1
    88   175   176    2
    89   176   178    1
    90   173   172    1
    91    32    30    1
    92   180   179    1
    93    19    22    1
    94    19    20    1
    95    61    60    2
    96    24    23    1
    97    23    22    1
    98    63    62    1
    99    63    66    1
   100    60    62   am
   101    60    59    1
   102   171   170    2
   103   172   169    1
   104    26    20   am
   105    26    27    1
   106    20    21    2
   107    59    58    1
   108    66    67    1
   109   128   127    2
   110   169   170    1
   111   169   168    1
   112    30    27    1
   113    30    31    1
   114    27    28    1
   115   164   163    2
   116    58    53   am
   117   168   163   am
   118   166   165    1
   119   127   126    1
   120    69    70    1
   121    69    68    1
   122   163   162    1
   123    48    47    1
   124    48    49    1
   125    67    68    1
   126    46    45    1
   127    47    43   am
   128   126   129    1
   129   126   125    1
   130   132   130    1
   131    28    29    2
   132    49    50    2
   133    49    51   am
   134   165   162    1
   135   165   167    1
   136    53    54    2
   137    53    52    1
   138    51    52    1
   139   162   161    1
   140   129   130    1
   141    45    42    1
   142    43    42    1
   143    43    44    2
   144    42    41    1
   145   130   131    1
   146    52    55    1
   147   112   113    1
   148   112   111    1
   149   111   110    1
   150    56    55    1
   151    55    57    1
   152    38    40    1
   153    38    37    1
   154    36    35    2
   155   123   122    1
   156   110   107    1
   157   124   122    1
   158    39    37    1
   159    35    34    1
   160   122   121    2
   161    37    34    1
   162   107   106    1
   163   107   108    1
   164    34    33    1
   165   121   120    1
   166   108   109    2
   167   120   119    1
   168   119   118    1
   169   117   116    2
   170   118   115    1
   171   116   115    1
   172   115   114    1
