@<TRIPOS>MOLECULE
tmp/5exxA01.pdb
 121 118 0 0 0
SMALL
GASTEIGER

@<TRIPOS>ATOM
      1  N         62.3210   42.8540   63.3230 N.3     1  ARG1       -0.1245
      2  CA        61.7660   42.2030   64.5070 C.3     1  ARG1        0.1563
      3  C         60.5410   41.2760   64.2650 C.2     1  ARG1        0.2260
      4  O         60.4010   40.7010   63.1750 O.2     1  ARG1       -0.2867
      5  CB        61.3800   43.2770   65.4820 C.3     1  ARG1        0.0307
      6  CG        62.4940   44.2570   65.7970 C.3     1  ARG1        0.0489
      7  CD        62.1000   44.9990   67.1250 C.3     1  ARG1        0.2205
      8  NE        63.2570   45.7530   67.6450 N.pl3   1  ARG1       -0.0865
      9  CZ        63.2150   46.6040   68.7060 C.cat   1  ARG1        0.5346
     10  NH1       62.0350   46.8290   69.3870 N.pl3   1  ARG1        0.1354
     11  NH2       64.3520   47.2580   69.1030 N.pl3   1  ARG1        0.1354
     12  N         57.1570   42.5790   64.6390 N.3     3  PRO3       -0.2116
     13  CA        55.9880   43.4620   64.9060 C.3     3  PRO3        0.1372
     14  C         54.5900   43.1800   64.1740 C.2     3  PRO3        0.2244
     15  O         53.5480   43.0790   64.9060 O.2     3  PRO3       -0.2868
     16  CB        56.5200   44.8490   64.4810 C.3     3  PRO3        0.0268
     17  CG        57.5630   44.4900   63.2980 C.3     3  PRO3        0.0207
     18  CD        58.2170   43.2550   63.8410 C.3     3  PRO3        0.0892
     19  N         53.5640   45.4840   61.7050 N.3     5  LEU5       -0.1231
     20  CA        53.2450   46.7180   60.9960 C.3     5  LEU5        0.1693
     21  C         54.4290   47.3990   60.2710 C.2     5  LEU5        0.2592
     22  O         55.5910   47.3000   60.6640 O.2     5  LEU5       -0.2718
     23  CB        52.5890   47.7010   61.9440 C.3     5  LEU5        0.0284
     24  CG        51.1420   47.9730   61.5080 C.3     5  LEU5        0.0019
     25  CD1       50.2580   46.7740   61.6420 C.3     5  LEU5        0.0001
     26  CD2       50.5240   49.0700   62.3100 C.3     5  LEU5        0.0001
     27  N         54.0620   48.1320   59.2220 N.am    6  PHE6       -0.1962
     28  CA        54.9130   48.4840   58.0770 C.3     6  PHE6        0.1771
     29  C         54.8510   49.9280   57.5550 C.2     6  PHE6        0.2619
     30  O         54.1300   50.7700   58.0660 O.2     6  PHE6       -0.2715
     31  CB        54.5410   47.5850   56.9020 C.3     6  PHE6        0.0574
     32  CG        53.0650   47.5920   56.5580 C.ar    6  PHE6       -0.0200
     33  CD1       52.4810   48.6820   55.9870 C.ar    6  PHE6       -0.0042
     34  CD2       52.2780   46.4750   56.7710 C.ar    6  PHE6       -0.0042
     35  CE1       51.1400   48.6840   55.6490 C.ar    6  PHE6       -0.0003
     36  CE2       50.9230   46.4670   56.4310 C.ar    6  PHE6       -0.0003
     37  CZ        50.3570   47.5770   55.8770 C.ar    6  PHE6       -0.0000
     38  N         55.6200   50.1860   56.5120 N.am    7  ARG7       -0.1963
     39  CA        55.3750   51.2840   55.5910 C.3     7  ARG7        0.1729
     40  C         53.9220   51.4340   55.1960 C.2     7  ARG7        0.2617
     41  O         53.4600   50.6790   54.3850 O.2     7  ARG7       -0.2715
     42  CB        56.1900   51.0440   54.3340 C.3     7  ARG7        0.0348
     43  CG        57.4740   51.7690   54.4000 C.3     7  ARG7        0.0492
     44  CD        58.6660   50.9590   53.9250 C.3     7  ARG7        0.2205
     45  NE        59.7430   51.7170   54.4960 N.pl3   7  ARG7       -0.0865
     46  CZ        61.0180   51.6040   54.1800 C.cat   7  ARG7        0.5346
     47  NH1       61.4670   50.7320   53.2480 N.pl3   7  ARG7        0.1354
     48  NH2       61.8440   52.4060   54.8210 N.pl3   7  ARG7        0.1354
     49  N         53.1830   52.4000   55.7090 N.am    8  SER8       -0.1936
     50  CA        51.7500   52.3210   55.4720 C.3     8  SER8        0.2055
     51  C         51.1100   53.5970   55.0590 C.2     8  SER8        0.2642
     52  O         49.9010   53.6310   54.8320 O.2     8  SER8       -0.2714
     53  CB        51.0230   51.8410   56.7160 C.3     8  SER8        0.2130
     54  OG        49.6290   51.8210   56.4590 O.3     8  SER8       -0.2179
     55  N         51.9000   54.6600   55.0010 N.am    9  LEU9       -0.1977
     56  CA        51.4090   55.9380   54.4730 C.3     9  LEU9        0.1596
     57  C         51.6360   56.0700   52.9110 C.2     9  LEU9        0.2287
     58  O         51.6920   57.1730   52.3420 O.2     9  LEU9       -0.2864
     59  CB        52.0630   57.0700   55.2490 C.3     9  LEU9        0.0297
     60  CG        51.4880   57.3260   56.6610 C.3     9  LEU9        0.0022
     61  CD1       50.9210   56.0790   57.3910 C.3     9  LEU9        0.0001
     62  CD2       52.4800   58.0700   57.5860 C.3     9  LEU9        0.0001
     63  N         51.8420   53.6410   63.4330 N.3    45  VAL45      -0.1245
     64  CA        52.7530   53.9960   62.3410 C.3    45  VAL45       0.1561
     65  C         52.7730   55.5070   62.1320 C.2    45  VAL45       0.2260
     66  O         53.8180   56.0710   61.8020 O.2    45  VAL45      -0.2867
     67  CB        52.3590   53.3120   61.0050 C.3    45  VAL45       0.0252
     68  CG1       53.4500   53.4880   60.0010 C.3    45  VAL45       0.0019
     69  CG2       52.0930   51.8460   61.1900 C.3    45  VAL45       0.0019
     70  N         54.8920   56.6890   65.0610 N.3    48  ARG48      -0.1231
     71  CA        56.2660   56.2130   64.8900 C.3    48  ARG48       0.1694
     72  C         57.0690   57.0700   63.9470 C.2    48  ARG48       0.2592
     73  O         58.2940   57.2070   64.0700 O.2    48  ARG48      -0.2718
     74  CB        56.2540   54.7920   64.3630 C.3    48  ARG48       0.0321
     75  CG        56.9900   53.8200   65.2070 C.3    48  ARG48       0.0489
     76  CD        56.5450   52.4310   64.8710 C.3    48  ARG48       0.2205
     77  NE        56.0820   51.7240   66.0520 N.pl3  48  ARG48      -0.0865
     78  CZ        56.8840   51.2750   67.0040 C.cat  48  ARG48       0.5346
     79  NH1       56.3710   50.6290   68.0350 N.pl3  48  ARG48       0.1354
     80  NH2       58.1950   51.4690   66.9260 N.pl3  48  ARG48       0.1354
     81  N         56.3470   57.6120   62.9770 N.am   49  ASN49      -0.1974
     82  CA        56.9080   58.5190   62.0110 C.3    49  ASN49       0.1688
     83  C         57.2760   59.8240   62.6670 C.2    49  ASN49       0.2292
     84  O         58.4320   60.2520   62.6100 O.2    49  ASN49      -0.2864
     85  CB        55.9180   58.7550   60.8880 C.3    49  ASN49       0.1181
     86  CG        56.0780   57.7700   59.7680 C.2    49  ASN49       0.2629
     87  OD1       57.0680   57.8130   59.0610 O.2    49  ASN49      -0.2716
     88  ND2       55.0880   56.9030   59.5680 N.am   49  ASN49      -0.0877
     89  N         60.5270   59.8220   64.2760 N.3    52  TYR52      -0.1227
     90  CA        61.7410   59.7850   63.4680 C.3    52  TYR52       0.1736
     91  C         62.1230   61.1150   62.8760 C.2    52  TYR52       0.2595
     92  O         63.3010   61.4690   62.7960 O.2    52  TYR52      -0.2718
     93  CB        61.5660   58.8040   62.3300 C.3    52  TYR52       0.0548
     94  CG        62.8280   58.5180   61.5730 C.ar   52  TYR52      -0.0200
     95  CD1       63.9990   58.2090   62.2500 C.ar   52  TYR52      -0.0009
     96  CD2       62.8440   58.5140   60.1980 C.ar   52  TYR52      -0.0009
     97  CE1       65.1440   57.9220   61.5780 C.ar   52  TYR52       0.0417
     98  CE2       63.9820   58.2280   59.5260 C.ar   52  TYR52       0.0417
     99  CZ        65.1340   57.9270   60.2240 C.ar   52  TYR52       0.1957
    100  OH        66.3010   57.6200   59.5740 O.3    52  TYR52      -0.2866
    101  N         61.1080   61.8260   62.4100 N.am   53  HIS53      -0.1975
    102  CA        61.3160   63.0940   61.7410 C.3    53  HIS53       0.1656
    103  C         61.0360   64.1950   62.7670 C.2    53  HIS53       0.2291
    104  O         60.7560   65.3500   62.4270 O.2    53  HIS53      -0.2864
    105  CB        60.4370   63.1940   60.4770 C.3    53  HIS53       0.0771
    106  CG        60.6220   62.0470   59.5170 C.ar   53  HIS53       0.0820
    107  ND1       59.5770   61.4780   58.8170 N.ar   53  HIS53      -0.2267
    108  CD2       61.7310   61.3590   59.1500 C.ar   53  HIS53       0.1154
    109  CE1       60.0310   60.4890   58.0690 C.ar   53  HIS53       0.1986
    110  NE2       61.3350   60.3940   58.2540 N.ar   53  HIS53      -0.2212
    111  N         57.4930   43.4470   52.9060 N.3   197  ARG197     -0.1245
    112  CA        57.9210   43.1760   54.2840 C.3   197  ARG197      0.1563
    113  C         58.0320   41.6630   54.4000 C.2   197  ARG197      0.2260
    114  O         59.1230   41.1130   54.4680 O.2   197  ARG197     -0.2867
    115  CB        56.9500   43.7370   55.3450 C.3   197  ARG197      0.0307
    116  CG        57.3920   43.5330   56.8290 C.3   197  ARG197      0.0489
    117  CD        58.5880   44.4760   57.2070 C.3   197  ARG197      0.2205
    118  NE        59.3290   44.1350   58.4500 N.pl3 197  ARG197     -0.0865
    119  CZ        60.4390   43.3710   58.5350 C.cat 197  ARG197      0.5346
    120  NH1       60.9920   42.8040   57.4610 N.pl3 197  ARG197      0.1354
    121  NH2       61.0020   43.1570   59.7240 N.pl3 197  ARG197      0.1354
@<TRIPOS>BOND
     1    58    57    2
     2   111   112    1
     3    57    56    1
     4    47    46    1
     5    44    43    1
     6    44    45    1
     7    46    45    2
     8    46    48    1
     9   112   113    1
    10   112   115    1
    11    42    43    1
    12    42    39    1
    13    41    40    2
    14   113   114    2
    15    56    55    1
    16    56    59    1
    17    52    51    2
    18    55    51   am
    19    51    50    1
    20    40    39    1
    21    40    49   am
    22    59    60    1
    23   115   116    1
    24    50    49    1
    25    50    53    1
    26    39    38    1
    27    35    37   ar
    28    35    33   ar
    29    37    36   ar
    30    33    32   ar
    31    36    34   ar
    32    54    53    1
    33    38    29   am
    34    32    34   ar
    35    32    31    1
    36    60    61    1
    37    60    62    1
    38   116   117    1
    39    31    28    1
    40   117   118    1
    41   120   119    1
    42    29    30    2
    43    29    28    1
    44   109   110   ar
    45   109   107   ar
    46    28    27    1
    47   110   108   ar
    48   118   119    2
    49   119   121    1
    50   107   106   ar
    51    87    86    2
    52   108   106   ar
    53    27    21   am
    54   106   105    1
    55    98    96   ar
    56    98    99   ar
    57    88    86   am
    58   100    99    1
    59    86    85    1
    60    68    67    1
    61    96    94   ar
    62    99    97   ar
    63    21    22    2
    64    21    20    1
    65   105   102    1
    66    85    82    1
    67    20    19    1
    68    20    23    1
    69    67    69    1
    70    67    64    1
    71    24    25    1
    72    24    23    1
    73    24    26    1
    74    94    95   ar
    75    94    93    1
    76    97    95   ar
    77   102   101    1
    78   102   103    1
    79    66    65    2
    80    82    83    1
    81    82    81    1
    82    65    64    1
    83    93    90    1
    84    64    63    1
    85   101    91   am
    86   104   103    2
    87    84    83    2
    88    92    91    2
    89    91    90    1
    90    81    72   am
    91     4     3    2
    92    17    18    1
    93    17    16    1
    94     1     2    1
    95    90    89    1
    96    18    12    1
    97    72    73    2
    98    72    71    1
    99    14    15    2
   100    14    13    1
   101     3     2    1
   102    74    71    1
   103    74    75    1
   104    16    13    1
   105     2     5    1
   106    12    13    1
   107    76    75    1
   108    76    77    1
   109    71    70    1
   110     5     6    1
   111     6     7    1
   112    77    78    2
   113    80    78    1
   114    78    79    1
   115     7     8    1
   116     8     9    2
   117     9    11    1
   118     9    10    1
