@<TRIPOS>MOLECULE
tmp/5exzA00.pdb
 87 82 0 0 0
SMALL
GASTEIGER

@<TRIPOS>ATOM
      1  N         46.8510   12.4960   12.8230 N.3    24  TYR24      -0.1241
      2  CA        46.2350   13.4440   11.9090 C.3    24  TYR24       0.1605
      3  C         44.7610   13.0780   11.6330 C.2    24  TYR24       0.2264
      4  O         43.8690   13.9400   11.6580 O.2    24  TYR24      -0.2867
      5  CB        47.0580   13.5060   10.6080 C.3    24  TYR24       0.0534
      6  CG        46.4590   14.4290    9.5760 C.ar   24  TYR24      -0.0201
      7  CD1       46.6300   15.8080    9.6580 C.ar   24  TYR24      -0.0009
      8  CD2       45.6770   13.9260    8.5380 C.ar   24  TYR24      -0.0009
      9  CE1       46.0620   16.6640    8.7080 C.ar   24  TYR24       0.0417
     10  CE2       45.0840   14.7690    7.6050 C.ar   24  TYR24       0.0417
     11  CZ        45.2680   16.1350    7.7000 C.ar   24  TYR24       0.1957
     12  OH        44.6920   16.9190    6.7400 O.3    24  TYR24      -0.2866
     13  N         40.7010   14.6090   12.8140 N.3    28  ASN28      -0.1240
     14  CA        39.6630   14.8620   11.8060 C.3    28  ASN28       0.1653
     15  C         38.4360   13.9660   11.9270 C.2    28  ASN28       0.2266
     16  O         37.4350   14.2230   11.2390 O.2    28  ASN28      -0.2867
     17  CB        40.2280   14.7190   10.4030 C.3    28  ASN28       0.1155
     18  CG        40.8840   15.9630    9.9620 C.2    28  ASN28       0.2627
     19  OD1       40.8490   16.9570   10.6740 O.2    28  ASN28      -0.2716
     20  ND2       41.5500   15.9260    8.8090 N.am   28  ASN28      -0.0877
     21  N         43.2750   22.1720   12.0330 N.3   114  PRO114     -0.2116
     22  CA        42.8860   21.6670   10.6910 C.3   114  PRO114      0.1372
     23  C         41.6020   20.8100   10.6770 C.2   114  PRO114      0.2244
     24  O         41.0840   20.5410    9.5870 O.2   114  PRO114     -0.2868
     25  CB        44.0920   20.8310   10.2530 C.3   114  PRO114      0.0268
     26  CG        44.8240   20.5150   11.4880 C.3   114  PRO114      0.0207
     27  CD        44.5660   21.6080   12.4790 C.3   114  PRO114      0.0892
     28  N         45.4280   29.4630    4.7900 N.3   151  LYS151     -0.1245
     29  CA        45.8560   28.1460    5.2090 C.3   151  LYS151      0.1561
     30  C         47.2320   28.2520    5.8000 C.2   151  LYS151      0.2260
     31  O         48.1120   28.8310    5.1590 O.2   151  LYS151     -0.2867
     32  CB        45.8750   27.1890    4.0110 C.3   151  LYS151      0.0271
     33  CG        44.5050   26.6950    3.5630 C.3   151  LYS151      0.0035
     34  CD        44.6090   26.2220    2.1160 C.3   151  LYS151      0.0206
     35  CE        43.2760   25.9450    1.4890 C.3   151  LYS151      0.1093
     36  NZ        43.4250   25.2590    0.1830 N.3   151  LYS151     -0.1314
     37  N         50.4360   26.3950    6.3280 N.3   153  LYS153     -0.1245
     38  CA        50.9930   25.1400    5.8030 C.3   153  LYS153      0.1561
     39  C         52.4260   24.9010    6.2460 C.2   153  LYS153      0.2260
     40  O         53.1960   25.8440    6.4390 O.2   153  LYS153     -0.2867
     41  CB        50.9270   25.0830    4.2640 C.3   153  LYS153      0.0271
     42  CG        49.5460   25.2980    3.6450 C.3   153  LYS153      0.0035
     43  CD        49.4390   24.5900    2.3040 C.3   153  LYS153      0.0206
     44  CE        48.1290   24.8840    1.6350 C.3   153  LYS153      0.1093
     45  NZ        48.2880   25.7910    0.4600 N.3   153  LYS153     -0.1314
     46  N         53.8070   21.4170    2.8190 N.3   156  GLY156     -0.1210
     47  CA        52.6720   21.2390    1.9200 C.3   156  GLY156      0.1956
     48  C         51.3860   20.7670    2.5800 C.2   156  GLY156      0.2612
     49  O         50.3950   20.5560    1.8850 O.2   156  GLY156     -0.2717
     50  N         51.3780   20.5870    3.9170 N.am  157  GLU157     -0.1965
     51  CA        50.1810   20.1600    4.6610 C.3   157  GLU157      0.1733
     52  C         49.5260   21.3390    5.4140 C.2   157  GLU157      0.2616
     53  O         50.2370   22.1540    6.0020 O.2   157  GLU157     -0.2715
     54  CB        50.5470   19.0670    5.6650 C.3   157  GLU157      0.0429
     55  CG        49.3790   18.5870    6.5100 C.3   157  GLU157      0.1163
     56  CD        49.6770   17.3250    7.2870 C.2   157  GLU157      0.3649
     57  OE1       50.1090   16.3360    6.6580 O.co2 157  GLU157     -0.2457
     58  OE2       49.4950   17.3270    8.5230 O.co2 157  GLU157     -0.2457
     59  N         48.1840   21.3880    5.4270 N.am  158  ILE158     -0.1977
     60  CA        47.4030   22.3810    6.1780 C.3   158  ILE158      0.1596
     61  C         47.4470   21.9830    7.6490 C.2   158  ILE158      0.2287
     62  O         46.9210   20.9280    8.0270 O.2   158  ILE158     -0.2864
     63  CB        45.9380   22.4930    5.6530 C.3   158  ILE158      0.0276
     64  CG1       45.8870   23.0320    4.2030 C.3   158  ILE158      0.0022
     65  CG2       45.0910   23.3650    6.5720 C.3   158  ILE158      0.0022
     66  CD1       44.4730   22.7900    3.4890 C.3   158  ILE158      0.0001
     67  N         44.1980   27.1950   10.1950 N.3   161  TYR161     -0.1241
     68  CA        43.6060   28.3010    9.4470 C.3   161  TYR161      0.1605
     69  C         43.7700   29.5560   10.2230 C.2   161  TYR161      0.2264
     70  O         43.6140   29.5060   11.4350 O.2   161  TYR161     -0.2867
     71  CB        42.1240   28.0270    9.1710 C.3   161  TYR161      0.0534
     72  CG        41.9230   26.7910    8.3260 C.ar  161  TYR161     -0.0201
     73  CD1       42.0300   26.8460    6.9430 C.ar  161  TYR161     -0.0009
     74  CD2       41.6580   25.5550    8.9140 C.ar  161  TYR161     -0.0009
     75  CE1       41.8460   25.7060    6.1560 C.ar  161  TYR161      0.0417
     76  CE2       41.4700   24.4130    8.1400 C.ar  161  TYR161      0.0417
     77  CZ        41.5560   24.4940    6.7630 C.ar  161  TYR161      0.1957
     78  OH        41.3530   23.3740    6.0010 O.3   161  TYR161     -0.2866
     79  N         34.9150   19.3250   11.2770 N.3   183  LYS183     -0.1245
     80  CA        34.5950   18.7310    9.9730 C.3   183  LYS183      0.1561
     81  C         33.6340   17.5600   10.1330 C.2   183  LYS183      0.2260
     82  O         33.7850   16.7570   11.0700 O.2   183  LYS183     -0.2867
     83  CB        35.8700   18.1480    9.3210 C.3   183  LYS183      0.0271
     84  CG        36.7700   19.0630    8.5490 C.3   183  LYS183      0.0035
     85  CD        37.9620   18.2150    8.1490 C.3   183  LYS183      0.0206
     86  CE        38.9970   18.9950    7.4040 C.3   183  LYS183      0.1093
     87  NZ        40.3360   18.3690    7.5200 N.3   183  LYS183     -0.1314
@<TRIPOS>BOND
     1    36    35    1
     2    45    44    1
     3    35    34    1
     4    44    43    1
     5    49    48    2
     6    47    48    1
     7    47    46    1
     8    34    33    1
     9    43    42    1
    10    48    50   am
    11    66    64    1
    12    33    32    1
    13    42    41    1
    14    50    51    1
    15    32    29    1
    16    64    63    1
    17    41    38    1
    18    51    52    1
    19    51    54    1
    20    28    29    1
    21    31    30    2
    22    29    30    1
    23    52    59   am
    24    52    53    2
    25    59    60    1
    26    63    60    1
    27    63    65    1
    28    54    55    1
    29    38    39    1
    30    38    37    1
    31    78    77    1
    32    75    77   ar
    33    75    73   ar
    34    60    61    1
    35    39    40    2
    36    55    56    1
    37    57    56   ar
    38    12    11    1
    39    77    76   ar
    40    73    72   ar
    41    56    58   ar
    42    86    87    1
    43    86    85    1
    44    10    11   ar
    45    10     8   ar
    46    61    62    2
    47    11     9   ar
    48    76    74   ar
    49    85    84    1
    50    72    74   ar
    51    72    71    1
    52     8     6   ar
    53    84    83    1
    54     9     7   ar
    55    20    18   am
    56    71    68    1
    57    83    80    1
    58    68    67    1
    59    68    69    1
    60     6     7   ar
    61     6     5    1
    62    24    23    2
    63    18    17    1
    64    18    19    2
    65    80    81    1
    66    80    79    1
    67    81    82    2
    68    69    70    2
    69    25    22    1
    70    25    26    1
    71    17    14    1
    72     5     2    1
    73    23    22    1
    74    22    21    1
    75    16    15    2
    76    26    27    1
    77     3     4    2
    78     3     2    1
    79    14    15    1
    80    14    13    1
    81     2     1    1
    82    21    27    1
