@<TRIPOS>MOLECULE
tmp/5ey0A01.pdb
 149 142 0 0 0
SMALL
GASTEIGER

@<TRIPOS>ATOM
      1  N          6.5730   13.8230  -17.8230 N.3    21  ALA21      -0.1231
      2  CA         7.9840   13.5940  -17.5380 C.3    21  ALA21       0.1694
      3  C          8.2940   13.4890  -16.0480 C.2    21  ALA21       0.2592
      4  O          7.7130   14.2120  -15.2310 O.2    21  ALA21      -0.2718
      5  CB         8.8230   14.7100  -18.1520 C.3    21  ALA21       0.0304
      6  N          9.2030   12.5810  -15.6970 N.am   22  VAL22      -0.1966
      7  CA         9.7710   12.5740  -14.3630 C.3    22  VAL22       0.1727
      8  C         10.7500   13.7290  -14.2740 C.2    22  VAL22       0.2616
      9  O         11.5060   13.9670  -15.2020 O.2    22  VAL22      -0.2715
     10  CB        10.4940   11.2510  -14.0390 C.3    22  VAL22       0.0290
     11  CG1       10.7920   11.1820  -12.5600 C.3    22  VAL22       0.0023
     12  CG2        9.6400   10.0530  -14.4550 C.3    22  VAL22       0.0023
     13  N         10.7210   14.4520  -13.1600 N.am   23  ASP23      -0.1957
     14  CA        11.6860   15.5170  -12.8990 C.3    23  ASP23       0.1840
     15  C         12.9290   14.9070  -12.2490 C.2    23  ASP23       0.2622
     16  O         12.8410   14.3590  -11.1570 O.2    23  ASP23      -0.2715
     17  CB        11.0540   16.5750  -11.9930 C.3    23  ASP23       0.1450
     18  CG        11.8880   17.8370  -11.8780 C.2    23  ASP23       0.3671
     19  OD1       13.1190   17.8060  -12.1130 O.co2  23  ASP23      -0.2456
     20  OD2       11.2880   18.8760  -11.5420 O.co2  23  ASP23      -0.2456
     21  N         14.0860   15.0000  -12.9010 N.am   24  PHE24      -0.1974
     22  CA        15.2940   14.3920  -12.3260 C.3    24  PHE24       0.1639
     23  C         15.7560   15.1050  -11.0450 C.2    24  PHE24       0.2290
     24  O         16.5440   14.5570  -10.2740 O.2    24  PHE24      -0.2864
     25  CB        16.4490   14.3630  -13.3500 C.3    24  PHE24       0.0560
     26  CG        16.1620   13.5210  -14.5750 C.ar   24  PHE24      -0.0200
     27  CD1       15.1680   12.5370  -14.5490 C.ar   24  PHE24      -0.0042
     28  CD2       16.8770   13.7140  -15.7470 C.ar   24  PHE24      -0.0042
     29  CE1       14.8960   11.7710  -15.6800 C.ar   24  PHE24      -0.0003
     30  CE2       16.6250   12.9370  -16.8810 C.ar   24  PHE24      -0.0003
     31  CZ        15.6240   11.9860  -16.8530 C.ar   24  PHE24      -0.0000
     32  N         24.1580   14.9820  -17.6170 N.3    43  SER43      -0.1202
     33  CA        24.1040   14.6540  -19.0270 C.3    43  SER43       0.2020
     34  C         25.4700   14.2510  -19.5450 C.2    43  SER43       0.2619
     35  O         26.4630   14.3290  -18.8210 O.2    43  SER43      -0.2717
     36  CB        23.5960   15.8470  -19.8300 C.3    43  SER43       0.2103
     37  OG        24.5780   16.8630  -19.8790 O.3    43  SER43      -0.2182
     38  N         25.5100   13.8460  -20.8110 N.am   44  ARG44      -0.1965
     39  CA        26.7620   13.4510  -21.4570 C.3    44  ARG44       0.1729
     40  C         27.8100   14.5490  -21.3940 C.2    44  ARG44       0.2616
     41  O         29.0000   14.2650  -21.2720 O.2    44  ARG44      -0.2715
     42  CB        26.5260   13.0810  -22.9250 C.3    44  ARG44       0.0348
     43  CG        25.7480   11.8030  -23.1510 C.3    44  ARG44       0.0492
     44  CD        25.5820   11.5440  -24.6430 C.3    44  ARG44       0.2205
     45  NE        24.3080   12.0250  -25.1710 N.pl3  44  ARG44      -0.0865
     46  CZ        24.1470   13.1780  -25.8140 C.cat  44  ARG44       0.5346
     47  NH1       25.1830   13.9820  -26.0070 N.pl3  44  ARG44       0.1354
     48  NH2       22.9490   13.5270  -26.2660 N.pl3  44  ARG44       0.1354
     49  N         27.3790   15.8050  -21.4990 N.am   45  ARG45      -0.1977
     50  CA        28.3220   16.9280  -21.5060 C.3    45  ARG45       0.1597
     51  C         28.4450   17.5810  -20.1380 C.2    45  ARG45       0.2287
     52  O         29.0400   18.6560  -19.9980 O.2    45  ARG45      -0.2864
     53  CB        27.9080   17.9670  -22.5540 C.3    45  ARG45       0.0334
     54  CG        28.1270   17.4800  -23.9800 C.3    45  ARG45       0.0492
     55  CD        27.7430   18.5270  -25.0160 C.3    45  ARG45       0.2205
     56  NE        26.3130   18.8190  -25.0140 N.pl3  45  ARG45      -0.0865
     57  CZ        25.7350   19.7040  -25.8200 C.cat  45  ARG45       0.5346
     58  NH1       26.4700   20.3790  -26.6930 N.pl3  45  ARG45       0.1354
     59  NH2       24.4250   19.9160  -25.7580 N.pl3  45  ARG45       0.1354
     60  N         25.9780   18.5860  -17.9120 N.3    47  LYS47      -0.1245
     61  CA        24.9380   19.4420  -17.3420 C.3    47  LYS47       0.1561
     62  C         24.3420   18.7350  -16.1290 C.2    47  LYS47       0.2260
     63  O         24.0610   17.5400  -16.1830 O.2    47  LYS47      -0.2867
     64  CB        23.8400   19.7750  -18.3650 C.3    47  LYS47       0.0271
     65  CG        22.8130   20.7870  -17.8460 C.3    47  LYS47       0.0035
     66  CD        21.6990   21.0320  -18.8500 C.3    47  LYS47       0.0206
     67  CE        22.1990   21.7010  -20.1190 C.3    47  LYS47       0.1093
     68  NZ        21.0570   22.0130  -21.0420 N.3    47  LYS47      -0.1314
     69  N         21.5050   17.6970  -14.2760 N.3    49  LEU49      -0.1245
     70  CA        20.0680   17.5700  -14.5110 C.3    49  LEU49       0.1561
     71  C         19.3260   17.4490  -13.1840 C.2    49  LEU49       0.2260
     72  O         18.1220   17.7440  -13.0940 O.2    49  LEU49      -0.2867
     73  CB        19.7720   16.3600  -15.4180 C.3    49  LEU49       0.0270
     74  CG        20.6240   16.3260  -16.7060 C.3    49  LEU49       0.0019
     75  CD1       20.3620   15.0310  -17.5090 C.3    49  LEU49       0.0001
     76  CD2       20.4060   17.5720  -17.5860 C.3    49  LEU49       0.0001
     77  N         26.7450   22.8260  -14.1320 N.3    70  HIS70      -0.1241
     78  CA        27.6310   21.8990  -14.8460 C.3    70  HIS70       0.1621
     79  C         28.7350   21.3900  -13.9480 C.2    70  HIS70       0.2264
     80  O         29.2820   22.1410  -13.1560 O.2    70  HIS70      -0.2867
     81  CB        28.2730   22.5620  -16.0700 C.3    70  HIS70       0.0745
     82  CG        27.3710   22.6690  -17.2590 C.ar   70  HIS70       0.0817
     83  ND1       26.4030   23.6480  -17.3770 N.ar   70  HIS70      -0.2268
     84  CD2       27.3080   21.9390  -18.3980 C.ar   70  HIS70       0.1154
     85  CE1       25.7790   23.5090  -18.5330 C.ar   70  HIS70       0.1986
     86  NE2       26.3070   22.4780  -19.1720 N.ar   70  HIS70      -0.2212
     87  N         23.6870    8.1010  -22.2600 N.3   123  LEU123     -0.1245
     88  CA        22.8590    9.3150  -22.2220 C.3   123  LEU123      0.1561
     89  C         23.1960   10.2340  -21.0480 C.2   123  LEU123      0.2260
     90  O         22.7320   11.3760  -20.9870 O.2   123  LEU123     -0.2867
     91  CB        21.3750    8.9300  -22.1540 C.3   123  LEU123      0.0270
     92  CG        20.8810    8.0940  -23.3270 C.3   123  LEU123      0.0019
     93  CD1       19.4470    7.6750  -23.0660 C.3   123  LEU123      0.0001
     94  CD2       20.9810    8.8750  -24.6210 C.3   123  LEU123      0.0001
     95  N         13.7740    7.6960  -19.4200 N.3   153  GLU153     -0.1231
     96  CA        13.1660    9.0260  -19.4360 C.3   153  GLU153      0.1699
     97  C         13.8540    9.9900  -20.3970 C.2   153  GLU153      0.2592
     98  O         13.1990   10.8100  -21.0590 O.2   153  GLU153     -0.2718
     99  CB        13.1630    9.6010  -18.0240 C.3   153  GLU153      0.0402
    100  CG        11.9490    9.1670  -17.2450 C.3   153  GLU153      0.1161
    101  CD        10.6850    9.8150  -17.7960 C.2   153  GLU153      0.3649
    102  OE1       10.4830   11.0190  -17.5370 O.co2 153  GLU153     -0.2457
    103  OE2        9.9280    9.1350  -18.5220 O.co2 153  GLU153     -0.2457
    104  N         15.1780    9.8870  -20.4840 N.am  154  ILE154     -0.1980
    105  CA        15.9050   10.6990  -21.4410 C.3   154  ILE154      0.1595
    106  C         15.5770   10.2350  -22.8450 C.2   154  ILE154      0.2287
    107  O         15.3700   11.0450  -23.7400 O.2   154  ILE154     -0.2864
    108  CB        17.4250   10.6370  -21.2010 C.3   154  ILE154      0.0276
    109  CG1       17.7760   11.3480  -19.8960 C.3   154  ILE154      0.0022
    110  CG2       18.1700   11.2760  -22.3650 C.3   154  ILE154      0.0022
    111  CD1       19.2550   11.2860  -19.5280 C.3   154  ILE154      0.0001
    112  N         12.8590    8.8030  -23.8820 N.3   156  ARG156     -0.1231
    113  CA        11.5070    9.2760  -24.2070 C.3   156  ARG156      0.1694
    114  C         11.5150   10.7600  -24.5600 C.2   156  ARG156      0.2592
    115  O         10.8840   11.1790  -25.5320 O.2   156  ARG156     -0.2718
    116  CB        10.5230    9.0250  -23.0510 C.3   156  ARG156      0.0321
    117  CG         9.0930    9.5100  -23.3540 C.3   156  ARG156      0.0489
    118  CD         8.2130    9.5790  -22.1010 C.3   156  ARG156      0.2205
    119  NE         8.8450   10.3730  -21.0560 N.pl3 156  ARG156     -0.0865
    120  CZ         8.9040   11.6990  -21.0620 C.cat 156  ARG156      0.5346
    121  NH1        8.3580   12.3880  -22.0570 N.pl3 156  ARG156      0.1354
    122  NH2        9.5180   12.3370  -20.0760 N.pl3 156  ARG156      0.1354
    123  N         12.2230   11.5630  -23.7690 N.am  157  GLU157     -0.1966
    124  CA        12.2800   13.0030  -24.0280 C.3   157  GLU157      0.1733
    125  C         12.8980   13.2930  -25.3820 C.2   157  GLU157      0.2616
    126  O         12.4170   14.1490  -26.1280 O.2   157  GLU157     -0.2715
    127  CB        13.0750   13.7340  -22.9350 C.3   157  GLU157      0.0429
    128  CG        12.2810   14.0400  -21.6750 C.3   157  GLU157      0.1163
    129  CD        11.1610   15.0590  -21.8930 C.2   157  GLU157      0.3649
    130  OE1       11.1660   15.7780  -22.9180 O.co2 157  GLU157     -0.2457
    131  OE2       10.2680   15.1420  -21.0270 O.co2 157  GLU157     -0.2457
    132  N         13.9650   12.5730  -25.7010 N.am  158  LYS158     -0.1977
    133  CA        14.6550   12.7800  -26.9670 C.3   158  LYS158      0.1596
    134  C         13.7680   12.3790  -28.1490 C.2   158  LYS158      0.2287
    135  O         13.6960   13.1010  -29.1470 O.2   158  LYS158     -0.2864
    136  CB        15.9770   12.0080  -26.9870 C.3   158  LYS158      0.0298
    137  CG        17.1270   12.7430  -26.3060 C.3   158  LYS158      0.0038
    138  CD        18.4460   12.0060  -26.5010 C.3   158  LYS158      0.0206
    139  CE        19.6420   12.9420  -26.3460 C.3   158  LYS158      0.1093
    140  NZ        19.6700   13.6670  -25.0410 N.3   158  LYS158     -0.1314
    141  N         10.9740   14.9160  -28.5430 N.3   161  GLU161     -0.1245
    142  CA        11.4650   16.1440  -29.1530 C.3   161  GLU161      0.1567
    143  C         11.5080   16.0080  -30.6680 C.2   161  GLU161      0.2260
    144  O         11.0390   16.8870  -31.3900 O.2   161  GLU161     -0.2867
    145  CB        12.8450   16.5070  -28.6110 C.3   161  GLU161      0.0388
    146  CG        12.8150   17.6770  -27.6510 C.3   161  GLU161      0.1160
    147  CD        14.0580   17.7550  -26.7950 C.2   161  GLU161      0.3649
    148  OE1       13.9520   17.5330  -25.5680 O.co2 161  GLU161     -0.2457
    149  OE2       15.1440   18.0310  -27.3510 O.co2 161  GLU161     -0.2457
@<TRIPOS>BOND
     1   144   143    2
     2   143   142    1
     3   142   145    1
     4   142   141    1
     5   135   134    2
     6   145   146    1
     7   134   133    1
     8   146   147    1
     9   149   147   ar
    10   136   133    1
    11   136   137    1
    12   133   132    1
    13   147   148   ar
    14    58    57    1
    15   138   139    1
    16   138   137    1
    17   139   140    1
    18    48    46    1
    19   126   125    2
    20    47    46    1
    21    57    59    1
    22    57    56    2
    23    46    45    2
    24   132   125   am
    25   115   114    2
    26   125   124    1
    27    45    44    1
    28    55    56    1
    29    55    54    1
    30    44    43    1
    31    94    92    1
    32   114   113    1
    33   114   123   am
    34   113   112    1
    35   113   116    1
    36   124   123    1
    37   124   127    1
    38    54    53    1
    39   107   106    2
    40   117   116    1
    41   117   118    1
    42    92    93    1
    43    92    91    1
    44    43    42    1
    45   127   128    1
    46    42    39    1
    47   130   129   ar
    48   106   105    1
    49    53    50    1
    50   110   108    1
    51    87    88    1
    52    88    91    1
    53    88    89    1
    54   118   119    1
    55   121   120    1
    56   129   128    1
    57   129   131   ar
    58    50    49    1
    59    50    51    1
    60    49    40   am
    61    39    40    1
    62    39    38    1
    63   105   108    1
    64   105   104    1
    65    40    41    2
    66   108   109    1
    67   120   119    2
    68   120   122    1
    69    98    97    2
    70    89    90    2
    71    68    67    1
    72    38    34   am
    73   104    97   am
    74    97    96    1
    75    51    52    2
    76    67    66    1
    77   109   111    1
    78    37    36    1
    79    36    33    1
    80    34    33    1
    81    34    35    2
    82    96    95    1
    83    96    99    1
    84    86    85   ar
    85    86    84   ar
    86    33    32    1
    87    66    65    1
    88    85    83   ar
    89   103   101   ar
    90    84    82   ar
    91    64    65    1
    92    64    61    1
    93     5     2    1
    94    99   100    1
    95    60    61    1
    96     1     2    1
    97   101   102   ar
    98   101   100    1
    99    76    74    1
   100     2     3    1
   101    75    74    1
   102    83    82   ar
   103    61    62    1
   104    82    81    1
   105    30    31   ar
   106    30    28   ar
   107    31    29   ar
   108    74    73    1
   109    63    62    2
   110    81    78    1
   111     3     6   am
   112     3     4    2
   113    28    26   ar
   114     6     7    1
   115    29    27   ar
   116    73    70    1
   117     9     8    2
   118    78    77    1
   119    78    79    1
   120    26    27   ar
   121    26    25    1
   122    70    69    1
   123    70    71    1
   124    12    10    1
   125     7     8    1
   126     7    10    1
   127     8    13   am
   128    10    11    1
   129    79    80    2
   130    25    22    1
   131    71    72    2
   132    13    14    1
   133    21    22    1
   134    21    15   am
   135    14    15    1
   136    14    17    1
   137    22    23    1
   138    15    16    2
   139    19    18   ar
   140    17    18    1
   141    18    20   ar
   142    23    24    2
