@<TRIPOS>MOLECULE
tmp/5ey0A00.pdb
 111 110 0 0 0
SMALL
GASTEIGER

@<TRIPOS>ATOM
      1  N         24.5550   13.2370   -7.9330 N.3    40  PHE40      -0.1241
      2  CA        24.4970   13.9870   -9.1890 C.3    40  PHE40       0.1605
      3  C         23.8680   13.1360  -10.2830 C.2    40  PHE40       0.2264
      4  O         24.2180   11.9660  -10.4440 O.2    40  PHE40      -0.2867
      5  CB        25.8810   14.4160   -9.6770 C.3    40  PHE40       0.0534
      6  CG        26.4550   15.6100   -8.9830 C.ar   40  PHE40      -0.0203
      7  CD1       25.8740   16.8670   -9.1310 C.ar   40  PHE40      -0.0042
      8  CD2       27.6040   15.4940   -8.2190 C.ar   40  PHE40      -0.0042
      9  CE1       26.4350   17.9910   -8.5240 C.ar   40  PHE40      -0.0003
     10  CE2       28.1630   16.6110   -7.5980 C.ar   40  PHE40      -0.0003
     11  CZ        27.5790   17.8630   -7.7570 C.ar   40  PHE40      -0.0000
     12  N         34.0090   25.0080   -4.6060 N.3    61  ARG61      -0.1231
     13  CA        33.9850   24.5530   -5.9950 C.3    61  ARG61       0.1694
     14  C         32.6400   23.9210   -6.3700 C.2    61  ARG61       0.2591
     15  O         32.1510   24.1100   -7.4900 O.2    61  ARG61      -0.2718
     16  CB        35.1070   23.5530   -6.2590 C.3    61  ARG61       0.0321
     17  CG        36.3410   24.1600   -6.8640 C.3    61  ARG61       0.0489
     18  CD        37.3760   23.1030   -7.1370 C.3    61  ARG61       0.2205
     19  NE        37.0350   22.3440   -8.3180 N.pl3  61  ARG61      -0.0865
     20  CZ        37.0320   21.0190   -8.4020 C.cat  61  ARG61       0.5346
     21  NH1       37.3750   20.2500   -7.3630 N.pl3  61  ARG61       0.1354
     22  NH2       36.7010   20.4690   -9.5510 N.pl3  61  ARG61       0.1354
     23  N         32.0550   23.1580   -5.4480 N.am   62  ILE62      -0.1980
     24  CA        30.7640   22.5120   -5.7010 C.3    62  ILE62       0.1595
     25  C         29.6790   23.5730   -5.8390 C.2    62  ILE62       0.2287
     26  O         28.8150   23.4960   -6.7190 O.2    62  ILE62      -0.2864
     27  CB        30.3770   21.5320   -4.5740 C.3    62  ILE62       0.0276
     28  CG1       31.2820   20.3010   -4.5820 C.3    62  ILE62       0.0022
     29  CG2       28.9040   21.1160   -4.7020 C.3    62  ILE62       0.0022
     30  CD1       30.9650   19.2980   -5.6800 C.3    62  ILE62       0.0001
     31  N         29.7810   24.9390   -9.2140 N.3    65  MET65      -0.1245
     32  CA        29.1950   24.0040  -10.1840 C.3    65  MET65       0.1570
     33  C         27.6790   24.1310  -10.2370 C.2    65  MET65       0.2261
     34  O         27.0800   24.1280  -11.3190 O.2    65  MET65      -0.2867
     35  CB        29.5590   22.5690   -9.8540 C.3    65  MET65       0.0387
     36  CG        31.0310   22.2860   -9.8990 C.3    65  MET65       0.0595
     37  SD        31.2710   20.5850   -9.4140 S.3    65  MET65      -0.1393
     38  CE        32.9810   20.6410   -8.8810 C.3    65  MET65       0.0692
     39  N         29.0670   20.1090  -14.0740 N.3    71  ILE71      -0.1231
     40  CA        30.2770   19.6090  -13.4480 C.3    71  ILE71       0.1678
     41  C         31.4480   20.0080  -14.3440 C.2    71  ILE71       0.2434
     42  O         31.2410   20.3860  -15.5010 O.2    71  ILE71      -0.2733
     43  CB        30.2120   18.0910  -13.2300 C.3    71  ILE71       0.0265
     44  CG1       29.7410   17.3890  -14.5050 C.3    71  ILE71       0.0019
     45  CG2       29.2900   17.7960  -12.0660 C.3    71  ILE71       0.0020
     46  CD1       30.0500   15.8860  -14.5380 C.3    71  ILE71       0.0001
     47  N         32.6800   19.9650  -13.8110 N.am   72  PRO72      -0.2729
     48  CA        33.8180   20.3940  -14.6340 C.3    72  PRO72       0.1401
     49  C         33.9910   19.5390  -15.8920 C.2    72  PRO72       0.2269
     50  O         33.6720   18.3540  -15.8800 O.2    72  PRO72      -0.2865
     51  CB        35.0140   20.2290  -13.6890 C.3    72  PRO72       0.0296
     52  CG        34.4170   20.3320  -12.3140 C.3    72  PRO72       0.0237
     53  CD        33.0900   19.6450  -12.4310 C.3    72  PRO72       0.0939
     54  N         36.0810   16.2720  -15.3620 N.3    75  TYR75      -0.1241
     55  CA        35.3910   15.1670  -14.7000 C.3    75  TYR75       0.1605
     56  C         34.3590   14.5800  -15.6580 C.2    75  TYR75       0.2264
     57  O         34.1620   13.3670  -15.7170 O.2    75  TYR75      -0.2867
     58  CB        34.7420   15.6470  -13.4000 C.3    75  TYR75       0.0534
     59  CG        34.2380   14.5490  -12.4910 C.ar   75  TYR75      -0.0201
     60  CD1       35.1110   13.6040  -11.9630 C.ar   75  TYR75      -0.0009
     61  CD2       32.8860   14.4550  -12.1630 C.ar   75  TYR75      -0.0009
     62  CE1       34.6540   12.5980  -11.1210 C.ar   75  TYR75       0.0417
     63  CE2       32.4230   13.4590  -11.3190 C.ar   75  TYR75       0.0417
     64  CZ        33.3070   12.5240  -10.8140 C.ar   75  TYR75       0.1957
     65  OH        32.8620   11.5330   -9.9720 O.3    75  TYR75      -0.2866
     66  N         40.8190    9.6690   -9.2730 N.3    94  VAL94      -0.1245
     67  CA        40.2720   10.8160  -10.0170 C.3    94  VAL94       0.1561
     68  C         38.7730   10.7180  -10.2890 C.2    94  VAL94       0.2260
     69  O         38.1460   11.7400  -10.5780 O.2    94  VAL94      -0.2867
     70  CB        40.9780   11.0370  -11.3810 C.3    94  VAL94       0.0252
     71  CG1       42.3850   11.5590  -11.1800 C.3    94  VAL94       0.0019
     72  CG2       40.9610    9.7560  -12.2200 C.3    94  VAL94       0.0019
     73  N         36.6250   10.0610   -8.0710 N.3    96  THR96      -0.1203
     74  CA        35.8920   10.4590   -6.8700 C.3    96  THR96       0.1994
     75  C         34.9620   11.6270   -7.1890 C.2    96  THR96       0.2618
     76  O         35.2860   12.4720   -8.0160 O.2    96  THR96      -0.2717
     77  CB        36.8410   10.8580   -5.7090 C.3    96  THR96       0.1784
     78  OG1       36.0510   11.1230   -4.5350 O.3    96  THR96      -0.2211
     79  CG2       37.6410   12.1160   -6.0410 C.3    96  THR96       0.0376
     80  N         33.8020   11.6730   -6.5410 N.am   97  VAL97      -0.1965
     81  CA        32.8940   12.8030   -6.7450 C.3    97  VAL97       0.1727
     82  C         33.1810   13.9080   -5.7090 C.2    97  VAL97       0.2616
     83  O         32.5700   14.9720   -5.7270 O.2    97  VAL97      -0.2715
     84  CB        31.4130   12.3490   -6.6810 C.3    97  VAL97       0.0290
     85  CG1       30.9910   12.0800   -5.2410 C.3    97  VAL97       0.0023
     86  CG2       30.5010   13.3900   -7.3250 C.3    97  VAL97       0.0023
     87  N         34.1330   13.6630   -4.8180 N.am   98  PHE98      -0.1960
     88  CA        34.4750   14.6460   -3.8030 C.3    98  PHE98       0.1756
     89  C         35.6540   15.5190   -4.2630 C.2    98  PHE98       0.2461
     90  O         36.4950   15.0850   -5.0590 O.2    98  PHE98      -0.2730
     91  CB        34.7750   13.9310   -2.4770 C.3    98  PHE98       0.0574
     92  CG        33.5750   13.2460   -1.8910 C.ar   98  PHE98      -0.0200
     93  CD1       33.2630   11.9360   -2.2380 C.ar   98  PHE98      -0.0042
     94  CD2       32.7450   13.9140   -0.9940 C.ar   98  PHE98      -0.0042
     95  CE1       32.1420   11.2910   -1.7050 C.ar   98  PHE98      -0.0003
     96  CE2       31.6050   13.2750   -0.4600 C.ar   98  PHE98      -0.0003
     97  CZ        31.3050   11.9720   -0.8170 C.ar   98  PHE98      -0.0000
     98  N         35.7120   16.7680   -3.7820 N.am   99  PRO99      -0.2716
     99  CA        36.8240   17.6640   -4.1310 C.3    99  PRO99       0.1521
    100  C         38.1290   17.2440   -3.4770 C.2    99  PRO99       0.2440
    101  O         38.1880   17.2280   -2.2500 O.2    99  PRO99      -0.2731
    102  CB        36.3760   19.0230   -3.5730 C.3    99  PRO99       0.0310
    103  CG        34.9140   18.9020   -3.3380 C.3    99  PRO99       0.0237
    104  CD        34.6430   17.4610   -3.0410 C.3    99  PRO99       0.0939
    105  N         39.1640   16.9200   -4.2690 N.am  100  PRO100     -0.2727
    106  CA        40.4390   16.4870   -3.6860 C.3   100  PRO100      0.1402
    107  C         41.0930   17.5670   -2.8350 C.2   100  PRO100      0.2269
    108  O         41.8890   17.2610   -1.9540 O.2   100  PRO100     -0.2865
    109  CB        41.3030   16.1740   -4.9160 C.3   100  PRO100      0.0296
    110  CG        40.3250   15.8900   -6.0010 C.3   100  PRO100      0.0237
    111  CD        39.1750   16.8210   -5.7400 C.3   100  PRO100      0.0939
@<TRIPOS>BOND
     1    49    50    2
     2    49    48    1
     3    57    56    2
     4    56    55    1
     5    42    41    2
     6    54    55    1
     7    55    58    1
     8    48    47    1
     9    48    51    1
    10    46    44    1
    11    44    43    1
    12    41    47   am
    13    41    40    1
    14    39    40    1
    15    47    53    1
    16    51    52    1
    17    40    43    1
    18    58    59    1
    19    43    45    1
    20    59    61   ar
    21    59    60   ar
    22    53    52    1
    23    72    70    1
    24    61    63   ar
    25    60    62   ar
    26    70    71    1
    27    70    67    1
    28    63    64   ar
    29    34    33    2
    30    62    64   ar
    31    64    65    1
    32    69    68    2
    33     4     3    2
    34    68    67    1
    35     3     2    1
    36    33    32    1
    37    32    35    1
    38    32    31    1
    39    67    66    1
    40    36    35    1
    41    36    37    1
    42     5     2    1
    43     5     6    1
    44    22    20    1
    45    37    38    1
    46     2     1    1
    47     7     6   ar
    48     7     9   ar
    49     6     8   ar
    50     9    11   ar
    51    20    19    2
    52    20    21    1
    53    19    18    1
    54     8    10   ar
    55    73    74    1
    56    76    75    2
    57    11    10   ar
    58    15    14    2
    59    86    84    1
    60    75    74    1
    61    75    80   am
    62    18    17    1
    63    74    77    1
    64    17    16    1
    65    81    84    1
    66    81    80    1
    67    81    82    1
    68    26    25    2
    69    84    85    1
    70    14    13    1
    71    14    23   am
    72    16    13    1
    73    79    77    1
    74   110   111    1
    75   110   109    1
    76    13    12    1
    77    25    24    1
    78   111   105    1
    79    83    82    2
    80    77    78    1
    81    82    87   am
    82    24    23    1
    83    24    27    1
    84    30    28    1
    85    90    89    2
    86   109   106    1
    87    87    88    1
    88    29    27    1
    89    28    27    1
    90   105   106    1
    91   105   100   am
    92    89    88    1
    93    89    98   am
    94    99    98    1
    95    99   102    1
    96    99   100    1
    97    88    91    1
    98    98   104    1
    99   106   107    1
   100   102   103    1
   101   100   101    2
   102   103   104    1
   103   107   108    2
   104    91    92    1
   105    93    92   ar
   106    93    95   ar
   107    92    94   ar
   108    95    97   ar
   109    94    96   ar
   110    97    96   ar
