@<TRIPOS>MOLECULE
tmp/5ey3A00.pdb
 88 84 0 0 0
SMALL
GASTEIGER

@<TRIPOS>ATOM
      1  N        -54.1380   23.6220   27.7880 N.3   117  ARG117     -0.1245
      2  CA       -55.4480   23.8320   27.1860 C.3   117  ARG117      0.1563
      3  C        -56.2750   24.8370   28.0010 C.2   117  ARG117      0.2260
      4  O        -55.7360   25.5930   28.8210 O.2   117  ARG117     -0.2867
      5  CB       -56.1580   22.4800   27.0630 C.3   117  ARG117      0.0307
      6  CG       -55.3610   21.4060   26.3690 C.3   117  ARG117      0.0489
      7  CD       -55.5090   21.5040   24.8720 C.3   117  ARG117      0.2205
      8  NE       -55.2460   20.2190   24.2320 N.pl3 117  ARG117     -0.0865
      9  CZ       -55.4140   19.9830   22.9360 C.cat 117  ARG117      0.5346
     10  NH1      -55.8470   20.9510   22.1360 N.pl3 117  ARG117      0.1354
     11  NH2      -55.1540   18.7790   22.4430 N.pl3 117  ARG117      0.1354
     12  N        -53.8420   25.9450   17.5690 N.3   130  GLU130     -0.1245
     13  CA       -54.4630   24.9480   16.6960 C.3   130  GLU130      0.1567
     14  C        -55.5100   25.5500   15.7750 C.2   130  GLU130      0.2260
     15  O        -56.0340   24.8370   14.9230 O.2   130  GLU130     -0.2867
     16  CB       -55.0780   23.8120   17.5280 C.3   130  GLU130      0.0388
     17  CG       -54.0290   23.0210   18.3070 C.3   130  GLU130      0.1160
     18  CD       -54.4760   21.6290   18.7080 C.2   130  GLU130      0.3649
     19  OE1      -53.8900   20.6520   18.1920 O.co2 130  GLU130     -0.2457
     20  OE2      -55.3960   21.5110   19.5430 O.co2 130  GLU130     -0.2457
     21  N        -48.9830   20.7560   17.7120 N.3   137  ILE137     -0.1231
     22  CA       -48.5680   21.0570   19.0820 C.3   137  ILE137      0.1692
     23  C        -47.8670   19.8930   19.7770 C.2   137  ILE137      0.2592
     24  O        -47.4940   20.0270   20.9480 O.2   137  ILE137     -0.2718
     25  CB       -49.7760   21.4880   19.9320 C.3   137  ILE137      0.0266
     26  CG1      -50.7920   20.3500   20.0280 C.3   137  ILE137      0.0019
     27  CG2      -50.4340   22.7250   19.3410 C.3   137  ILE137      0.0020
     28  CD1      -51.9310   20.6390   21.0110 C.3   137  ILE137      0.0001
     29  N        -47.6530   18.7670   19.0960 N.am  138  PHE138     -0.1976
     30  CA       -47.0440   17.5770   19.7050 C.3   138  PHE138      0.1639
     31  C        -45.8720   17.0400   18.8900 C.2   138  PHE138      0.2290
     32  O        -45.8440   15.8560   18.5430 O.2   138  PHE138     -0.2864
     33  CB       -48.0800   16.4660   19.8850 C.3   138  PHE138      0.0560
     34  CG       -49.1820   16.8000   20.8210 C.ar  138  PHE138     -0.0200
     35  CD1      -48.9150   17.2640   22.0960 C.ar  138  PHE138     -0.0042
     36  CD2      -50.4970   16.6440   20.4280 C.ar  138  PHE138     -0.0042
     37  CE1      -49.9450   17.5680   22.9660 C.ar  138  PHE138     -0.0003
     38  CE2      -51.5280   16.9520   21.2840 C.ar  138  PHE138     -0.0003
     39  CZ       -51.2530   17.4140   22.5630 C.ar  138  PHE138     -0.0000
     40  N        -64.0790   24.6900   25.6380 N.3   372  ARG372     -0.1245
     41  CA       -64.6590   23.3840   25.9250 C.3   372  ARG372      0.1563
     42  C        -65.4490   23.4300   27.2290 C.2   372  ARG372      0.2260
     43  O        -64.8960   23.7520   28.2850 O.2   372  ARG372     -0.2867
     44  CB       -63.5680   22.3170   25.9920 C.3   372  ARG372      0.0307
     45  CG       -62.8500   22.1070   24.6650 C.3   372  ARG372      0.0489
     46  CD       -61.9380   20.9000   24.7360 C.3   372  ARG372      0.2205
     47  NE       -61.1580   20.7240   23.5230 N.pl3 372  ARG372     -0.0865
     48  CZ       -59.9660   21.2790   23.3180 C.cat 372  ARG372      0.5346
     49  NH1      -59.4240   22.0520   24.2530 N.pl3 372  ARG372      0.1354
     50  NH2      -59.3160   21.0570   22.1810 N.pl3 372  ARG372      0.1354
     51  N        -64.1280   18.1450   28.3110 N.3   375  ALA375     -0.1231
     52  CA       -62.8830   17.8850   27.5970 C.3   375  ALA375      0.1694
     53  C        -63.1150   17.1860   26.2650 C.2   375  ALA375      0.2593
     54  O        -62.2900   17.3180   25.3530 O.2   375  ALA375     -0.2718
     55  CB       -61.9330   17.0620   28.4650 C.3   375  ALA375      0.0304
     56  N        -64.2190   16.4600   26.1230 N.am  376  SER376     -0.1938
     57  CA       -64.5000   15.7690   24.8760 C.3   376  SER376      0.2055
     58  C        -65.0080   16.7020   23.7870 C.2   376  SER376      0.2643
     59  O        -65.1100   16.2740   22.6320 O.2   376  SER376     -0.2714
     60  CB       -65.5070   14.6390   25.1190 C.3   376  SER376      0.2130
     61  OG       -66.8000   15.1420   25.3990 O.3   376  SER376     -0.2179
     62  N        -65.3040   17.9600   24.1170 N.am  377  ASP377     -0.1957
     63  CA       -65.8210   18.9040   23.1330 C.3   377  ASP377      0.1840
     64  C        -64.7790   19.2530   22.0730 C.2   377  ASP377      0.2622
     65  O        -63.5680   19.1460   22.2890 O.2   377  ASP377     -0.2715
     66  CB       -66.2840   20.1930   23.8140 C.3   377  ASP377      0.1450
     67  CG       -67.5080   19.9900   24.6870 C.2   377  ASP377      0.3671
     68  OD1      -68.3270   19.0980   24.3730 O.co2 377  ASP377     -0.2456
     69  OD2      -67.6520   20.7290   25.6830 O.co2 377  ASP377     -0.2456
     70  N        -65.2770   19.6840   20.9190 N.am  378  THR378     -0.1951
     71  CA       -64.4670   20.2490   19.8550 C.3   378  THR378      0.1897
     72  C        -64.6570   21.7600   19.8490 C.2   378  THR378      0.2313
     73  O        -65.7640   22.2500   20.0820 O.2   378  THR378     -0.2863
     74  CB       -64.8690   19.6470   18.4980 C.3   378  THR378      0.1794
     75  OG1      -64.3540   18.3130   18.3970 O.3   378  THR378     -0.2208
     76  CG2      -64.3290   20.4610   17.3520 C.3   378  THR378      0.0378
     77  N        -62.8020   27.3160   16.1630 N.3   381  TYR381     -0.1241
     78  CA       -61.6590   28.2050   16.3380 C.3   381  TYR381      0.1605
     79  C        -61.9090   29.6090   15.8120 C.2   381  TYR381      0.2264
     80  O        -61.1270   30.5130   16.1250 O.2   381  TYR381     -0.2867
     81  CB       -60.4220   27.6050   15.6620 C.3   381  TYR381      0.0534
     82  CG       -59.9870   26.2980   16.2820 C.ar  381  TYR381     -0.0201
     83  CD1      -60.5130   25.0870   15.8400 C.ar  381  TYR381     -0.0009
     84  CD2      -59.0530   26.2710   17.3210 C.ar  381  TYR381     -0.0009
     85  CE1      -60.1250   23.8790   16.4120 C.ar  381  TYR381      0.0417
     86  CE2      -58.6660   25.0700   17.9040 C.ar  381  TYR381      0.0417
     87  CZ       -59.2090   23.8780   17.4450 C.ar  381  TYR381      0.1957
     88  OH       -58.8370   22.6800   18.0050 O.3   381  TYR381     -0.2866
@<TRIPOS>BOND
     1    15    14    2
     2    81    82    1
     3    81    78    1
     4    14    13    1
     5    79    80    2
     6    79    78    1
     7    83    82   ar
     8    83    85   ar
     9    77    78    1
    10    82    84   ar
    11    85    87   ar
    12    13    16    1
    13    13    12    1
    14    84    86   ar
    15    76    74    1
    16    87    86   ar
    17    87    88    1
    18    16    17    1
    19    21    22    1
    20    19    18   ar
    21    17    18    1
    22    75    74    1
    23    74    71    1
    24    32    31    2
    25    18    20   ar
    26    31    30    1
    27    22    23    1
    28    22    25    1
    29    29    30    1
    30    29    23   am
    31    27    25    1
    32    30    33    1
    33    23    24    2
    34    72    71    1
    35    72    73    2
    36    71    70    1
    37    33    34    1
    38    25    26    1
    39    26    28    1
    40    36    34   ar
    41    36    38   ar
    42    34    35   ar
    43    70    64   am
    44    38    39   ar
    45    64    65    2
    46    64    63    1
    47    35    37   ar
    48    10     9    1
    49    50    48    1
    50    11     9    1
    51    39    37   ar
    52    59    58    2
    53     9     8    2
    54    63    66    1
    55    63    62    1
    56    48    47    2
    57    48    49    1
    58    47    46    1
    59    58    62   am
    60    58    57    1
    61    66    67    1
    62     8     7    1
    63    68    67   ar
    64    45    46    1
    65    45    44    1
    66    67    69   ar
    67     7     6    1
    68    57    60    1
    69    57    56    1
    70    60    61    1
    71    54    53    2
    72    40    41    1
    73    41    44    1
    74    41    42    1
    75    56    53   am
    76    53    52    1
    77     6     5    1
    78     5     2    1
    79     2     1    1
    80     2     3    1
    81    42    43    2
    82    52    51    1
    83    52    55    1
    84     3     4    2
