@<TRIPOS>MOLECULE
tmp/5ey4A00.pdb
 100 92 0 0 0
SMALL
GASTEIGER

@<TRIPOS>ATOM
      1  N         23.7680  -10.5780   -3.0570 N.3    35  ARG35      -0.1231
      2  CA        23.4270   -9.5320   -4.0190 C.3    35  ARG35       0.1694
      3  C         23.1190   -8.2000   -3.3500 C.2    35  ARG35       0.2591
      4  O         22.8280   -7.2240   -4.0370 O.2    35  ARG35      -0.2718
      5  CB        22.2540   -9.9940   -4.8940 C.3    35  ARG35       0.0321
      6  CG        22.7120  -11.1170   -5.8320 C.3    35  ARG35       0.0489
      7  CD        21.6370  -11.7520   -6.6560 C.3    35  ARG35       0.2205
      8  NE        20.3600  -11.8630   -5.9760 N.pl3  35  ARG35      -0.0865
      9  CZ        19.9390  -12.8970   -5.2420 C.cat  35  ARG35       0.5346
     10  NH1       20.6900  -13.9700   -5.0370 N.pl3  35  ARG35       0.1354
     11  NH2       18.7330  -12.8380   -4.6980 N.pl3  35  ARG35       0.1354
     12  N         23.1360   -8.1710   -2.0200 N.am   36  ILE36      -0.1980
     13  CA        23.2250   -6.8880   -1.2680 C.3    36  ILE36       0.1595
     14  C         24.4570   -6.9410   -0.3370 C.2    36  ILE36       0.2287
     15  O         24.8570   -8.0110    0.1200 O.2    36  ILE36      -0.2864
     16  CB        21.9400   -6.5260   -0.4900 C.3    36  ILE36       0.0276
     17  CG1       21.5390   -7.6570    0.4420 C.3    36  ILE36       0.0022
     18  CG2       20.7810   -6.1800   -1.4580 C.3    36  ILE36       0.0022
     19  CD1       20.3280   -7.3430    1.3100 C.3    36  ILE36       0.0001
     20  N         13.8260   -2.5530    8.9180 N.3   226  GLY226     -0.1225
     21  CA        14.0620   -3.9410    9.2850 C.3   226  GLY226      0.1811
     22  C         14.8260   -4.1440   10.5910 C.2   226  GLY226      0.2280
     23  O         14.5480   -5.0890   11.3310 O.2   226  GLY226     -0.2866
     24  N         14.6550  -14.0770   11.3360 N.3   267  LYS267     -0.1231
     25  CA        13.6810  -13.1720   10.7300 C.3   267  LYS267      0.1693
     26  C         13.4850  -13.4320    9.2620 C.2   267  LYS267      0.2591
     27  O         12.3390  -13.4830    8.7950 O.2   267  LYS267     -0.2718
     28  CB        14.0620  -11.7090   10.9420 C.3   267  LYS267      0.0285
     29  CG        13.1640  -10.7590   10.1800 C.3   267  LYS267      0.0035
     30  CD        13.5960   -9.3290   10.2650 C.3   267  LYS267      0.0206
     31  CE        14.8790   -9.0440    9.4710 C.3   267  LYS267      0.1093
     32  NZ        15.2060   -7.6010    9.5410 N.3   267  LYS267     -0.1314
     33  N         14.5840  -13.5830    8.5240 N.am  268  ARG268     -0.1980
     34  CA        14.4930  -13.9280    7.1030 C.3   268  ARG268      0.1597
     35  C         13.8380  -15.2780    6.8760 C.2   268  ARG268      0.2287
     36  O         12.9950  -15.4210    5.9800 O.2   268  ARG268     -0.2864
     37  CB        15.8720  -13.8910    6.4530 C.3   268  ARG268      0.0334
     38  CG        16.3670  -12.4690    6.3390 C.3   268  ARG268      0.0492
     39  CD        17.8550  -12.3350    6.0440 C.3   268  ARG268      0.2205
     40  NE        18.1460  -10.9340    5.7460 N.pl3 268  ARG268     -0.0865
     41  CZ        18.1220   -9.9290    6.6400 C.cat 268  ARG268      0.5346
     42  NH1       18.3990   -8.6900    6.2360 N.pl3 268  ARG268      0.1354
     43  NH2       17.8220  -10.1390    7.9310 N.pl3 268  ARG268      0.1354
     44  N         10.0680  -15.4020    6.8100 N.3   271  SER271     -0.1202
     45  CA         9.3320  -14.9990    5.6160 C.3   271  SER271      0.2020
     46  C          8.8670  -16.1670    4.7560 C.2   271  SER271      0.2619
     47  O          7.9830  -15.9840    3.9180 O.2   271  SER271     -0.2717
     48  CB        10.1280  -13.9990    4.7590 C.3   271  SER271      0.2103
     49  OG        10.3290  -12.8150    5.5000 O.3   271  SER271     -0.2182
     50  N          9.4500  -17.3520    4.9500 N.am  272  SER272     -0.1951
     51  CA         9.0890  -18.5540    4.1740 C.3   272  SER272      0.1924
     52  C          8.7850  -19.8040    5.0260 C.2   272  SER272      0.2314
     53  O          8.5210  -20.8650    4.4670 O.2   272  SER272     -0.2863
     54  CB        10.2110  -18.9130    3.2150 C.3   272  SER272      0.2116
     55  OG        11.3280  -19.3920    3.9370 O.3   272  SER272     -0.2180
     56  N         13.8380   -5.4880    1.5730 N.3   335  GLY335     -0.1210
     57  CA        13.6150   -6.8840    1.9480 C.3   335  GLY335      0.1956
     58  C         12.5240   -7.0700    2.9980 C.2   335  GLY335      0.2612
     59  O         11.8490   -8.1150    3.0150 O.2   335  GLY335     -0.2717
     60  N         12.3250   -6.0700    3.8680 N.am  336  SER336     -0.1952
     61  CA        11.2250   -6.1230    4.8580 C.3   336  SER336      0.1924
     62  C          9.8500   -6.2530    4.2260 C.2   336  SER336      0.2314
     63  O          8.9200   -6.7350    4.8740 O.2   336  SER336     -0.2863
     64  CB        11.2230   -4.8920    5.7890 C.3   336  SER336      0.2116
     65  OG        12.4700   -4.7710    6.4820 O.3   336  SER336     -0.2180
     66  N          9.1320   -8.3940    2.1320 N.3   338  ARG338     -0.1231
     67  CA         8.9090   -9.8530    1.9630 C.3   338  ARG338      0.1694
     68  C          8.2080  -10.4610    3.1950 C.2   338  ARG338      0.2591
     69  O          7.7860  -11.6160    3.1700 O.2   338  ARG338     -0.2718
     70  CB        10.2190  -10.6350    1.7460 C.3   338  ARG338      0.0321
     71  CG        11.2260  -10.0950    0.7330 C.3   338  ARG338      0.0489
     72  CD        10.9480  -10.4800   -0.7030 C.3   338  ARG338      0.2205
     73  NE        11.0790  -11.9050   -0.9950 N.pl3 338  ARG338     -0.0865
     74  CZ        12.2090  -12.5410   -1.3430 C.cat 338  ARG338      0.5346
     75  NH1       13.3850  -11.9100   -1.4050 N.pl3 338  ARG338      0.1354
     76  NH2       12.1580  -13.8440   -1.6030 N.pl3 338  ARG338      0.1354
     77  N          8.1350   -9.7050    4.2830 N.am  339  ILE339     -0.1980
     78  CA         7.4970  -10.1930    5.4880 C.3   339  ILE339      0.1595
     79  C          6.0220  -10.3530    5.1520 C.2   339  ILE339      0.2287
     80  O          5.3820   -9.3630    4.8100 O.2   339  ILE339     -0.2864
     81  CB         7.6570   -9.2140    6.6630 C.3   339  ILE339      0.0276
     82  CG1        9.1310   -9.1570    7.0910 C.3   339  ILE339      0.0022
     83  CG2        6.7820   -9.6260    7.8480 C.3   339  ILE339      0.0022
     84  CD1        9.4310   -8.0330    8.0640 C.3   339  ILE339      0.0001
     85  N         12.9720   -8.8360   -7.1500 N.3   360  ASN360     -0.1240
     86  CA        13.3950   -8.8290   -5.7540 C.3   360  ASN360      0.1653
     87  C         13.3820   -7.3770   -5.1910 C.2   360  ASN360      0.2266
     88  O         14.0750   -6.4940   -5.6980 O.2   360  ASN360     -0.2867
     89  CB        14.7720   -9.4850   -5.6180 C.3   360  ASN360      0.1155
     90  CG        15.1540   -9.7440   -4.1750 C.2   360  ASN360      0.2627
     91  OD1       15.0400   -8.8510   -3.3100 O.2   360  ASN360     -0.2716
     92  ND2       15.6170  -10.9580   -3.8960 N.am  360  ASN360     -0.0877
     93  N         14.7450   -5.9730   -2.7200 N.3   362  ASP362     -0.1239
     94  CA        16.0700   -5.4550   -2.3450 C.3   362  ASP362      0.1674
     95  C         16.9290   -5.0890   -3.5180 C.2   362  ASP362      0.2266
     96  O         18.0070   -4.5150   -3.3240 O.2   362  ASP362     -0.2867
     97  CB        16.8710   -6.4760   -1.5410 C.3   362  ASP362      0.1410
     98  CG        16.5210   -6.4830   -0.0830 C.2   362  ASP362      0.3668
     99  OD1       16.3180   -5.3700    0.5020 O.co2 362  ASP362     -0.2456
    100  OD2       16.4980   -7.5960    0.4790 O.co2 362  ASP362     -0.2456
@<TRIPOS>BOND
     1    85    86    1
     2     7     8    1
     3     7     6    1
     4     8     9    2
     5     6     5    1
     6    86    89    1
     7    86    87    1
     8    88    87    2
     9    89    90    1
    10     9    10    1
    11     9    11    1
    12     5     2    1
    13    90    92   am
    14    90    91    2
    15     4     3    2
    16     2     3    1
    17     2     1    1
    18    95    96    2
    19    95    94    1
    20     3    12   am
    21    93    94    1
    22    94    97    1
    23    12    13    1
    24    76    74    1
    25    97    98    1
    26    18    16    1
    27    75    74    1
    28    74    73    2
    29    13    16    1
    30    13    14    1
    31    73    72    1
    32    72    71    1
    33    16    17    1
    34    14    15    2
    35    98   100   ar
    36    98    99   ar
    37    17    19    1
    38    71    70    1
    39    56    57    1
    40    70    67    1
    41    57    58    1
    42    67    66    1
    43    67    68    1
    44    58    59    2
    45    58    60   am
    46    69    68    2
    47    68    77   am
    48    54    55    1
    49    54    51    1
    50    60    61    1
    51    47    46    2
    52    51    50    1
    53    51    52    1
    54    62    61    1
    55    62    63    2
    56    77    78    1
    57    53    52    2
    58    46    50   am
    59    46    45    1
    60    48    49    1
    61    48    45    1
    62    80    79    2
    63    61    64    1
    64    79    78    1
    65    78    81    1
    66    45    44    1
    67    40    39    1
    68    40    41    2
    69    64    65    1
    70    36    35    2
    71    39    38    1
    72    42    41    1
    73    38    37    1
    74    37    34    1
    75    41    43    1
    76    81    82    1
    77    81    83    1
    78    35    34    1
    79    82    84    1
    80    34    33    1
    81    33    26   am
    82    27    26    2
    83    20    21    1
    84    26    25    1
    85    21    22    1
    86    31    32    1
    87    31    30    1
    88    29    30    1
    89    29    28    1
    90    22    23    2
    91    25    28    1
    92    25    24    1
