@<TRIPOS>MOLECULE
tmp/5ey5D00.pdb
 127 119 0 0 0
SMALL
GASTEIGER

@<TRIPOS>ATOM
      1  N         21.2870   87.7090   54.2800 N.3    80  ALA80      -0.1231
      2  CA        21.5770   87.6690   52.8490 C.3    80  ALA80       0.1694
      3  C         22.7970   88.5310   52.5390 C.2    80  ALA80       0.2592
      4  O         23.3280   89.2430   53.3970 O.2    80  ALA80      -0.2718
      5  CB        20.3590   88.1120   52.0320 C.3    80  ALA80       0.0304
      6  N         23.2490   88.4260   51.2950 N.am   81  HIS81      -0.1962
      7  CA        24.4060   89.1760   50.8320 C.3    81  HIS81       0.1787
      8  C         24.1100   90.6560   50.6340 C.2    81  HIS81       0.2620
      9  O         25.0460   91.4530   50.5310 O.2    81  HIS81      -0.2715
     10  CB        24.8910   88.5930   49.5150 C.3    81  HIS81       0.0785
     11  CG        23.9830   88.8950   48.3650 C.ar   81  HIS81       0.0821
     12  ND1       22.8020   88.2200   48.1550 N.ar   81  HIS81      -0.2267
     13  CD2       24.0880   89.7960   47.3580 C.ar   81  HIS81       0.1154
     14  CE1       22.2210   88.6850   47.0630 C.ar   81  HIS81       0.1986
     15  NE2       22.9800   89.6420   46.5620 N.ar   81  HIS81      -0.2212
     16  N         22.8630   91.0380   50.5430 N.am   82  LYS82      -0.1977
     17  CA        22.5330   92.3930   50.1590 C.3    82  LYS82       0.1596
     18  C         23.1750   93.4060   51.0800 C.2    82  LYS82       0.2287
     19  O         23.5740   94.4370   50.6450 O.2    82  LYS82      -0.2864
     20  CB        21.0250   92.6360   50.0900 C.3    82  LYS82       0.0298
     21  CG        20.2740   91.8690   49.0340 C.3    82  LYS82       0.0038
     22  CD        20.6150   92.3250   47.6580 C.3    82  LYS82       0.0206
     23  CE        19.4700   92.1020   46.6780 C.3    82  LYS82       0.1093
     24  NZ        18.5770   90.9530   46.9950 N.3    82  LYS82      -0.1314
     25  N         13.9730   92.5080   50.3920 N.3   109  GLN109     -0.1245
     26  CA        15.2620   92.1410   50.9710 C.3   109  GLN109      0.1566
     27  C         16.2380   93.3140   50.9320 C.2   109  GLN109      0.2260
     28  O         16.8900   93.6280   51.9370 O.2   109  GLN109     -0.2867
     29  CB        15.8450   90.9300   50.2530 C.3   109  GLN109      0.0367
     30  CG        17.1930   90.5040   50.8130 C.3   109  GLN109      0.0905
     31  CD        17.1470   90.2030   52.3030 C.2   109  GLN109      0.2608
     32  OE1       16.5560   89.2050   52.7250 O.2   109  GLN109     -0.2717
     33  NE2       17.7760   91.0650   53.1070 N.am  109  GLN109     -0.0878
     34  N         20.2110   98.3480   44.5760 N.3   184  GLY184     -0.1210
     35  CA        20.2650   97.0560   45.2300 C.3   184  GLY184      0.1956
     36  C         20.8870   95.9090   44.4580 C.2   184  GLY184      0.2612
     37  O         20.9800   94.8050   44.9990 O.2   184  GLY184     -0.2717
     38  N         21.3010   96.1170   43.2130 N.am  185  SER185     -0.1952
     39  CA        21.9790   95.0680   42.4600 C.3   185  SER185      0.1924
     40  C         23.0100   95.7230   41.5500 C.2   185  SER185      0.2314
     41  O         23.2100   96.9390   41.5950 O.2   185  SER185     -0.2863
     42  CB        20.9720   94.1990   41.6880 C.3   185  SER185      0.2116
     43  OG        21.6160   93.0660   41.1160 O.3   185  SER185     -0.2180
     44  N         23.3800   81.9570   41.8940 N.3   225  CYS225     -0.1221
     45  CA        22.1330   82.3470   41.2640 C.3   225  CYS225      0.1808
     46  C         22.2230   83.7890   40.7820 C.2   225  CYS225      0.2601
     47  O         23.0090   84.5980   41.2930 O.2   225  CYS225     -0.2717
     48  CB        20.9510   82.1640   42.2270 C.3   225  CYS225      0.0970
     49  SG        20.9120   83.3930   43.5880 S.3   225  CYS225     -0.0800
     50  N         21.4430   84.0990   39.7500 N.am  226  VAL226     -0.1965
     51  CA        21.5360   85.3890   39.0780 C.3   226  VAL226      0.1727
     52  C         20.1280   85.9400   38.9010 C.2   226  VAL226      0.2617
     53  O         19.3420   85.3970   38.1140 O.2   226  VAL226     -0.2715
     54  CB        22.2400   85.2820   37.7140 C.3   226  VAL226      0.0290
     55  CG1       22.2910   86.6440   37.0530 C.3   226  VAL226      0.0023
     56  CG2       23.6370   84.7070   37.8730 C.3   226  VAL226      0.0023
     57  N         19.8120   87.0150   39.6180 N.am  227  GLY227     -0.1940
     58  CA        18.6430   87.7970   39.2950 C.3   227  GLY227      0.2014
     59  C         19.0830   89.0930   38.6410 C.2   227  GLY227      0.2639
     60  O         19.1740   89.1910   37.4130 O.2   227  GLY227     -0.2714
     61  N         19.3730   90.1030   39.4590 N.am  228  GLY228     -0.1939
     62  CA        20.0870   91.2560   38.9570 C.3   228  GLY228      0.2014
     63  C         21.5600   90.9610   38.7890 C.2   228  GLY228      0.2639
     64  O         22.2310   91.5840   37.9630 O.2   228  GLY228     -0.2714
     65  N         22.0910   90.0320   39.5760 N.am  229  GLY229     -0.1939
     66  CA        23.4420   89.5490   39.3860 C.3   229  GLY229      0.2014
     67  C         24.4670   89.9350   40.4340 C.2   229  GLY229      0.2640
     68  O         25.6580   89.6670   40.2210 O.2   229  GLY229     -0.2714
     69  N         24.0540   90.5090   41.5760 N.am  230  SER230     -0.1935
     70  CA        25.0390   91.0650   42.5020 C.3   230  SER230      0.2055
     71  C         25.7600   89.9790   43.2970 C.2   230  SER230      0.2643
     72  O         26.9860   90.0480   43.4550 O.2   230  SER230     -0.2714
     73  CB        24.3850   92.0870   43.4450 C.3   230  SER230      0.2130
     74  OG        23.6500   91.4450   44.4550 O.3   230  SER230     -0.2179
     75  N         25.0490   88.9590   43.7890 N.am  231  ASN231     -0.1971
     76  CA        25.7510   87.9370   44.5620 C.3   231  ASN231      0.1688
     77  C         26.6750   87.1340   43.6570 C.2   231  ASN231      0.2292
     78  O         27.7420   86.6800   44.0960 O.2   231  ASN231     -0.2864
     79  CB        24.7650   87.0370   45.3250 C.3   231  ASN231      0.1181
     80  CG        24.3870   85.7650   44.5720 C.2   231  ASN231      0.2629
     81  OD1       25.1140   84.7760   44.6050 O.2   231  ASN231     -0.2716
     82  ND2       23.2370   85.7830   43.9180 N.am  231  ASN231     -0.0877
     83  N         12.9250   87.3180   44.6430 N.3   298  GLY298     -0.1210
     84  CA        14.2310   87.9480   44.5970 C.3   298  GLY298      0.1956
     85  C         14.8940   87.8610   43.2360 C.2   298  GLY298      0.2611
     86  O         15.9670   88.4390   43.0010 O.2   298  GLY298     -0.2717
     87  N         14.2510   87.1390   42.3220 N.am  299  LEU299     -0.1979
     88  CA        14.7930   86.9260   40.9870 C.3   299  LEU299      0.1596
     89  C         13.9440   87.5620   39.8880 C.2   299  LEU299      0.2287
     90  O         14.1270   87.2360   38.7110 O.2   299  LEU299     -0.2864
     91  CB        14.9580   85.4240   40.7420 C.3   299  LEU299      0.0297
     92  CG        16.0580   84.7840   41.5910 C.3   299  LEU299      0.0022
     93  CD1       16.1340   83.2880   41.3690 C.3   299  LEU299      0.0001
     94  CD2       17.4100   85.4390   41.2720 C.3   299  LEU299      0.0001
     95  N         17.6880   80.3550   51.0110 N.3   343  ALA343     -0.1245
     96  CA        16.7250   81.1750   50.2890 C.3   343  ALA343      0.1562
     97  C         16.2920   80.4560   49.0130 C.2   343  ALA343      0.2260
     98  O         17.0180   79.6230   48.4710 O.2   343  ALA343     -0.2867
     99  CB        17.3220   82.5420   49.9510 C.3   343  ALA343      0.0290
    100  N         16.0120   81.8780   46.1960 N.3   345  GLU345     -0.1245
    101  CA        16.9780   82.3450   45.2080 C.3   345  GLU345      0.1567
    102  C         18.2000   81.4310   45.1790 C.2   345  GLU345      0.2260
    103  O         18.5530   80.8610   44.1400 O.2   345  GLU345     -0.2867
    104  CB        17.3830   83.7890   45.5210 C.3   345  GLU345      0.0388
    105  CG        16.2420   84.7920   45.4410 C.3   345  GLU345      0.1160
    106  CD        15.4390   84.9010   46.7340 C.2   345  GLU345      0.3649
    107  OE1       15.8800   84.3530   47.7690 O.co2 345  GLU345     -0.2457
    108  OE2       14.3640   85.5410   46.7120 O.co2 345  GLU345     -0.2457
    109  N         23.5870   82.5060   48.8930 N.3   371  SER371     -0.1202
    110  CA        23.3910   83.9490   49.0070 C.3   371  SER371      0.2020
    111  C         22.4660   84.3680   50.1440 C.2   371  SER371      0.2619
    112  O         22.5670   85.5130   50.5970 O.2   371  SER371     -0.2717
    113  CB        22.8700   84.5260   47.6850 C.3   371  SER371      0.2103
    114  OG        21.7150   83.8410   47.2240 O.3   371  SER371     -0.2182
    115  N         21.5760   83.5050   50.6250 N.am  372  GLY372     -0.1956
    116  CA        20.7430   83.9340   51.7420 C.3   372  GLY372      0.1869
    117  C         20.0870   82.7490   52.4140 C.2   372  GLY372      0.2309
    118  O         20.0690   81.6420   51.8770 O.2   372  GLY372     -0.2863
    119  N         12.5590   83.3380   55.3420 N.3   376  LYS376     -0.1245
    120  CA        11.5350   84.1660   54.7020 C.3   376  LYS376      0.1561
    121  C         10.6810   83.3900   53.7100 C.2   376  LYS376      0.2260
    122  O          9.5800   83.8420   53.3700 O.2   376  LYS376     -0.2867
    123  CB        12.2000   85.3270   53.9620 C.3   376  LYS376      0.0271
    124  CG        13.2230   84.8280   52.9320 C.3   376  LYS376      0.0035
    125  CD        13.9580   85.9410   52.2040 C.3   376  LYS376      0.0206
    126  CE        14.8680   85.3720   51.1140 C.3   376  LYS376      0.1093
    127  NZ        14.0910   84.7180   50.0070 N.3   376  LYS376     -0.1314
@<TRIPOS>BOND
     1    55    54    1
     2    60    59    2
     3    54    56    1
     4    54    51    1
     5    64    63    2
     6    53    52    2
     7    59    58    1
     8    59    61   am
     9    90    89    2
    10    63    62    1
    11    63    65   am
    12    52    51    1
    13    52    57   am
    14    62    61    1
    15    51    50    1
    16    58    57    1
    17    66    65    1
    18    66    67    1
    19    50    46   am
    20    89    88    1
    21    68    67    2
    22    67    69   am
    23    91    88    1
    24    91    92    1
    25    46    45    1
    26    46    47    2
    27    88    87    1
    28    43    42    1
    29    45    44    1
    30    45    48    1
    31    94    92    1
    32    93    92    1
    33    40    41    2
    34    40    39    1
    35    69    70    1
    36    42    39    1
    37    48    49    1
    38    87    85   am
    39    39    38    1
    40    70    71    1
    41    70    73    1
    42    86    85    2
    43    38    36   am
    44    85    84    1
    45    71    72    2
    46    71    75   am
    47    73    74    1
    48    77    78    2
    49    77    76    1
    50    75    76    1
    51    82    80   am
    52   103   102    2
    53    36    37    2
    54    36    35    1
    55    76    79    1
    56    80    81    2
    57    80    79    1
    58    34    35    1
    59    84    83    1
    60   102   101    1
    61   101   104    1
    62   101   100    1
    63   105   104    1
    64   105   106    1
    65    15    14   ar
    66    15    13   ar
    67    23    24    1
    68    23    22    1
    69   108   106   ar
    70   106   107   ar
    71    14    12   ar
    72   114   113    1
    73    13    11   ar
    74    22    21    1
    75   113   110    1
    76    12    11   ar
    77    11    10    1
    78    98    97    2
    79   109   110    1
    80   110   111    1
    81    97    96    1
    82    21    20    1
    83    10     7    1
    84    99    96    1
    85   127   126    1
    86    20    17    1
    87   111   112    2
    88   111   115   am
    89    17    16    1
    90    17    18    1
    91    29    30    1
    92    29    26    1
    93    96    95    1
    94    25    26    1
    95     9     8    2
    96    16     8   am
    97   115   116    1
    98     8     7    1
    99    19    18    2
   100    30    31    1
   101     7     6    1
   102    27    26    1
   103    27    28    2
   104   126   125    1
   105     6     3   am
   106   116   117    1
   107   118   117    2
   108     5     2    1
   109   125   124    1
   110    31    32    2
   111    31    33   am
   112     3     2    1
   113     3     4    2
   114     2     1    1
   115   124   123    1
   116   122   121    2
   117   121   120    1
   118   123   120    1
   119   120   119    1
