@<TRIPOS>MOLECULE
tmp/5ey5A00.pdb
 125 119 0 0 0
SMALL
GASTEIGER

@<TRIPOS>ATOM
      1  N         -2.0020   49.5670   93.5670 N.3    22  PHE22      -0.1241
      2  CA        -1.7850   51.0130   93.5420 C.3    22  PHE22       0.1605
      3  C         -2.9950   51.7030   92.9230 C.2    22  PHE22       0.2264
      4  O         -3.4080   51.3400   91.8170 O.2    22  PHE22      -0.2867
      5  CB        -0.5340   51.3660   92.7280 C.3    22  PHE22       0.0534
      6  CG        -0.4550   52.8230   92.3510 C.ar   22  PHE22      -0.0203
      7  CD1        0.2970   53.7030   93.1060 C.ar   22  PHE22      -0.0042
      8  CD2       -1.1430   53.3150   91.2460 C.ar   22  PHE22      -0.0042
      9  CE1        0.3680   55.0460   92.7650 C.ar   22  PHE22      -0.0003
     10  CE2       -1.0910   54.6370   90.9170 C.ar   22  PHE22      -0.0003
     11  CZ        -0.3340   55.5140   91.6670 C.ar   22  PHE22      -0.0000
     12  N         -0.9150   50.9430   98.0210 N.3    49  GLU49      -0.1245
     13  CA        -0.2030   52.1310   97.5880 C.3    49  GLU49       0.1567
     14  C         -1.2060   53.1850   97.1450 C.2    49  GLU49       0.2260
     15  O         -2.0850   52.9100   96.3190 O.2    49  GLU49      -0.2867
     16  CB         0.7590   51.8110   96.4440 C.3    49  GLU49       0.0388
     17  CG         1.9410   50.9480   96.8410 C.3    49  GLU49       0.1160
     18  CD         2.8510   50.6120   95.6640 C.2    49  GLU49       0.3649
     19  OE1        3.7280   49.7420   95.8290 O.co2  49  GLU49      -0.2457
     20  OE2        2.6910   51.2230   94.5830 O.co2  49  GLU49      -0.2457
     21  N          5.8880   58.0220   85.4050 N.3    60  ASP60      -0.1239
     22  CA         4.6120   57.3700   85.1430 C.3    60  ASP60       0.1674
     23  C          4.2580   57.3570   83.6580 C.2    60  ASP60       0.2266
     24  O          4.5210   58.3230   82.9320 O.2    60  ASP60      -0.2867
     25  CB         3.5080   58.0420   85.9460 C.3    60  ASP60       0.1410
     26  CG         3.5680   57.6600   87.4060 C.2    60  ASP60       0.3668
     27  OD1        3.3590   56.4610   87.6900 O.co2  60  ASP60      -0.2456
     28  OD2        3.8390   58.5330   88.2590 O.co2  60  ASP60      -0.2456
     29  N         -1.3670   56.4620   84.4080 N.3    64  ILE64      -0.1245
     30  CA        -1.2750   57.0990   85.7090 C.3    64  ILE64       0.1561
     31  C         -1.0520   58.6020   85.5760 C.2    64  ILE64       0.2260
     32  O         -1.4150   59.3580   86.4830 O.2    64  ILE64      -0.2867
     33  CB        -0.1900   56.3800   86.5270 C.3    64  ILE64       0.0252
     34  CG1       -0.7260   54.9830   86.8750 C.3    64  ILE64       0.0019
     35  CG2        0.1730   57.1710   87.8000 C.3    64  ILE64       0.0019
     36  CD1        0.2530   54.0690   87.5280 C.3    64  ILE64       0.0001
     37  N          2.8580   56.9960   97.5870 N.3   100  LEU100     -0.1245
     38  CA         3.8030   57.0960   96.4850 C.3   100  LEU100      0.1561
     39  C          3.7270   58.5370   96.0190 C.2   100  LEU100      0.2260
     40  O          2.6740   59.0000   95.5620 O.2   100  LEU100     -0.2867
     41  CB         3.4770   56.0960   95.3700 C.3   100  LEU100      0.0270
     42  CG         4.4490   55.9620   94.1940 C.3   100  LEU100      0.0019
     43  CD1        4.2820   54.5910   93.5330 C.3   100  LEU100      0.0001
     44  CD2        4.2470   57.0950   93.1790 C.3   100  LEU100      0.0001
     45  N         11.3550   47.6410   96.1600 N.3   175  TYR175     -0.1241
     46  CA        10.5030   47.6880   94.9830 C.3   175  TYR175      0.1605
     47  C         11.3650   47.3510   93.7690 C.2   175  TYR175      0.2264
     48  O         12.2520   48.1220   93.3970 O.2   175  TYR175     -0.2867
     49  CB         9.8730   49.0700   94.8900 C.3   175  TYR175      0.0534
     50  CG         8.7300   49.2230   93.9080 C.ar  175  TYR175     -0.0201
     51  CD1        7.7090   50.1350   94.1470 C.ar  175  TYR175     -0.0009
     52  CD2        8.7030   48.5050   92.7220 C.ar  175  TYR175     -0.0009
     53  CE1        6.6810   50.2990   93.2420 C.ar  175  TYR175      0.0417
     54  CE2        7.6880   48.6580   91.8180 C.ar  175  TYR175      0.0417
     55  CZ         6.6790   49.5520   92.0760 C.ar  175  TYR175      0.1957
     56  OH         5.6710   49.6860   91.1530 O.3   175  TYR175     -0.2866
     57  N          5.8760   53.4740   84.2100 N.3   183  THR183     -0.1203
     58  CA         4.7100   52.6690   84.5760 C.3   183  THR183      0.1994
     59  C          3.7600   52.5240   83.3850 C.2   183  THR183      0.2618
     60  O          3.7130   53.3640   82.4820 O.2   183  THR183     -0.2717
     61  CB         3.9330   53.2810   85.7540 C.3   183  THR183      0.1784
     62  OG1        3.1920   54.4310   85.3110 O.3   183  THR183     -0.2211
     63  CG2        4.8670   53.6830   86.8900 C.3   183  THR183      0.0376
     64  N          2.9810   51.4470   83.4050 N.am  184  GLY184     -0.1942
     65  CA         2.0450   51.1690   82.3340 C.3   184  GLY184      0.2014
     66  C          1.8900   49.6830   82.0870 C.2   184  GLY184      0.2638
     67  O          2.8740   48.9400   82.1400 O.2   184  GLY184     -0.2714
     68  N          0.6660   49.2590   81.8010 N.am  185  ALA185     -0.1977
     69  CA         0.3850   47.8480   81.6280 C.3   185  ALA185      0.1597
     70  C          1.0330   47.3270   80.3680 C.2   185  ALA185      0.2287
     71  O          0.7540   47.7930   79.2950 O.2   185  ALA185     -0.2864
     72  CB        -1.0950   47.5930   81.6110 C.3   185  ALA185      0.0319
     73  N          5.4570   47.4560   87.8670 N.3   204  PHE204     -0.1227
     74  CA         5.5730   47.9520   86.4930 C.3   204  PHE204      0.1736
     75  C          5.1200   46.8950   85.4820 C.2   204  PHE204      0.2596
     76  O          5.7750   45.8560   85.3130 O.2   204  PHE204     -0.2718
     77  CB         7.0100   48.3920   86.1630 C.3   204  PHE204      0.0547
     78  CG         7.3810   49.7740   86.6590 C.ar  204  PHE204     -0.0202
     79  CD1        7.3460   50.0840   88.0200 C.ar  204  PHE204     -0.0042
     80  CD2        7.8130   50.7510   85.7630 C.ar  204  PHE204     -0.0042
     81  CE1        7.7150   51.3370   88.4810 C.ar  204  PHE204     -0.0003
     82  CE2        8.1830   52.0150   86.2100 C.ar  204  PHE204     -0.0003
     83  CZ         8.1380   52.3110   87.5690 C.ar  204  PHE204     -0.0000
     84  N          3.9890   47.1410   84.8160 N.am  205  GLY205     -0.1942
     85  CA         3.5790   46.3510   83.6780 C.3   205  GLY205      0.2014
     86  C          2.6240   45.2120   83.9670 C.2   205  GLY205      0.2638
     87  O          1.9850   44.7170   83.0370 O.2   205  GLY205     -0.2714
     88  N          2.4910   44.7810   85.2190 N.am  206  ILE206     -0.1977
     89  CA         1.6930   43.5890   85.5060 C.3   206  ILE206      0.1596
     90  C          0.2180   43.9330   85.3100 C.2   206  ILE206      0.2287
     91  O         -0.3680   44.6540   86.1170 O.2   206  ILE206     -0.2864
     92  CB         1.9630   43.0660   86.9200 C.3   206  ILE206      0.0276
     93  CG1        3.4690   43.0280   87.1740 C.3   206  ILE206      0.0022
     94  CG2        1.3540   41.6810   87.0980 C.3   206  ILE206      0.0022
     95  CD1        3.8430   43.2920   88.6100 C.3   206  ILE206      0.0001
     96  N          3.0040   44.1100   92.6980 N.3   223  ILE223     -0.1231
     97  CA         2.4000   45.4370   92.6680 C.3   223  ILE223      0.1692
     98  C          1.6940   45.6210   91.3350 C.2   223  ILE223      0.2592
     99  O          2.2850   45.3820   90.2760 O.2   223  ILE223     -0.2718
    100  CB         3.4440   46.5420   92.8710 C.3   223  ILE223      0.0266
    101  CG1        4.2240   46.3090   94.1710 C.3   223  ILE223      0.0019
    102  CG2        2.7560   47.8960   92.8350 C.3   223  ILE223      0.0020
    103  CD1        5.5380   47.0380   94.2440 C.3   223  ILE223      0.0001
    104  N          0.4480   46.0810   91.3920 N.am  224  VAL224     -0.1966
    105  CA        -0.3700   46.3480   90.2160 C.3   224  VAL224      0.1727
    106  C         -0.9930   47.7290   90.3540 C.2   224  VAL224      0.2617
    107  O         -1.7570   47.9700   91.2930 O.2   224  VAL224     -0.2715
    108  CB        -1.4920   45.3190   90.0490 C.3   224  VAL224      0.0290
    109  CG1       -2.3370   45.7010   88.8370 C.3   224  VAL224      0.0023
    110  CG2       -0.9370   43.9030   89.9570 C.3   224  VAL224      0.0023
    111  N         -0.7440   48.5980   89.3780 N.am  225  GLY225     -0.1940
    112  CA        -1.3080   49.9250   89.4210 C.3   225  GLY225      0.2014
    113  C         -2.0770   50.2580   88.1640 C.2   225  GLY225      0.2640
    114  O         -3.3170   50.3330   88.1870 O.2   225  GLY225     -0.2714
    115  N         -1.3500   50.4430   87.0560 N.am  226  SER226     -0.1935
    116  CA        -1.9980   50.9100   85.8340 C.3   226  SER226      0.2055
    117  C         -3.2380   50.0890   85.4990 C.2   226  SER226      0.2642
    118  O         -4.2800   50.6460   85.1340 O.2   226  SER226     -0.2714
    119  CB        -1.0050   50.8870   84.6750 C.3   226  SER226      0.2130
    120  OG        -0.1780   52.0390   84.7370 O.3   226  SER226     -0.2179
    121  N         -3.1560   48.7660   85.6390 N.am  227  ALA227     -0.1977
    122  CA        -4.2940   47.9480   85.2360 C.3   227  ALA227      0.1597
    123  C         -5.5260   48.2390   86.0880 C.2   227  ALA227      0.2287
    124  O         -6.6530   48.1390   85.5930 O.2   227  ALA227     -0.2864
    125  CB        -3.9330   46.4690   85.3010 C.3   227  ALA227      0.0319
@<TRIPOS>BOND
     1    71    70    2
     2    70    69    1
     3    72    69    1
     4    69    68    1
     5    68    66   am
     6    66    67    2
     7    66    65    1
     8    65    64    1
     9    60    59    2
    10    24    23    2
    11    87    86    2
    12    59    64   am
    13    59    58    1
    14    23    22    1
    15    85    86    1
    16    85    84    1
    17    86    88   am
    18    57    58    1
    19    29    30    1
    20    58    61    1
    21   119   120    1
    22   119   116    1
    23    84    75   am
    24   118   117    2
    25    22    21    1
    26    22    25    1
    27    88    89    1
    28   122   125    1
    29   122   121    1
    30   122   123    1
    31    90    89    1
    32    90    91    2
    33    62    61    1
    34    76    75    2
    35    75    74    1
    36   117   121   am
    37   117   116    1
    38    89    92    1
    39    31    30    1
    40    31    32    2
    41   124   123    2
    42    30    33    1
    43    61    63    1
    44    80    82   ar
    45    80    78   ar
    46   116   115    1
    47    25    26    1
    48    77    74    1
    49    77    78    1
    50    82    83   ar
    51    74    73    1
    52    33    34    1
    53    33    35    1
    54    78    79   ar
    55    34    36    1
    56    92    94    1
    57    92    93    1
    58   115   113   am
    59    93    95    1
    60    26    27   ar
    61    26    28   ar
    62    83    81   ar
    63    79    81   ar
    64   113   114    2
    65   113   112    1
    66   109   108    1
    67   111   112    1
    68   111   106   am
    69   110   108    1
    70   108   105    1
    71   105   106    1
    72   105   104    1
    73    99    98    2
    74   106   107    2
    75    10     8   ar
    76    10    11   ar
    77    56    55    1
    78     8     6   ar
    79    98   104   am
    80    98    97    1
    81    11     9   ar
    82     4     3    2
    83    54    55   ar
    84    54    52   ar
    85    55    53   ar
    86     6     5    1
    87     6     7   ar
    88    97    96    1
    89    97   100    1
    90    52    50   ar
    91     5     2    1
    92     9     7   ar
    93   102   100    1
    94   100   101    1
    95     3     2    1
    96    44    42    1
    97    53    51   ar
    98    48    47    2
    99    43    42    1
   100     2     1    1
   101    47    46    1
   102    50    51   ar
   103    50    49    1
   104   101   103    1
   105    42    41    1
   106    20    18   ar
   107    49    46    1
   108    46    45    1
   109    41    38    1
   110    40    39    2
   111    18    19   ar
   112    18    17    1
   113    39    38    1
   114    15    14    2
   115    16    17    1
   116    16    13    1
   117    38    37    1
   118    14    13    1
   119    13    12    1
