@<TRIPOS>MOLECULE
tmp/5eycA00.pdb
 172 162 0 0 0
SMALL
GASTEIGER

@<TRIPOS>ATOM
      1  N         22.7810   40.0460   54.9810 N.3    32  ILE32      -0.1231
      2  CA        22.6070   39.4960   56.3360 C.3    32  ILE32       0.1692
      3  C         23.3280   38.1600   56.5440 C.2    32  ILE32       0.2593
      4  O         23.3870   37.6560   57.6680 O.2    32  ILE32      -0.2718
      5  CB        21.1160   39.3580   56.7300 C.3    32  ILE32       0.0266
      6  CG1       20.3840   38.3380   55.8510 C.3    32  ILE32       0.0019
      7  CG2       20.4310   40.7130   56.6610 C.3    32  ILE32       0.0020
      8  CD1       18.9420   38.1290   56.2580 C.3    32  ILE32       0.0001
      9  N         23.8670   37.5870   55.4700 N.am   33  GLY33      -0.1942
     10  CA        24.6240   36.3430   55.5570 C.3    33  GLY33       0.2014
     11  C         25.5830   36.1980   54.3900 C.2    33  GLY33       0.2638
     12  O         25.3190   36.7090   53.3080 O.2    33  GLY33      -0.2714
     13  N         26.7030   35.5190   54.6200 N.am   34  ARG34      -0.1977
     14  CA        27.6930   35.2690   53.5710 C.3    34  ARG34       0.1597
     15  C         28.0620   33.7980   53.5020 C.2    34  ARG34       0.2287
     16  O         28.5470   33.2200   54.4790 O.2    34  ARG34      -0.2864
     17  CB        28.9650   36.0760   53.8220 C.3    34  ARG34       0.0334
     18  CG        28.7480   37.5760   53.8400 C.3    34  ARG34       0.0492
     19  CD        30.0700   38.3260   53.8910 C.3    34  ARG34       0.2205
     20  NE        29.9090   39.7040   53.4380 N.pl3  34  ARG34      -0.0865
     21  CZ        29.8220   40.0850   52.1630 C.cat  34  ARG34       0.5346
     22  NH1       29.8810   39.1950   51.1710 N.pl3  34  ARG34       0.1354
     23  NH2       29.6700   41.3730   51.8750 N.pl3  34  ARG34       0.1354
     24  N         23.2400   36.4940   51.3380 N.3    40  VAL40      -0.1245
     25  CA        21.8630   36.4220   51.8200 C.3    40  VAL40       0.1561
     26  C         21.3950   37.8290   52.1450 C.2    40  VAL40       0.2260
     27  O         22.1650   38.6310   52.6900 O.2    40  VAL40      -0.2867
     28  CB        21.7490   35.5500   53.0940 C.3    40  VAL40       0.0252
     29  CG1       20.2860   35.2820   53.4360 C.3    40  VAL40       0.0019
     30  CG2       22.5180   34.2490   52.9230 C.3    40  VAL40       0.0019
     31  N         14.6520   35.4810   54.6190 N.3    51  ALA51      -0.1245
     32  CA        16.0650   35.5700   54.2620 C.3    51  ALA51       0.1562
     33  C         16.1820   35.0210   52.8510 C.2    51  ALA51       0.2260
     34  O         15.7960   33.8770   52.5860 O.2    51  ALA51      -0.2867
     35  CB        16.9230   34.7460   55.2270 C.3    51  ALA51       0.0290
     36  N         18.4910   33.9710   49.7220 N.3    53  LYS53      -0.1245
     37  CA        19.8420   33.5600   49.3830 C.3    53  LYS53       0.1561
     38  C         20.0700   33.5450   47.8730 C.2    53  LYS53       0.2260
     39  O         19.3730   32.8490   47.1260 O.2    53  LYS53      -0.2867
     40  CB        20.1650   32.1850   49.9500 C.3    53  LYS53       0.0271
     41  CG        21.4980   31.6680   49.4390 C.3    53  LYS53       0.0035
     42  CD        22.2650   30.8410   50.4410 C.3    53  LYS53       0.0206
     43  CE        23.7230   30.7650   50.0160 C.3    53  LYS53       0.1093
     44  NZ        24.3360   29.5270   50.5320 N.3    53  LYS53      -0.1314
     45  N         14.9260   23.9050   59.6710 N.3    83  LEU83      -0.1245
     46  CA        14.6980   25.1270   58.8930 C.3    83  LEU83       0.1561
     47  C         13.8460   24.7620   57.6810 C.2    83  LEU83       0.2260
     48  O         14.1250   23.7890   56.9770 O.2    83  LEU83      -0.2867
     49  CB        16.0050   25.7920   58.4470 C.3    83  LEU83       0.0270
     50  CG        15.8790   27.1600   57.7490 C.3    83  LEU83       0.0019
     51  CD1       15.4640   28.2450   58.7310 C.3    83  LEU83       0.0001
     52  CD2       17.1600   27.5650   57.0240 C.3    83  LEU83       0.0001
     53  N         14.0840   31.5230   52.5560 N.3   100  LEU100     -0.1231
     54  CA        14.0430   30.8560   53.8570 C.3   100  LEU100      0.1678
     55  C         13.4050   31.7850   54.8930 C.2   100  LEU100      0.2434
     56  O         13.3730   33.0020   54.7010 O.2   100  LEU100     -0.2733
     57  CB        15.4550   30.5270   54.3360 C.3   100  LEU100      0.0284
     58  CG        16.3980   29.5810   53.5900 C.3   100  LEU100      0.0019
     59  CD1       15.6920   28.3270   53.0910 C.3   100  LEU100      0.0001
     60  CD2       17.1050   30.3200   52.4630 C.3   100  LEU100      0.0001
     61  N         12.9070   31.2160   56.0130 N.am  101  PRO101     -0.2718
     62  CA        12.4890   32.0920   57.1040 C.3   101  PRO101      0.1535
     63  C         13.6530   32.8940   57.6680 C.2   101  PRO101      0.2599
     64  O         14.8060   32.4310   57.6760 O.2   101  PRO101     -0.2715
     65  CB        11.9370   31.1330   58.1760 C.3   101  PRO101      0.0310
     66  CG        11.8480   29.7890   57.5480 C.3   101  PRO101      0.0237
     67  CD        12.6410   29.7920   56.2740 C.3   101  PRO101      0.0939
     68  N         13.3510   34.1000   58.1200 N.am  102  TYR102     -0.1960
     69  CA        14.3290   34.9470   58.7580 C.3   102  TYR102      0.1771
     70  C         14.5960   34.3910   60.1490 C.2   102  TYR102      0.2619
     71  O         13.6630   34.0710   60.8810 O.2   102  TYR102     -0.2715
     72  CB        13.8180   36.3770   58.8400 C.3   102  TYR102      0.0574
     73  CG        14.7910   37.3460   59.4500 C.ar  102  TYR102     -0.0198
     74  CD1       15.8930   37.8010   58.7360 C.ar  102  TYR102     -0.0009
     75  CD2       14.6090   37.8170   60.7500 C.ar  102  TYR102     -0.0009
     76  CE1       16.7860   38.6970   59.2990 C.ar  102  TYR102      0.0417
     77  CE2       15.4960   38.7080   61.3210 C.ar  102  TYR102      0.0417
     78  CZ        16.5850   39.1440   60.5920 C.ar  102  TYR102      0.1957
     79  OH        17.4650   40.0320   61.1590 O.3   102  TYR102     -0.2866
     80  N         15.8730   34.2670   60.4860 N.am  103  MET103     -0.1977
     81  CA        16.3030   33.7230   61.7720 C.3   103  MET103      0.1605
     82  C         16.9440   34.8490   62.5610 C.2   103  MET103      0.2287
     83  O         18.1200   35.1560   62.3920 O.2   103  MET103     -0.2864
     84  CB        17.2650   32.5580   61.5440 C.3   103  MET103      0.0413
     85  CG        16.6060   31.3570   60.8760 C.3   103  MET103      0.0598
     86  SD        15.5500   30.4200   62.0150 S.3   103  MET103     -0.1393
     87  CE        13.9770   30.4690   61.1870 C.3   103  MET103      0.0692
     88  N         20.3340   34.3740   64.4700 N.3   106  GLY106     -0.1210
     89  CA        21.4860   33.8780   63.7220 C.3   106  GLY106      0.1956
     90  C         21.8560   32.4330   64.0070 C.2   106  GLY106      0.2611
     91  O         21.0050   31.6270   64.3830 O.2   106  GLY106     -0.2717
     92  N         23.1350   32.1090   63.8150 N.am  107  ASP107     -0.1973
     93  CA        23.6090   30.7440   63.9790 C.3   107  ASP107      0.1709
     94  C         23.8640   30.4540   65.4600 C.2   107  ASP107      0.2293
     95  O         24.1570   31.3460   66.2580 O.2   107  ASP107     -0.2864
     96  CB        24.8470   30.4370   63.1190 C.3   107  ASP107      0.1436
     97  CG        26.0890   31.1500   63.5870 C.2   107  ASP107      0.3671
     98  OD1       26.2230   32.3430   63.2860 O.co2 107  ASP107     -0.2456
     99  OD2       26.9430   30.5100   64.2460 O.co2 107  ASP107     -0.2456
    100  N         27.5460   31.3550   67.0220 N.3   110  ASN110     -0.1240
    101  CA        27.6990   32.7530   67.3600 C.3   110  ASN110      0.1653
    102  C         26.7910   33.1550   68.5130 C.2   110  ASN110      0.2266
    103  O         27.2020   33.9260   69.3670 O.2   110  ASN110     -0.2867
    104  CB        27.4920   33.6530   66.1260 C.3   110  ASN110      0.1155
    105  CG        28.7230   33.7010   65.2340 C.2   110  ASN110      0.2627
    106  OD1       29.8310   33.9240   65.7220 O.2   110  ASN110     -0.2716
    107  ND2       28.5440   33.4820   63.9290 N.am  110  ASN110     -0.0877
    108  N         27.5310   25.9860   63.9710 N.3   151  ARG151     -0.1182
    109  CA        27.5140   27.0730   62.9660 C.3   151  ARG151      0.1910
    110  C         26.3770   26.8840   61.9690 C.2   151  ARG151      0.2634
    111  O         25.9580   27.8500   61.3250 O.2   151  ARG151     -0.2714
    112  CB        28.8530   27.1510   62.1880 C.2   151  ARG151      0.0007
    113  CG        29.1740   25.9350   61.3390 C.2   151  ARG151      0.0176
    114  CD        30.4780   26.0140   60.5380 C.3   151  ARG151      0.2464
    115  NE        30.7210   24.7150   59.9100 N.pl3 151  ARG151     -0.0815
    116  CZ        31.3620   23.6980   60.4860 C.cat 151  ARG151      0.5349
    117  NH1       31.4890   22.5390   59.8590 N.pl3 151  ARG151      0.1354
    118  NH2       31.9000   23.8340   61.6870 N.pl3 151  ARG151      0.1354
    119  N         25.9290   25.6330   61.8270 N.am  152  ASN152     -0.1972
    120  CA        24.9100   25.2250   60.8460 C.3   152  ASN152      0.1688
    121  C         23.4950   24.9680   61.3970 C.2   152  ASN152      0.2292
    122  O         22.6830   24.2920   60.7550 O.2   152  ASN152     -0.2864
    123  CB        25.4150   24.0080   60.0790 C.3   152  ASN152      0.1181
    124  CG        26.5490   24.3710   59.1370 C.2   152  ASN152      0.2629
    125  OD1       26.6190   25.5070   58.6550 O.2   152  ASN152     -0.2716
    126  ND2       27.4480   23.4390   58.9000 N.am  152  ASN152     -0.0877
    127  N         20.3550   27.4040   63.4170 N.3   154  MET154     -0.1245
    128  CA        19.9840   28.7920   63.6190 C.3   154  MET154      0.1570
    129  C         18.8460   28.9390   64.6330 C.2   154  MET154      0.2261
    130  O         18.1350   27.9770   64.9140 O.2   154  MET154     -0.2867
    131  CB        19.6230   29.4420   62.2800 C.3   154  MET154      0.0387
    132  CG        20.7560   29.3650   61.2580 C.3   154  MET154      0.0595
    133  SD        20.4140   30.3970   59.8270 S.3   154  MET154     -0.1393
    134  CE        20.8250   31.9870   60.5050 C.3   154  MET154      0.0692
    135  N         19.8130   23.7040   60.1400 N.3   164  ALA164     -0.1231
    136  CA        19.8010   24.5010   58.9090 C.3   164  ALA164      0.1694
    137  C         20.8960   23.9810   57.9560 C.2   164  ALA164      0.2592
    138  O         21.3530   22.8420   58.0970 O.2   164  ALA164     -0.2718
    139  CB        19.9740   25.9730   59.2410 C.3   164  ALA164      0.0304
    140  N         21.2800   24.7710   56.9620 N.am  165  ASP165     -0.1974
    141  CA        22.3710   24.3840   56.0710 C.3   165  ASP165      0.1709
    142  C         22.1820   23.0240   55.4030 C.2   165  ASP165      0.2293
    143  O         23.0750   22.1990   55.4280 O.2   165  ASP165     -0.2864
    144  CB        23.6880   24.3780   56.8480 C.3   165  ASP165      0.1436
    145  CG        24.8740   24.0550   55.9740 C.2   165  ASP165      0.3671
    146  OD1       25.0480   24.7500   54.9410 O.co2 165  ASP165     -0.2456
    147  OD2       25.6150   23.1070   56.3270 O.co2 165  ASP165     -0.2456
    148  N         19.7620   25.3950   50.9080 N.3   169  ALA169     -0.1245
    149  CA        20.4590   26.3450   51.8020 C.3   169  ALA169      0.1562
    150  C         21.9030   25.9040   52.1200 C.2   169  ALA169      0.2260
    151  O         22.6310   26.6140   52.8170 O.2   169  ALA169     -0.2867
    152  CB        19.6660   26.5350   53.0990 C.3   169  ALA169      0.0290
    153  N         29.3760   28.4450   55.4430 N.3   173  TYR173     -0.1227
    154  CA        29.1710   29.7550   56.0470 C.3   173  TYR173      0.1736
    155  C         30.3220   30.1600   56.9680 C.2   173  TYR173      0.2595
    156  O         30.3550   31.2800   57.4670 O.2   173  TYR173     -0.2718
    157  CB        27.8250   29.7970   56.7900 C.3   173  TYR173      0.0548
    158  CG        26.6200   29.5820   55.8880 C.ar  173  TYR173     -0.0200
    159  CD1       26.0760   30.6380   55.1520 C.ar  173  TYR173     -0.0009
    160  CD2       26.0320   28.3240   55.7560 C.ar  173  TYR173     -0.0009
    161  CE1       24.9760   30.4580   54.3290 C.ar  173  TYR173      0.0417
    162  CE2       24.9280   28.1370   54.9310 C.ar  173  TYR173      0.0417
    163  CZ        24.4030   29.2070   54.2230 C.ar  173  TYR173      0.1957
    164  OH        23.3030   29.0250   53.3990 O.3   173  TYR173     -0.2866
    165  N         31.2720   29.2540   57.1880 N.am  174  ASP174     -0.1974
    166  CA        32.5260   29.6140   57.8610 C.3   174  ASP174      0.1709
    167  C         33.6770   28.7850   57.2930 C.2   174  ASP174      0.2293
    168  O         33.9320   27.6600   57.7400 O.2   174  ASP174     -0.2864
    169  CB        32.4120   29.4280   59.3780 C.3   174  ASP174      0.1436
    170  CG        33.6040   30.0070   60.1270 C.2   174  ASP174      0.3671
    171  OD1       34.6840   30.1860   59.5130 O.co2 174  ASP174     -0.2456
    172  OD2       33.4670   30.2940   61.3280 O.co2 174  ASP174     -0.2456
@<TRIPOS>BOND
     1    39    38    2
     2    38    37    1
     3    37    36    1
     4    37    40    1
     5    41    40    1
     6    41    42    1
     7    43    42    1
     8    43    44    1
     9   148   149    1
    10    22    21    1
    11    24    25    1
    12   149   150    1
    13   149   152    1
    14    25    26    1
    15    25    28    1
    16    23    21    1
    17   150   151    2
    18    26    27    2
    19    21    20    2
    20    60    58    1
    21    53    54    1
    22    34    33    2
    23    33    32    1
    24    30    28    1
    25    59    58    1
    26    28    29    1
    27    12    11    2
    28   164   163    1
    29    20    19    1
    30    15    14    1
    31    15    16    2
    32    14    17    1
    33    14    13    1
    34    58    57    1
    35    17    18    1
    36    18    19    1
    37    54    57    1
    38    54    55    1
    39   163   161   ar
    40   163   162   ar
    41    32    31    1
    42    32    35    1
    43   161   159   ar
    44    11    13   am
    45    11    10    1
    46    56    55    2
    47    55    61   am
    48   162   160   ar
    49   146   145   ar
    50     1     2    1
    51   159   158   ar
    52   142   143    2
    53   142   141    1
    54   153   154    1
    55     9    10    1
    56     9     3   am
    57   160   158   ar
    58     6     8    1
    59     6     5    1
    60   158   157    1
    61   145   147   ar
    62   145   144    1
    63    61    67    1
    64    61    62    1
    65   154   157    1
    66   154   155    1
    67   141   144    1
    68   141   140    1
    69    67    66    1
    70     2     3    1
    71     2     5    1
    72     3     4    2
    73     7     5    1
    74   140   137   am
    75   155   165   am
    76   155   156    2
    77    48    47    2
    78    52    50    1
    79    62    63    1
    80    62    65    1
    81   165   166    1
    82   167   168    2
    83   167   166    1
    84    66    65    1
    85    63    64    2
    86    63    68   am
    87    47    46    1
    88    50    49    1
    89    50    51    1
    90   166   169    1
    91   137   138    2
    92   137   136    1
    93    68    69    1
    94    49    46    1
    95   125   124    2
    96    74    76   ar
    97    74    73   ar
    98    69    72    1
    99    69    70    1
   100    72    73    1
   101    46    45    1
   102   126   124   am
   103   136   139    1
   104   136   135    1
   105   124   123    1
   106    76    78   ar
   107   169   170    1
   108    73    75   ar
   109   171   170   ar
   110   133   134    1
   111   133   132    1
   112   117   116    1
   113   115   116    2
   114   115   114    1
   115   123   120    1
   116   170   172   ar
   117    70    80   am
   118    70    71    2
   119   116   118    1
   120    80    81    1
   121   114   113    1
   122    78    79    1
   123    78    77   ar
   124    75    77   ar
   125   122   121    2
   126   120   121    1
   127   120   119    1
   128    85    84    1
   129    85    86    1
   130    87    86    1
   131   132   131    1
   132   111   110    2
   133   113   112    2
   134    84    81    1
   135    81    82    1
   136   119   110   am
   137   110   109    1
   138   112   109    1
   139   131   128    1
   140    83    82    2
   141   109   108    1
   142    96    97    1
   143    96    93    1
   144    98    97   ar
   145   127   128    1
   146    97    99   ar
   147   128   129    1
   148    89    90    1
   149    89    88    1
   150    92    93    1
   151    92    90   am
   152   107   105   am
   153    93    94    1
   154    90    91    2
   155   129   130    2
   156   105   106    2
   157   105   104    1
   158    94    95    2
   159   104   101    1
   160   100   101    1
   161   101   102    1
   162   102   103    2
