@<TRIPOS>MOLECULE
tmp/5eydA00.pdb
 191 183 0 0 0
SMALL
GASTEIGER

@<TRIPOS>ATOM
      1  N         22.8490   39.7760   55.2350 N.3    33  ILE33      -0.1231
      2  CA        22.6700   39.1720   56.5590 C.3    33  ILE33       0.1692
      3  C         23.3400   37.7970   56.6670 C.2    33  ILE33       0.2593
      4  O         23.3770   37.2000   57.7450 O.2    33  ILE33      -0.2718
      5  CB        21.1730   39.0640   56.9380 C.3    33  ILE33       0.0266
      6  CG1       20.3940   38.2040   55.9310 C.3    33  ILE33       0.0019
      7  CG2       20.5640   40.4540   57.0450 C.3    33  ILE33       0.0020
      8  CD1       18.9190   38.0810   56.2520 C.3    33  ILE33       0.0001
      9  N         23.8630   37.2950   55.5520 N.am   34  GLY34      -0.1942
     10  CA        24.5800   36.0270   55.5370 C.3    34  GLY34       0.2014
     11  C         25.5620   35.9900   54.3860 C.2    34  GLY34       0.2638
     12  O         25.3190   36.6050   53.3520 O.2    34  GLY34      -0.2714
     13  N         26.6740   35.2830   54.5730 N.am   35  ARG35      -0.1977
     14  CA        27.6840   35.1130   53.5280 C.3    35  ARG35       0.1597
     15  C         28.0740   33.6530   53.4160 C.2    35  ARG35       0.2287
     16  O         28.6710   33.0890   54.3320 O.2    35  ARG35      -0.2864
     17  CB        28.9370   35.9260   53.8410 C.3    35  ARG35       0.0334
     18  CG        28.7350   37.4270   53.8240 C.3    35  ARG35       0.0492
     19  CD        30.0550   38.1490   54.0320 C.3    35  ARG35       0.2205
     20  NE        29.9240   39.5860   53.7940 N.pl3  35  ARG35      -0.0865
     21  CZ        29.9620   40.1770   52.5970 C.cat  35  ARG35       0.5346
     22  NH1       30.1350   39.4700   51.4790 N.pl3  35  ARG35       0.1354
     23  NH2       29.8270   41.4970   52.5180 N.pl3  35  ARG35       0.1354
     24  N         23.2070   36.2610   51.4840 N.3    41  VAL41      -0.1245
     25  CA        21.8230   36.1720   51.9580 C.3    41  VAL41       0.1561
     26  C         21.3330   37.5720   52.3030 C.2    41  VAL41       0.2260
     27  O         22.0700   38.3480   52.9070 O.2    41  VAL41      -0.2867
     28  CB        21.7140   35.2660   53.2100 C.3    41  VAL41       0.0252
     29  CG1       20.2570   34.9180   53.4980 C.3    41  VAL41       0.0019
     30  CG2       22.5600   34.0090   53.0380 C.3    41  VAL41       0.0019
     31  N         14.5370   35.3720   54.6330 N.3    51  ALA51      -0.1245
     32  CA        15.9550   35.4080   54.2910 C.3    51  ALA51       0.1562
     33  C         16.0700   34.8900   52.8740 C.2    51  ALA51       0.2260
     34  O         15.5980   33.7910   52.5630 O.2    51  ALA51      -0.2867
     35  CB        16.7720   34.5380   55.2480 C.3    51  ALA51       0.0290
     36  N         18.4770   33.8710   49.7870 N.3    53  LYS53      -0.1245
     37  CA        19.8310   33.4540   49.4400 C.3    53  LYS53       0.1561
     38  C         20.0260   33.4350   47.9250 C.2    53  LYS53       0.2260
     39  O         19.2450   32.8240   47.1860 O.2    53  LYS53      -0.2867
     40  CB        20.1370   32.0570   49.9930 C.3    53  LYS53       0.0271
     41  CG        21.5310   31.5730   49.6220 C.3    53  LYS53       0.0035
     42  CD        21.9870   30.3810   50.4380 C.3    53  LYS53       0.0206
     43  CE        23.3630   29.9040   49.9820 C.3    53  LYS53       0.1093
     44  NZ        24.3620   31.0020   50.0150 N.3    53  LYS53      -0.1314
     45  N         14.8040   23.8950   59.7340 N.3    83  LEU83      -0.1245
     46  CA        14.5370   25.1330   58.9800 C.3    83  LEU83       0.1561
     47  C         13.7050   24.7970   57.7350 C.2    83  LEU83       0.2260
     48  O         13.9990   23.8530   57.0130 O.2    83  LEU83      -0.2867
     49  CB        15.8250   25.8740   58.5980 C.3    83  LEU83       0.0270
     50  CG        15.6600   27.2370   57.8970 C.3    83  LEU83       0.0019
     51  CD1       15.1430   28.3050   58.8470 C.3    83  LEU83       0.0001
     52  CD2       16.9660   27.6880   57.2560 C.3    83  LEU83       0.0001
     53  N         13.9820   31.5080   52.6370 N.3    98  LEU98      -0.1231
     54  CA        13.9580   30.8350   53.9330 C.3    98  LEU98       0.1678
     55  C         13.3100   31.7480   54.9780 C.2    98  LEU98       0.2434
     56  O         13.3240   32.9710   54.8220 O.2    98  LEU98      -0.2733
     57  CB        15.3830   30.5240   54.3910 C.3    98  LEU98       0.0284
     58  CG        16.2970   29.5910   53.5940 C.3    98  LEU98       0.0019
     59  CD1       15.5580   28.3600   53.0860 C.3    98  LEU98       0.0001
     60  CD2       16.9740   30.3340   52.4490 C.3    98  LEU98       0.0001
     61  N         12.7610   31.1580   56.0650 N.am   99  PRO99      -0.2718
     62  CA        12.3040   31.9780   57.1770 C.3    99  PRO99       0.1535
     63  C         13.4200   32.8350   57.7350 C.2    99  PRO99       0.2599
     64  O         14.5900   32.4360   57.7070 O.2    99  PRO99      -0.2715
     65  CB        11.8620   30.9560   58.2280 C.3    99  PRO99       0.0310
     66  CG        11.5450   29.7250   57.4700 C.3    99  PRO99       0.0237
     67  CD        12.4420   29.7320   56.2550 C.3    99  PRO99       0.0939
     68  N         13.0670   34.0070   58.2400 N.am  100  TYR100     -0.1960
     69  CA        14.0380   34.8630   58.8840 C.3   100  TYR100      0.1771
     70  C         14.3410   34.2600   60.2600 C.2   100  TYR100      0.2619
     71  O         13.4260   33.9320   61.0080 O.2   100  TYR100     -0.2715
     72  CB        13.4850   36.2750   59.0150 C.3   100  TYR100      0.0574
     73  CG        14.4790   37.2900   59.5040 C.ar  100  TYR100     -0.0198
     74  CD1       14.4220   37.7720   60.8070 C.ar  100  TYR100     -0.0009
     75  CD2       15.4840   37.7640   58.6700 C.ar  100  TYR100     -0.0009
     76  CE1       15.3300   38.7050   61.2650 C.ar  100  TYR100      0.0417
     77  CE2       16.4000   38.6980   59.1170 C.ar  100  TYR100      0.0417
     78  CZ        16.3130   39.1680   60.4140 C.ar  100  TYR100      0.1957
     79  OH        17.2090   40.0910   60.8760 O.3   100  TYR100     -0.2866
     80  N         15.6230   34.0910   60.5660 N.am  101  MET101     -0.1963
     81  CA        16.0600   33.5950   61.8700 C.3   101  MET101      0.1736
     82  C         16.7350   34.7300   62.6410 C.2   101  MET101      0.2616
     83  O         17.9320   34.9640   62.5170 O.2   101  MET101     -0.2715
     84  CB        16.9890   32.3990   61.6700 C.3   101  MET101      0.0427
     85  CG        16.3020   31.2200   60.9900 C.3   101  MET101      0.0599
     86  SD        15.1280   30.4020   62.0990 S.3   101  MET101     -0.1393
     87  CE        13.6410   30.3100   61.1310 C.3   101  MET101      0.0692
     88  N         15.9440   35.4330   63.4450 N.am  102  LYS102     -0.1963
     89  CA        16.3780   36.6650   64.1080 C.3   102  LYS102      0.1728
     90  C         17.7030   36.5500   64.8460 C.2   102  LYS102      0.2616
     91  O         18.5250   37.4540   64.7620 O.2   102  LYS102     -0.2715
     92  CB        15.3110   37.1520   65.0880 C.3   102  LYS102      0.0311
     93  CG        15.6660   38.4280   65.8410 C.3   102  LYS102      0.0038
     94  CD        14.6740   38.6880   66.9510 C.3   102  LYS102      0.0206
     95  CE        14.9170   40.0320   67.6160 C.3   102  LYS102      0.1093
     96  NZ        13.9040   40.2740   68.6760 N.3   102  LYS102     -0.1314
     97  N         17.9140   35.4490   65.5650 N.am  103  HIS103     -0.1959
     98  CA        19.1020   35.3410   66.4170 C.3   103  HIS103      0.1787
     99  C         20.2600   34.5910   65.8150 C.2   103  HIS103      0.2621
    100  O         21.2270   34.2750   66.5150 O.2   103  HIS103     -0.2715
    101  CB        18.7010   34.8060   67.7900 C.3   103  HIS103      0.0785
    102  CG        17.9430   35.8120   68.6030 C.ar  103  HIS103      0.0821
    103  ND1       18.5110   36.9500   69.0440 N.ar  103  HIS103     -0.2267
    104  CD2       16.6070   35.8520   69.0110 C.ar  103  HIS103      0.1154
    105  CE1       17.5950   37.6700   69.7240 C.ar  103  HIS103      0.1986
    106  NE2       16.4310   36.9990   69.6970 N.ar  103  HIS103     -0.2212
    107  N         20.1980   34.3350   64.5080 N.am  104  GLY104     -0.1940
    108  CA        21.3510   33.8210   63.7700 C.3   104  GLY104      0.2014
    109  C         21.7150   32.3750   64.0700 C.2   104  GLY104      0.2638
    110  O         20.8620   31.5710   64.4630 O.2   104  GLY104     -0.2714
    111  N         22.9860   32.0440   63.8620 N.am  105  ASP105     -0.1971
    112  CA        23.4460   30.6730   64.0140 C.3   105  ASP105      0.1709
    113  C         23.7080   30.3770   65.4890 C.2   105  ASP105      0.2293
    114  O         24.0200   31.2660   66.2670 O.2   105  ASP105     -0.2864
    115  CB        24.6810   30.3640   63.1450 C.3   105  ASP105      0.1436
    116  CG        25.9410   31.0480   63.6340 C.2   105  ASP105      0.3671
    117  OD1       26.0950   32.2520   63.3560 O.co2 105  ASP105     -0.2456
    118  OD2       26.7830   30.3770   64.2870 O.co2 105  ASP105     -0.2456
    119  N         27.3660   31.3590   67.1250 N.3   108  ASN108     -0.1240
    120  CA        27.5340   32.7660   67.4430 C.3   108  ASN108      0.1653
    121  C         26.6250   33.2090   68.5880 C.2   108  ASN108      0.2266
    122  O         27.0330   34.0120   69.4230 O.2   108  ASN108     -0.2867
    123  CB        27.3340   33.6380   66.1960 C.3   108  ASN108      0.1155
    124  CG        28.5870   33.7160   65.3370 C.2   108  ASN108      0.2627
    125  OD1       29.6740   34.0080   65.8410 O.2   108  ASN108     -0.2716
    126  ND2       28.4440   33.4630   64.0380 N.am  108  ASN108     -0.0877
    127  N         27.3780   25.9290   64.0330 N.3   149  ARG149     -0.1231
    128  CA        27.3350   26.9930   63.0100 C.3   149  ARG149      0.1694
    129  C         26.1980   26.8080   62.0090 C.2   149  ARG149      0.2592
    130  O         25.7980   27.7670   61.3500 O.2   149  ARG149     -0.2718
    131  CB        28.6670   27.1070   62.2380 C.3   149  ARG149      0.0321
    132  CG        29.0720   25.8430   61.5070 C.3   149  ARG149      0.0489
    133  CD        30.3200   25.9840   60.6480 C.3   149  ARG149      0.2205
    134  NE        30.5460   24.6920   60.0130 N.pl3 149  ARG149     -0.0865
    135  CZ        31.1610   23.6640   60.5850 C.cat 149  ARG149      0.5346
    136  NH1       31.2690   22.5200   59.9310 N.pl3 149  ARG149      0.1354
    137  NH2       31.6900   23.7710   61.7980 N.pl3 149  ARG149      0.1354
    138  N         25.7070   25.5740   61.8990 N.am  150  ASN150     -0.1974
    139  CA        24.6990   25.1820   60.9110 C.3   150  ASN150      0.1688
    140  C         23.2870   24.9360   61.4880 C.2   150  ASN150      0.2292
    141  O         22.4440   24.2840   60.8630 O.2   150  ASN150     -0.2864
    142  CB        25.2190   23.9710   60.1290 C.3   150  ASN150      0.1181
    143  CG        26.3830   24.3510   59.2100 C.2   150  ASN150      0.2629
    144  OD1       26.4640   25.4970   58.7700 O.2   150  ASN150     -0.2716
    145  ND2       27.3040   23.4170   58.9640 N.am  150  ASN150     -0.0877
    146  N         20.2240   27.3940   63.4910 N.3   152  MET152     -0.1245
    147  CA        19.8720   28.7860   63.7120 C.3   152  MET152      0.1570
    148  C         18.7150   28.9450   64.7200 C.2   152  MET152      0.2261
    149  O         17.9750   28.0040   64.9730 O.2   152  MET152     -0.2867
    150  CB        19.5030   29.4490   62.3800 C.3   152  MET152      0.0387
    151  CG        20.6300   29.4180   61.3540 C.3   152  MET152      0.0595
    152  SD        20.2670   30.4580   59.9350 S.3   152  MET152     -0.1393
    153  CE        20.6750   32.0700   60.5740 C.3   152  MET152      0.0692
    154  N         19.6590   23.6560   60.2130 N.3   162  ALA162     -0.1231
    155  CA        19.6410   24.4050   58.9620 C.3   162  ALA162      0.1694
    156  C         20.7290   23.8790   58.0190 C.2   162  ALA162      0.2592
    157  O         21.1380   22.7090   58.1120 O.2   162  ALA162     -0.2718
    158  CB        19.8280   25.8880   59.2480 C.3   162  ALA162      0.0304
    159  N         21.1600   24.7190   57.0850 N.am  163  ASP163     -0.1974
    160  CA        22.2530   24.3690   56.1800 C.3   163  ASP163      0.1709
    161  C         22.0800   23.0070   55.5120 C.2   163  ASP163      0.2293
    162  O         22.9920   22.1880   55.5320 O.2   163  ASP163     -0.2864
    163  CB        23.5810   24.3830   56.9350 C.3   163  ASP163      0.1436
    164  CG        24.7560   24.0790   56.0360 C.2   163  ASP163      0.3671
    165  OD1       24.8740   24.7630   54.9990 O.co2 163  ASP163     -0.2456
    166  OD2       25.5440   23.1600   56.3690 O.co2 163  ASP163     -0.2456
    167  N         19.6310   25.4230   50.9400 N.3   167  ALA167     -0.1245
    168  CA        20.3110   26.3480   51.8570 C.3   167  ALA167      0.1562
    169  C         21.7600   25.9310   52.1700 C.2   167  ALA167      0.2260
    170  O         22.4850   26.6750   52.8450 O.2   167  ALA167     -0.2867
    171  CB        19.5160   26.4720   53.1600 C.3   167  ALA167      0.0290
    172  N         29.1660   28.5070   55.5520 N.3   171  TYR171     -0.1227
    173  CA        28.9920   29.8270   56.1450 C.3   171  TYR171      0.1736
    174  C         30.1420   30.1940   57.0940 C.2   171  TYR171      0.2595
    175  O         30.1740   31.3030   57.6080 O.2   171  TYR171     -0.2718
    176  CB        27.6250   29.9320   56.8610 C.3   171  TYR171      0.0548
    177  CG        26.4260   29.7470   55.9510 C.ar  171  TYR171     -0.0200
    178  CD1       25.8980   30.8170   55.2220 C.ar  171  TYR171     -0.0009
    179  CD2       25.8150   28.5020   55.8130 C.ar  171  TYR171     -0.0009
    180  CE1       24.8040   30.6500   54.3870 C.ar  171  TYR171      0.0417
    181  CE2       24.7190   28.3280   54.9860 C.ar  171  TYR171      0.0417
    182  CZ        24.2110   29.4020   54.2790 C.ar  171  TYR171      0.1957
    183  OH        23.1260   29.2080   53.4480 O.3   171  TYR171     -0.2866
    184  N         31.0810   29.2720   57.3290 N.am  172  ASP172     -0.1974
    185  CA        32.3460   29.6100   58.0120 C.3   172  ASP172      0.1709
    186  C         33.4800   28.7740   57.4200 C.2   172  ASP172      0.2293
    187  O         33.7190   27.6290   57.8320 O.2   172  ASP172     -0.2864
    188  CB        32.2460   29.4270   59.5380 C.3   172  ASP172      0.1436
    189  CG        33.3860   30.1300   60.3000 C.2   172  ASP172      0.3671
    190  OD1       34.4440   30.4240   59.6990 O.co2 172  ASP172     -0.2456
    191  OD2       33.2280   30.4020   61.5100 O.co2 172  ASP172     -0.2456
@<TRIPOS>BOND
     1    39    38    2
     2    38    37    1
     3    37    36    1
     4    37    40    1
     5    41    40    1
     6    41    42    1
     7    43    44    1
     8    43    42    1
     9   167   168    1
    10    22    21    1
    11    24    25    1
    12   168   169    1
    13   168   171    1
    14    25    26    1
    15    25    28    1
    16   169   170    2
    17    26    27    2
    18    60    58    1
    19    23    21    1
    20    34    33    2
    21    21    20    2
    22    53    54    1
    23    33    32    1
    24    30    28    1
    25    59    58    1
    26    28    29    1
    27    12    11    2
    28    15    14    1
    29    15    16    2
    30   183   182    1
    31    14    17    1
    32    14    13    1
    33    58    57    1
    34    20    19    1
    35    18    17    1
    36    18    19    1
    37    54    57    1
    38    54    55    1
    39   182   180   ar
    40   182   181   ar
    41    32    31    1
    42    32    35    1
    43    11    13   am
    44    11    10    1
    45   180   178   ar
    46    56    55    2
    47    55    61   am
    48   181   179   ar
    49   165   164   ar
    50   178   177   ar
    51     1     2    1
    52   161   162    2
    53   161   160    1
    54    10     9    1
    55   172   173    1
    56     9     3   am
    57   179   177   ar
    58     6     8    1
    59     6     5    1
    60   177   176    1
    61   164   166   ar
    62   164   163    1
    63    61    67    1
    64    61    62    1
    65   173   176    1
    66   173   174    1
    67   160   163    1
    68   160   159    1
    69    67    66    1
    70     2     3    1
    71     2     5    1
    72     3     4    2
    73     5     7    1
    74    48    47    2
    75   159   156   am
    76   174   184   am
    77   174   175    2
    78    62    63    1
    79    62    65    1
    80    52    50    1
    81   184   185    1
    82   186   187    2
    83   186   185    1
    84    66    65    1
    85    64    63    2
    86    63    68   am
    87    47    46    1
    88    50    49    1
    89    50    51    1
    90   185   188    1
    91   156   157    2
    92   156   155    1
    93    68    69    1
    94    49    46    1
    95    75    77   ar
    96    75    73   ar
    97   144   143    2
    98    69    72    1
    99    69    70    1
   100   155   158    1
   101   155   154    1
   102   145   143   am
   103    46    45    1
   104    72    73    1
   105    77    78   ar
   106   143   142    1
   107    73    74   ar
   108   188   189    1
   109   190   189   ar
   110   136   135    1
   111   152   153    1
   112   152   151    1
   113   134   135    2
   114   134   133    1
   115   142   139    1
   116    70    80   am
   117    70    71    2
   118   189   191   ar
   119    78    79    1
   120    78    76   ar
   121    80    81    1
   122   135   137    1
   123   133   132    1
   124    74    76   ar
   125   141   140    2
   126   139   140    1
   127   139   138    1
   128    85    84    1
   129    85    86    1
   130    87    86    1
   131   130   129    2
   132   151   150    1
   133   132   131    1
   134    84    81    1
   135    81    82    1
   136   138   129   am
   137   129   128    1
   138   131   128    1
   139   150   147    1
   140    83    82    2
   141    82    88   am
   142   128   127    1
   143   115   116    1
   144   115   112    1
   145   117   116   ar
   146    88    89    1
   147   146   147    1
   148   116   118   ar
   149   147   148    1
   150   108   109    1
   151   108   107    1
   152   111   112    1
   153   111   109   am
   154   112   113    1
   155   126   124   am
   156   109   110    2
   157    89    90    1
   158    89    92    1
   159   107    99   am
   160   148   149    2
   161    91    90    2
   162    90    97   am
   163    92    93    1
   164   124   125    2
   165   124   123    1
   166   113   114    2
   167    97    98    1
   168    99    98    1
   169    99   100    2
   170    93    94    1
   171   123   120    1
   172    98   101    1
   173    94    95    1
   174   119   120    1
   175   120   121    1
   176    95    96    1
   177   101   102    1
   178   121   122    2
   179   102   104   ar
   180   102   103   ar
   181   104   106   ar
   182   103   105   ar
   183   106   105   ar
