@<TRIPOS>MOLECULE
tmp/5eyfB00.pdb
 117 108 0 0 0
SMALL
GASTEIGER

@<TRIPOS>ATOM
      1  N          4.1540   18.3860   37.5020 N.3    20  LYS20      -0.1245
      2  CA         4.3930   17.4900   38.6160 C.3    20  LYS20       0.1561
      3  C          3.1340   16.6920   38.9190 C.2    20  LYS20       0.2260
      4  O          2.0070   17.1630   38.7080 O.2    20  LYS20      -0.2867
      5  CB         4.8310   18.2700   39.8600 C.3    20  LYS20       0.0271
      6  CG         6.0760   19.1640   39.6590 C.3    20  LYS20       0.0035
      7  CD         7.2390   18.4050   39.0410 C.3    20  LYS20       0.0206
      8  CE         8.5640   19.1890   39.1000 C.3    20  LYS20       0.1093
      9  NZ         9.2060   19.2560   40.4470 N.3    20  LYS20      -0.1314
     10  N         11.6260   17.0030   38.5120 N.3    63  SER63      -0.1217
     11  CA        12.7150   17.9510   38.2920 C.3    63  SER63       0.1889
     12  C         13.8320   17.3350   37.4630 C.2    63  SER63       0.2288
     13  O         14.4950   18.0410   36.6960 O.2    63  SER63      -0.2866
     14  CB        13.2560   18.4530   39.6270 C.3    63  SER63       0.2089
     15  OG        12.2110   19.0760   40.3490 O.3    63  SER63      -0.2183
     16  N         12.1560   16.7460   33.5500 N.3    66  ARG66      -0.1245
     17  CA        11.3520   17.7300   32.8310 C.3    66  ARG66       0.1563
     18  C         12.0870   18.2850   31.6100 C.2    66  ARG66       0.2260
     19  O         11.5060   18.3680   30.5210 O.2    66  ARG66      -0.2867
     20  CB        10.8810   18.8450   33.7710 C.3    66  ARG66       0.0307
     21  CG        11.9480   19.6020   34.5140 C.3    66  ARG66       0.0489
     22  CD        11.3080   20.4820   35.5670 C.3    66  ARG66       0.2205
     23  NE        12.3620   21.0270   36.4210 N.pl3  66  ARG66      -0.0865
     24  CZ        12.1900   21.5460   37.6290 C.cat  66  ARG66       0.5346
     25  NH1       10.9760   21.6740   38.1700 N.pl3  66  ARG66       0.1354
     26  NH2       13.2700   21.9480   38.3050 N.pl3  66  ARG66       0.1354
     27  N          6.5940   23.9760   38.8800 N.3    81  THR81      -0.1218
     28  CA         7.3510   24.6850   39.9360 C.3    81  THR81       0.1862
     29  C          8.8000   24.9430   39.5260 C.2    81  THR81       0.2287
     30  O          9.7380   24.7080   40.2890 O.2    81  THR81      -0.2866
     31  CB         7.2970   23.9260   41.2800 C.3    81  THR81       0.1770
     32  OG1        7.9200   22.6210   41.1720 O.3    81  THR81      -0.2211
     33  CG2        5.8520   23.7450   41.7210 C.3    81  THR81       0.0375
     34  N         11.9860   27.1270   38.5150 N.3    82  THR82      -0.1218
     35  CA        12.5890   28.4460   38.6240 C.3    82  THR82       0.1862
     36  C         13.3430   28.8160   37.3530 C.2    82  THR82       0.2287
     37  O         14.0490   27.9830   36.7490 O.2    82  THR82      -0.2866
     38  CB        13.5500   28.4550   39.8230 C.3    82  THR82       0.1770
     39  OG1       12.7980   28.1470   40.9970 O.3    82  THR82      -0.2211
     40  CG2       14.2400   29.8150   39.9930 C.3    82  THR82       0.0375
     41  N         19.5490   27.5270   33.2070 N.3    87  ARG87      -0.1245
     42  CA        18.4740   26.8310   32.5200 C.3    87  ARG87       0.1563
     43  C         18.1320   27.4870   31.1950 C.2    87  ARG87       0.2260
     44  O         17.7150   26.7920   30.2520 O.2    87  ARG87      -0.2867
     45  CB        17.2650   26.7650   33.4360 C.3    87  ARG87       0.0307
     46  CG        17.4410   25.7030   34.5320 C.3    87  ARG87       0.0489
     47  CD        16.3600   25.7590   35.5880 C.3    87  ARG87       0.2205
     48  NE        16.5300   24.7200   36.6110 N.pl3  87  ARG87      -0.0865
     49  CZ        15.7090   24.5530   37.6460 C.cat  87  ARG87       0.5346
     50  NH1       14.6480   25.3580   37.7780 N.pl3  87  ARG87       0.1354
     51  NH2       15.9080   23.5590   38.5180 N.pl3  87  ARG87       0.1354
     52  N         16.4490   19.8630   41.8110 N.3   130  SER130     -0.1202
     53  CA        15.9260   21.1700   42.1800 C.3   130  SER130      0.2020
     54  C         17.0470   22.1910   42.3380 C.2   130  SER130      0.2619
     55  O         18.2230   21.8440   42.4520 O.2   130  SER130     -0.2717
     56  CB        15.1470   21.0830   43.4860 C.3   130  SER130      0.2103
     57  OG        15.9940   20.7680   44.5960 O.3   130  SER130     -0.2182
     58  N         16.6650   23.4760   42.3820 N.am  131  THR131     -0.1938
     59  CA        17.6330   24.4840   42.7790 C.3   131  THR131      0.2028
     60  C         18.1220   24.2760   44.2180 C.2   131  THR131      0.2642
     61  O         19.0820   24.9280   44.6200 O.2   131  THR131     -0.2714
     62  CB        17.0550   25.9070   42.6560 C.3   131  THR131      0.1808
     63  OG1       15.9440   26.0590   43.5500 O.3   131  THR131     -0.2208
     64  CG2       16.6310   26.2410   41.2190 C.3   131  THR131      0.0379
     65  N         17.5500   23.3260   44.9670 N.am  132  SER132     -0.1949
     66  CA        17.5610   23.4050   46.4290 C.3   132  SER132      0.1924
     67  C         18.8630   22.9120   47.0610 C.2   132  SER132      0.2314
     68  O         19.4480   23.6220   47.8860 O.2   132  SER132     -0.2863
     69  CB        16.3630   22.6340   46.9940 C.3   132  SER132      0.2116
     70  OG        15.2050   22.8900   46.2010 O.3   132  SER132     -0.2180
     71  N          9.9650   14.4340   47.2830 N.3   151  TYR151     -0.1241
     72  CA         9.5380   15.1700   48.4660 C.3   151  TYR151      0.1605
     73  C          8.9970   14.2340   49.5290 C.2   151  TYR151      0.2264
     74  O          9.2450   14.4360   50.7190 O.2   151  TYR151     -0.2867
     75  CB         8.4690   16.2030   48.1220 C.3   151  TYR151      0.0534
     76  CG         8.8450   17.2050   47.0810 C.ar  151  TYR151     -0.0201
     77  CD1        9.9750   17.9990   47.2120 C.ar  151  TYR151     -0.0009
     78  CD2        8.0550   17.3710   45.9560 C.ar  151  TYR151     -0.0009
     79  CE1       10.3020   18.9360   46.2350 C.ar  151  TYR151      0.0417
     80  CE2        8.3750   18.3060   44.9820 C.ar  151  TYR151      0.0417
     81  CZ         9.5170   19.0570   45.1170 C.ar  151  TYR151      0.1957
     82  OH         9.8340   20.0030   44.1430 O.3   151  TYR151     -0.2866
     83  N         13.0760   23.1620   50.3400 N.3   167  THR167     -0.1203
     84  CA        12.6600   23.3160   48.9510 C.3   167  THR167      0.1994
     85  C         11.8730   24.6200   48.9550 C.2   167  THR167      0.2617
     86  O         12.0290   25.4160   49.8930 O.2   167  THR167     -0.2717
     87  CB        11.8590   22.1090   48.4020 C.3   167  THR167      0.1784
     88  OG1       11.4840   22.3540   47.0320 O.3   167  THR167     -0.2211
     89  CG2       10.5820   21.8300   49.1980 C.3   167  THR167      0.0376
     90  N         11.0830   24.8840   47.9260 N.am  168  ASP168     -0.1973
     91  CA        10.4450   26.1860   47.8360 C.3   168  ASP168      0.1709
     92  C          9.4010   26.3310   48.9350 C.2   168  ASP168      0.2293
     93  O          8.6970   25.3750   49.2710 O.2   168  ASP168     -0.2864
     94  CB         9.7670   26.3700   46.4830 C.3   168  ASP168      0.1436
     95  CG        10.7330   26.3650   45.2990 C.2   168  ASP168      0.3671
     96  OD1       11.9610   26.5080   45.5160 O.co2 168  ASP168     -0.2456
     97  OD2       10.2380   26.1940   44.1300 O.co2 168  ASP168     -0.2456
     98  N          5.9440   24.9780   48.2170 N.3   171  ILE171     -0.1245
     99  CA         5.8880   23.5240   48.2280 C.3   171  ILE171      0.1561
    100  C          5.8650   23.0110   49.6560 C.2   171  ILE171      0.2260
    101  O          5.0770   22.1170   49.9910 O.2   171  ILE171     -0.2867
    102  CB         7.0670   22.9440   47.4370 C.3   171  ILE171      0.0252
    103  CG1        6.9760   23.4150   45.9720 C.3   171  ILE171      0.0019
    104  CG2        7.0980   21.4070   47.5680 C.3   171  ILE171      0.0019
    105  CD1        8.1760   23.0640   45.1180 C.3   171  ILE171      0.0001
    106  N          8.9330   31.3430   39.2100 N.3   194  TYR194     -0.1241
    107  CA         8.5940   30.2400   38.3180 C.3   194  TYR194      0.1605
    108  C          8.2620   30.7480   36.9210 C.2   194  TYR194      0.2264
    109  O          7.5450   31.7460   36.7580 O.2   194  TYR194     -0.2867
    110  CB         7.3710   29.4850   38.8250 C.3   194  TYR194      0.0534
    111  CG         7.4960   28.7820   40.1470 C.ar  194  TYR194     -0.0201
    112  CD1        8.7310   28.6130   40.7770 C.ar  194  TYR194     -0.0009
    113  CD2        6.3660   28.2310   40.7410 C.ar  194  TYR194     -0.0009
    114  CE1        8.8110   27.9420   41.9870 C.ar  194  TYR194      0.0417
    115  CE2        6.4350   27.5580   41.9350 C.ar  194  TYR194      0.0417
    116  CZ         7.6580   27.4190   42.5600 C.ar  194  TYR194      0.1957
    117  OH         7.7060   26.7190   43.7630 O.3   194  TYR194     -0.2866
@<TRIPOS>BOND
     1    44    43    2
     2    19    18    2
     3    43    42    1
     4    18    17    1
     5    42    41    1
     6    42    45    1
     7    17    16    1
     8    17    20    1
     9    45    46    1
    10    20    21    1
    11    21    22    1
    12    46    47    1
    13    22    23    1
    14    47    48    1
    15    23    24    2
    16    48    49    2
    17    13    12    2
    18    37    36    2
    19   109   108    2
    20   108   107    1
    21    36    35    1
    22    12    11    1
    23     1     2    1
    24    24    25    1
    25    24    26    1
    26    49    50    1
    27    49    51    1
    28    11    10    1
    29    11    14    1
    30   107   110    1
    31   107   106    1
    32    34    35    1
    33     2     3    1
    34     2     5    1
    35    35    38    1
    36     4     3    2
    37   110   111    1
    38    27    28    1
    39     7     8    1
    40     7     6    1
    41     8     9    1
    42    29    28    1
    43    29    30    2
    44    14    15    1
    45     6     5    1
    46    38    40    1
    47    38    39    1
    48    28    31    1
    49   111   113   ar
    50   111   112   ar
    51   113   115   ar
    52   112   114   ar
    53    32    31    1
    54    64    62    1
    55    31    33    1
    56    52    53    1
    57   115   116   ar
    58   114   116   ar
    59    53    54    1
    60    53    56    1
    61    54    58   am
    62    54    55    2
    63    58    59    1
    64   116   117    1
    65    62    59    1
    66    62    63    1
    67    59    60    1
    68    56    57    1
    69    97    95   ar
    70    82    81    1
    71    60    61    2
    72    60    65   am
    73    65    66    1
    74    80    81   ar
    75    80    78   ar
    76    81    79   ar
    77   105   103    1
    78    95    96   ar
    79    95    94    1
    80    78    76   ar
    81   103   102    1
    82    70    69    1
    83    79    77   ar
    84    66    69    1
    85    66    67    1
    86    94    91    1
    87    88    87    1
    88    67    68    2
    89    76    77   ar
    90    76    75    1
    91    71    72    1
    92   102   104    1
    93   102    99    1
    94    91    90    1
    95    91    92    1
    96    90    85   am
    97    75    72    1
    98    98    99    1
    99    99   100    1
   100    87    84    1
   101    87    89    1
   102    72    73    1
   103    92    93    2
   104    84    85    1
   105    84    83    1
   106    85    86    2
   107    73    74    2
   108   100   101    2
