@<TRIPOS>MOLECULE
tmp/5eygA02.pdb
 106 106 0 0 0
SMALL
GASTEIGER

@<TRIPOS>ATOM
      1  N         39.8620   11.2790   49.6010 N.3     1  MET1       -0.1245
      2  CA        40.7140   11.8750   48.5220 C.3     1  MET1        0.1570
      3  C         40.6280   13.3880   48.3990 C.2     1  MET1        0.2261
      4  O         39.5460   13.9380   48.4110 O.2     1  MET1       -0.2867
      5  CB        40.3320   11.2800   47.1850 C.3     1  MET1        0.0387
      6  CG        41.3440   11.5600   46.0930 C.3     1  MET1        0.0595
      7  SD        41.8710   10.0230   45.3140 S.3     1  MET1       -0.1393
      8  CE        40.3080    9.3050   45.0390 C.3     1  MET1        0.0692
      9  N         45.1230   15.7960   44.8730 N.3     5  THR5       -0.1218
     10  CA        45.4180   14.5020   44.2850 C.3     5  THR5        0.1862
     11  C         44.6230   14.1870   42.9820 C.2     5  THR5        0.2287
     12  O         45.1750   13.6670   42.0040 O.2     5  THR5       -0.2866
     13  CB        45.1950   13.3900   45.2900 C.3     5  THR5        0.1770
     14  OG1       45.9120   13.7160   46.4960 O.3     5  THR5       -0.2211
     15  CG2       45.6790   12.0510   44.7490 C.3     5  THR5        0.0375
     16  N         46.1240   13.2700   39.1930 N.3     9  ILE9       -0.1245
     17  CA        45.8060   12.0720   38.4140 C.3     9  ILE9        0.1561
     18  C         45.1710   12.5720   37.0980 C.2     9  ILE9        0.2260
     19  O         45.5260   12.0740   36.0240 O.2     9  ILE9       -0.2867
     20  CB        44.8290   11.1900   39.1670 C.3     9  ILE9        0.0252
     21  CG1       45.4720   10.7210   40.4650 C.3     9  ILE9        0.0019
     22  CG2       44.3910   10.0270   38.2850 C.3     9  ILE9        0.0019
     23  CD1       44.5540    9.9680   41.3780 C.3     9  ILE9        0.0001
     24  N         53.0450    4.9870   36.6130 N.3    52  TYR52      -0.1227
     25  CA        52.6580    6.1560   37.3920 C.3    52  TYR52       0.1736
     26  C         51.9140    5.8280   38.6240 C.2    52  TYR52       0.2595
     27  O         51.9910    6.5790   39.5180 O.2    52  TYR52      -0.2718
     28  CB        51.7840    7.0990   36.5540 C.3    52  TYR52       0.0548
     29  CG        52.5670    7.6830   35.4070 C.ar   52  TYR52      -0.0200
     30  CD1       53.3530    8.8200   35.5880 C.ar   52  TYR52      -0.0009
     31  CD2       52.5000    7.1200   34.1390 C.ar   52  TYR52      -0.0009
     32  CE1       54.0190    9.3960   34.5210 C.ar   52  TYR52       0.0417
     33  CE2       53.2360    7.6500   33.0700 C.ar   52  TYR52       0.0417
     34  CZ        53.9880    8.7760   33.2850 C.ar   52  TYR52       0.1957
     35  OH        54.7230    9.3230   32.2650 O.3    52  TYR52      -0.2866
     36  N         51.1830    4.7100   38.6650 N.am   53  PHE53      -0.1963
     37  CA        50.2890    4.3740   39.7490 C.3    53  PHE53       0.1756
     38  C         50.4060    2.8910   40.0490 C.2    53  PHE53       0.2461
     39  O         49.4250    2.1550   39.9260 O.2    53  PHE53      -0.2730
     40  CB        48.8360    4.7210   39.4490 C.3    53  PHE53       0.0574
     41  CG        48.6380    6.1620   39.1730 C.ar   53  PHE53      -0.0200
     42  CD1       48.6840    7.0920   40.2150 C.ar   53  PHE53      -0.0042
     43  CD2       48.4930    6.5850   37.8760 C.ar   53  PHE53      -0.0042
     44  CE1       48.5720    8.4360   39.9610 C.ar   53  PHE53      -0.0003
     45  CE2       48.3570    7.9120   37.6080 C.ar   53  PHE53      -0.0003
     46  CZ        48.4210    8.8530   38.6520 C.ar   53  PHE53      -0.0000
     47  N         51.5780    2.4970   40.5850 N.am   54  PRO54      -0.2716
     48  CA        51.8580    1.1130   40.8070 C.3    54  PRO54       0.1536
     49  C         50.8230    0.3510   41.6970 C.2    54  PRO54       0.2598
     50  O         50.7980   -0.8500   41.5220 O.2    54  PRO54      -0.2715
     51  CB        53.2560    1.1060   41.5040 C.3    54  PRO54       0.0310
     52  CG        53.7060    2.5290   41.6480 C.3    54  PRO54       0.0237
     53  CD        52.5680    3.4090   41.2240 C.3    54  PRO54       0.0939
     54  N         50.1150    1.0510   42.5950 N.am   55  GLU55      -0.1964
     55  CA        49.1150    0.3760   43.4470 C.3    55  GLU55       0.1733
     56  C         47.8050    0.1270   42.6990 C.2    55  GLU55       0.2616
     57  O         46.9990   -0.6230   43.1610 O.2    55  GLU55      -0.2715
     58  CB        48.9220    1.0600   44.8070 C.3    55  GLU55       0.0429
     59  CG        50.2370    1.2030   45.5800 C.3    55  GLU55       0.1163
     60  CD        50.0850    1.8220   46.9950 C.2    55  GLU55       0.3649
     61  OE1       48.9230    2.0790   47.4500 O.co2  55  GLU55      -0.2457
     62  OE2       51.1530    2.0610   47.6680 O.co2  55  GLU55      -0.2457
     63  N         47.6070    0.8050   41.5780 N.am   56  HIS56      -0.1973
     64  CA        46.2760    0.8120   40.9380 C.3    56  HIS56       0.1656
     65  C         46.0580   -0.4570   40.1550 C.2    56  HIS56       0.2291
     66  O         46.9230   -0.9620   39.5440 O.2    56  HIS56      -0.2864
     67  CB        46.1290    2.0130   40.0630 C.3    56  HIS56       0.0771
     68  CG        46.0470    3.2900   40.8170 C.ar   56  HIS56       0.0820
     69  ND1       45.5010    4.4330   40.2870 N.ar   56  HIS56      -0.2267
     70  CD2       46.4560    3.6260   42.0640 C.ar   56  HIS56       0.1154
     71  CE1       45.5800    5.4220   41.1580 C.ar   56  HIS56       0.1986
     72  NE2       46.1220    4.9520   42.2550 N.ar   56  HIS56      -0.2212
     73  N         42.1000    0.8820   44.8660 N.3    74  HIS74      -0.1241
     74  CA        42.4100    1.7420   43.7170 C.3    74  HIS74       0.1621
     75  C         42.1370    0.9880   42.4190 C.2    74  HIS74       0.2264
     76  O         42.9610    0.1290   42.0460 O.2    74  HIS74      -0.2867
     77  CB        43.8860    2.1080   43.7730 C.3    74  HIS74       0.0745
     78  CG        44.3780    2.5050   45.1300 C.ar   74  HIS74       0.0817
     79  ND1       44.5470    3.8290   45.5080 N.ar   74  HIS74      -0.2268
     80  CD2       44.8800    1.7710   46.1430 C.ar   74  HIS74       0.1154
     81  CE1       45.0460    3.8830   46.7280 C.ar   74  HIS74       0.1986
     82  NE2       45.2590    2.6530   47.1350 N.ar   74  HIS74      -0.2212
     83  N         37.9250    5.7730   37.2950 N.3   100  TYR100     -0.1241
     84  CA        38.6360    5.4430   38.5140 C.3   100  TYR100      0.1605
     85  C         37.7100    5.4290   39.6960 C.2   100  TYR100      0.2264
     86  O         36.9020    6.3570   39.9600 O.2   100  TYR100     -0.2867
     87  CB        39.7100    6.5050   38.7270 C.3   100  TYR100      0.0534
     88  CG        40.5610    6.2890   39.9600 C.ar  100  TYR100     -0.0201
     89  CD1       41.1990    5.0820   40.1490 C.ar  100  TYR100     -0.0009
     90  CD2       40.6840    7.2550   40.9230 C.ar  100  TYR100     -0.0009
     91  CE1       41.9760    4.8480   41.2700 C.ar  100  TYR100      0.0417
     92  CE2       41.4570    7.0450   42.0830 C.ar  100  TYR100      0.0417
     93  CZ        42.1260    5.8270   42.2150 C.ar  100  TYR100      0.1957
     94  OH        42.9230    5.3670   43.2820 O.3   100  TYR100     -0.2866
     95  N         37.7840    4.8530   43.8880 N.3   102  TYR102     -0.1241
     96  CA        38.6160    4.8550   45.0950 C.3   102  TYR102      0.1605
     97  C         37.8240    4.3530   46.2580 C.2   102  TYR102      0.2264
     98  O         36.8180    4.9760   46.6290 O.2   102  TYR102     -0.2867
     99  CB        39.1370    6.2560   45.4490 C.3   102  TYR102      0.0534
    100  CG        39.9480    6.2230   46.7420 C.ar  102  TYR102     -0.0201
    101  CD1       41.1350    5.5030   46.8030 C.ar  102  TYR102     -0.0009
    102  CD2       39.5280    6.9130   47.8900 C.ar  102  TYR102     -0.0009
    103  CE1       41.8970    5.4520   47.9660 C.ar  102  TYR102      0.0417
    104  CE2       40.3090    6.9040   49.0490 C.ar  102  TYR102      0.0417
    105  CZ        41.4910    6.1740   49.0630 C.ar  102  TYR102      0.1957
    106  OH        42.2400    6.0890   50.1660 O.3   102  TYR102     -0.2866
@<TRIPOS>BOND
     1    35    34    1
     2    33    34   ar
     3    33    31   ar
     4    34    32   ar
     5    31    29   ar
     6    32    30   ar
     7    29    30   ar
     8    29    28    1
     9    19    18    2
    10    28    25    1
    11    24    25    1
    12    18    17    1
    13    83    84    1
    14    25    26    1
    15    45    43   ar
    16    45    46   ar
    17    43    41   ar
    18    22    20    1
    19    17    20    1
    20    17    16    1
    21    84    87    1
    22    84    85    1
    23    26    36   am
    24    26    27    2
    25    46    44   ar
    26    36    37    1
    27    87    88    1
    28    20    21    1
    29    41    40    1
    30    41    42   ar
    31    40    37    1
    32    66    65    2
    33    85    86    2
    34    37    38    1
    35    39    38    2
    36    88    89   ar
    37    88    90   ar
    38    44    42   ar
    39    38    47   am
    40    67    68    1
    41    67    64    1
    42    89    91   ar
    43    65    64    1
    44    69    68   ar
    45    69    71   ar
    46    21    23    1
    47    47    48    1
    48    47    53    1
    49    48    51    1
    50    48    49    1
    51    68    70   ar
    52    90    92   ar
    53    64    63    1
    54    71    72   ar
    55    53    52    1
    56    91    93   ar
    57    51    52    1
    58    50    49    2
    59    63    56   am
    60    49    54   am
    61    12    11    2
    62    76    75    2
    63    70    72   ar
    64    92    93   ar
    65    93    94    1
    66    75    74    1
    67    54    55    1
    68    56    57    2
    69    56    55    1
    70    11    10    1
    71    55    58    1
    72    74    77    1
    73    74    73    1
    74    77    78    1
    75    95    96    1
    76    10     9    1
    77    10    13    1
    78    15    13    1
    79    58    59    1
    80     8     7    1
    81    96    99    1
    82    96    97    1
    83    78    79   ar
    84    78    80   ar
    85    13    14    1
    86     7     6    1
    87    99   100    1
    88    79    81   ar
    89    59    60    1
    90     6     5    1
    91    80    82   ar
    92    97    98    2
    93    81    82   ar
    94   100   101   ar
    95   100   102   ar
    96   101   103   ar
    97    60    61   ar
    98    60    62   ar
    99     5     2    1
   100   102   104   ar
   101   103   105   ar
   102     3     4    2
   103     3     2    1
   104     2     1    1
   105   104   105   ar
   106   105   106    1
