@<TRIPOS>MOLECULE
tmp/5eygB02.pdb
 172 164 0 0 0
SMALL
GASTEIGER

@<TRIPOS>ATOM
      1  N         10.9440   24.6340   16.0090 N.3    40  PHE40      -0.1241
      2  CA        10.8040   24.1780   14.6470 C.3    40  PHE40       0.1605
      3  C         10.4590   25.3400   13.7440 C.2    40  PHE40       0.2264
      4  O         10.9640   25.3750   12.6610 O.2    40  PHE40      -0.2867
      5  CB         9.8170   23.0200   14.4600 C.3    40  PHE40       0.0534
      6  CG        10.3690   21.6820   14.8870 C.ar   40  PHE40      -0.0203
      7  CD1       11.0260   20.8610   13.9680 C.ar   40  PHE40      -0.0042
      8  CD2       10.1990   21.2210   16.2220 C.ar   40  PHE40      -0.0042
      9  CE1       11.5240   19.6260   14.3600 C.ar   40  PHE40      -0.0003
     10  CE2       10.6830   19.9900   16.6130 C.ar   40  PHE40      -0.0003
     11  CZ        11.3520   19.1850   15.6740 C.ar   40  PHE40      -0.0000
     12  N         12.1830   23.6170   -0.8850 N.3    70  GLU70      -0.1245
     13  CA        10.9360   23.4500   -0.1210 C.3    70  GLU70       0.1567
     14  C         10.2190   24.7470    0.1500 C.2    70  GLU70       0.2260
     15  O          8.9780   24.8050    0.1410 O.2    70  GLU70      -0.2867
     16  CB        11.1510   22.7130    1.2050 C.3    70  GLU70       0.0388
     17  CG         9.8680   22.4540    1.9940 C.3    70  GLU70       0.1160
     18  CD        10.0710   21.4540    3.1200 C.2    70  GLU70       0.3649
     19  OE1       11.2190   21.2760    3.5950 O.co2  70  GLU70      -0.2457
     20  OE2        9.0710   20.8720    3.5590 O.co2  70  GLU70      -0.2457
     21  N         18.4160   21.6900   -0.1800 N.3    88  ASP88      -0.1239
     22  CA        17.8670   21.5260    1.1460 C.3    88  ASP88       0.1674
     23  C         18.7390   22.3450    2.1070 C.2    88  ASP88       0.2266
     24  O         19.8360   21.9190    2.4520 O.2    88  ASP88      -0.2867
     25  CB        17.8350   20.0820    1.5970 C.3    88  ASP88       0.1410
     26  CG        16.9650   19.9100    2.8210 C.2    88  ASP88       0.3668
     27  OD1       16.6390   20.9100    3.4700 O.co2  88  ASP88      -0.2456
     28  OD2       16.6430   18.7430    3.1130 O.co2  88  ASP88      -0.2456
     29  N         18.5770   23.1220    5.3120 N.3    90  ILE90      -0.1231
     30  CA        18.8480   22.3550    6.5020 C.3    90  ILE90       0.1692
     31  C         18.2330   20.9910    6.3960 C.2    90  ILE90       0.2592
     32  O         17.0080   20.8930    6.4190 O.2    90  ILE90      -0.2718
     33  CB        18.2160   23.0500    7.7540 C.3    90  ILE90       0.0266
     34  CG1       18.8850   24.3980    8.0820 C.3    90  ILE90       0.0019
     35  CG2       18.3120   22.1400    8.9910 C.3    90  ILE90       0.0020
     36  CD1       20.3470   24.1630    8.4990 C.3    90  ILE90       0.0001
     37  N         19.0280   19.9430    6.2010 N.am   91  ASP91      -0.1960
     38  CA        18.4860   18.6100    6.1540 C.3    91  ASP91       0.1840
     39  C         18.7560   18.0130    7.5090 C.2    91  ASP91       0.2623
     40  O         19.9110   17.9450    7.9160 O.2    91  ASP91      -0.2715
     41  CB        19.1920   17.8220    5.0310 C.3    91  ASP91       0.1450
     42  CG        18.7380   16.3930    4.9650 C.2    91  ASP91       0.3671
     43  OD1       17.5160   16.1720    4.9610 O.co2  91  ASP91      -0.2456
     44  OD2       19.6080   15.4900    5.0280 O.co2  91  ASP91      -0.2456
     45  N         17.7720   17.4370    8.1500 N.am   92  GLY92      -0.1940
     46  CA        17.9630   16.9110    9.5080 C.3    92  GLY92       0.2014
     47  C         17.4530   17.8180   10.6010 C.2    92  GLY92       0.2640
     48  O         18.1240   18.0590   11.6440 O.2    92  GLY92      -0.2714
     49  N         16.2540   18.2960   10.3850 N.am   93  THR93      -0.1936
     50  CA        15.6990   19.3700   11.1760 C.3    93  THR93       0.2028
     51  C         15.5290   18.9230   12.6410 C.2    93  THR93       0.2642
     52  O         15.8260   19.6550   13.6040 O.2    93  THR93      -0.2714
     53  CB        14.3570   19.7610   10.5520 C.3    93  THR93       0.1808
     54  OG1       14.6030   20.1970    9.2180 O.3    93  THR93      -0.2208
     55  CG2       13.7530   20.8720   11.2980 C.3    93  THR93       0.0379
     56  N         15.0750   17.7080   12.8000 N.am   94  ALA94      -0.1963
     57  CA        14.8260   17.1630   14.1330 C.3    94  ALA94       0.1728
     58  C         16.1460   17.0650   14.8670 C.2    94  ALA94       0.2616
     59  O         16.1970   17.4510   16.0140 O.2    94  ALA94      -0.2715
     60  CB        14.0730   15.8200   14.1080 C.3    94  ALA94       0.0334
     61  N         17.2360   16.6350   14.2030 N.am   95  ASN95      -0.1972
     62  CA        18.5460   16.5970   14.8400 C.3    95  ASN95       0.1688
     63  C         19.0240   18.0060   15.1750 C.2    95  ASN95       0.2292
     64  O         19.6160   18.2140   16.2410 O.2    95  ASN95      -0.2864
     65  CB        19.5140   15.9210   13.9060 C.3    95  ASN95       0.1181
     66  CG        19.3260   14.4090   13.8680 C.2    95  ASN95       0.2629
     67  OD1       18.6830   13.7890   14.7570 O.2    95  ASN95      -0.2716
     68  ND2       19.9620   13.7960   12.8780 N.am   95  ASN95      -0.0877
     69  N         14.7760    4.1800    8.4640 N.3   160  ASN160     -0.1240
     70  CA        13.7930    4.5720    9.5070 C.3   160  ASN160      0.1653
     71  C         12.9320    3.3610    9.7810 C.2   160  ASN160      0.2266
     72  O         12.0670    2.9880    8.9790 O.2   160  ASN160     -0.2867
     73  CB        12.9580    5.7680    9.0570 C.3   160  ASN160      0.1155
     74  CG        12.1050    6.3550   10.1760 C.2   160  ASN160      0.2627
     75  OD1       11.8900    5.7600   11.2270 O.2   160  ASN160     -0.2716
     76  ND2       11.5770    7.5150    9.9160 N.am  160  ASN160     -0.0877
     77  N         10.5830    3.0880   11.9500 N.3   162  GLN162     -0.1231
     78  CA         9.2180    3.4350   12.4160 C.3   162  GLN162      0.1698
     79  C          8.1860    3.5670   11.2740 C.2   162  GLN162      0.2592
     80  O          7.0210    3.7400   11.5200 O.2   162  GLN162     -0.2718
     81  CB         9.2190    4.8180   13.1220 C.3   162  GLN162      0.0381
     82  CG        10.3030    4.9470   14.1870 C.3   162  GLN162      0.0905
     83  CD        10.2090    6.1830   15.0540 C.2   162  GLN162      0.2608
     84  OE1       11.1770    6.8790   15.2080 O.2   162  GLN162     -0.2717
     85  NE2        9.0750    6.4380   15.6290 N.am  162  GLN162     -0.0878
     86  N          8.6370    3.4250   10.0350 N.am  163  VAL163     -0.1966
     87  CA         7.8390    3.6820    8.8990 C.3   163  VAL163      0.1727
     88  C          7.6460    2.3760    8.0890 C.2   163  VAL163      0.2616
     89  O          7.1120    2.4170    6.9980 O.2   163  VAL163     -0.2715
     90  CB         8.6490    4.8360    8.2410 C.3   163  VAL163      0.0290
     91  CG1        9.2810    4.4480    6.9400 C.3   163  VAL163      0.0023
     92  CG2        7.8620    6.1140    8.2550 C.3   163  VAL163      0.0023
     93  N          8.1530    1.2800    8.5820 N.am  164  MET164     -0.1977
     94  CA         8.0510   -0.0060    7.9200 C.3   164  MET164      0.1605
     95  C          7.3700   -0.9920    8.8400 C.2   164  MET164      0.2287
     96  O          7.3320   -0.8220   10.0630 O.2   164  MET164     -0.2864
     97  CB         9.3900   -0.5730    7.5360 C.3   164  MET164      0.0413
     98  CG        10.2890    0.2420    6.6520 C.3   164  MET164      0.0598
     99  SD        11.8300   -0.7020    6.3370 S.3   164  MET164     -0.1393
    100  CE        12.6210    0.4950    5.3180 C.3   164  MET164      0.0692
    101  N         20.0360   10.0380   11.0860 N.3   183  GLY183     -0.1225
    102  CA        18.7650   10.7830   11.0730 C.3   183  GLY183      0.1811
    103  C         18.7570   12.0070   10.1500 C.2   183  GLY183      0.2280
    104  O         17.8520   12.8420   10.2330 O.2   183  GLY183     -0.2866
    105  N         19.1120   12.4760    5.9770 N.3   185  CYS185     -0.1235
    106  CA        19.2640   11.7650    4.6770 C.3   185  CYS185      0.1677
    107  C         20.6340   12.0020    4.0550 C.2   185  CYS185      0.2270
    108  O         21.2920   11.0250    3.6250 O.2   185  CYS185     -0.2867
    109  CB        18.1760   12.1720    3.6690 C.3   185  CYS185      0.0956
    110  SG        18.1480   11.0130    2.2640 S.3   185  CYS185     -0.0801
    111  N         18.2190    3.6660    3.3970 N.3   201  ILE201     -0.1231
    112  CA        16.9250    3.7340    2.7790 C.3   201  ILE201      0.1692
    113  C         16.0720    4.8950    3.3190 C.2   201  ILE201      0.2592
    114  O         16.0550    5.1580    4.5240 O.2   201  ILE201     -0.2718
    115  CB        16.1240    2.4370    3.1300 C.3   201  ILE201      0.0266
    116  CG1       16.8720    1.2080    2.6490 C.3   201  ILE201      0.0019
    117  CG2       14.7310    2.4920    2.5290 C.3   201  ILE201      0.0020
    118  CD1       16.6410   -0.0840    3.4660 C.3   201  ILE201      0.0001
    119  N         15.3830    5.5860    2.4320 N.am  202  ASN202     -0.1960
    120  CA        14.3300    6.4920    2.8690 C.3   202  ASN202      0.1819
    121  C         13.1180    6.2540    1.9940 C.2   202  ASN202      0.2622
    122  O         13.2070    6.4610    0.7580 O.2   202  ASN202     -0.2715
    123  CB        14.7750    7.9600    2.7210 C.3   202  ASN202      0.1195
    124  CG        13.7190    8.9780    3.2060 C.2   202  ASN202      0.2630
    125  OD1       12.5220    8.8650    2.9550 O.2   202  ASN202     -0.2716
    126  ND2       14.1950    9.9920    3.9190 N.am  202  ASN202     -0.0877
    127  N         12.0080    5.8450    2.5830 N.am  203  THR203     -0.1937
    128  CA        10.8590    5.3700    1.8260 C.3   203  THR203      0.2028
    129  C          9.9790    6.4930    1.3080 C.2   203  THR203      0.2642
    130  O          9.0660    6.2250    0.5520 O.2   203  THR203     -0.2714
    131  CB         9.9910    4.3790    2.6280 C.3   203  THR203      0.1808
    132  OG1        9.4830    5.0680    3.7590 O.3   203  THR203     -0.2208
    133  CG2       10.8070    3.1620    3.1020 C.3   203  THR203      0.0379
    134  N         10.2930    7.7370    1.6330 N.am  204  ASN204     -0.1971
    135  CA         9.5230    8.8010    1.0840 C.3   204  ASN204      0.1688
    136  C         10.2530   10.1520    1.0360 C.2   204  ASN204      0.2292
    137  O          9.8610   11.1050    1.7240 O.2   204  ASN204     -0.2864
    138  CB         8.2300    8.9190    1.8710 C.3   204  ASN204      0.1181
    139  CG         7.2480    9.8650    1.2000 C.2   204  ASN204      0.2629
    140  OD1        7.2690   10.0150   -0.0200 O.2   204  ASN204     -0.2716
    141  ND2        6.5030   10.6040    1.9940 N.am  204  ASN204     -0.0877
    142  N         11.8160   13.8020   -0.3550 N.3   206  LYS206     -0.1245
    143  CA        11.5840   14.8940   -1.2920 C.3   206  LYS206      0.1561
    144  C         12.7750   15.0240   -2.2040 C.2   206  LYS206      0.2260
    145  O         13.8390   14.4940   -1.8910 O.2   206  LYS206     -0.2867
    146  CB        11.3610   16.1570   -0.5010 C.3   206  LYS206      0.0271
    147  CG        10.2070   16.0470    0.4800 C.3   206  LYS206      0.0035
    148  CD         8.9300   16.0110   -0.3300 C.3   206  LYS206      0.0206
    149  CE         7.7020   16.0170    0.5520 C.3   206  LYS206      0.1093
    150  NZ         6.5770   15.8480   -0.4050 N.3   206  LYS206     -0.1314
    151  N         14.8620   17.4010   -2.6880 N.3   208  TRP208     -0.1227
    152  CA        15.9710   18.0180   -1.9930 C.3   208  TRP208      0.1737
    153  C         16.7020   17.1250   -0.9870 C.2   208  TRP208      0.2595
    154  O         17.8350   17.4020   -0.6930 O.2   208  TRP208     -0.2718
    155  CB        15.5880   19.3780   -1.3850 C.3   208  TRP208      0.0564
    156  CG        14.2840   19.3660   -0.6830 C.ar  208  TRP208      0.0003
    157  CD1       14.0510   19.0050    0.6020 C.ar  208  TRP208      0.0946
    158  CD2       13.0260   19.7050   -1.2450 C.ar  208  TRP208      0.0152
    159  NE1       12.7110   19.0880    0.8840 N.ar  208  TRP208     -0.2442
    160  CE2       12.0590   19.5250   -0.2400 C.ar  208  TRP208      0.0810
    161  CE3       12.6220   20.1710   -2.5070 C.ar  208  TRP208      0.0012
    162  CZ2       10.7080   19.7550   -0.4470 C.ar  208  TRP208      0.0191
    163  CZ3       11.2540   20.4120   -2.7160 C.ar  208  TRP208      0.0001
    164  CH2       10.3280   20.2100   -1.6830 C.ar  208  TRP208      0.0015
    165  N         16.0200   16.1340   -0.4240 N.am  209  ASP209     -0.1974
    166  CA        16.6550   15.1760    0.4740 C.3   209  ASP209      0.1709
    167  C         17.7020   14.3270   -0.2550 C.2   209  ASP209      0.2293
    168  O         18.5840   13.7930    0.3710 O.2   209  ASP209     -0.2864
    169  CB        15.6070   14.1860    1.0230 C.3   209  ASP209      0.1436
    170  CG        14.5720   14.8390    1.9020 C.2   209  ASP209      0.3671
    171  OD1       14.9290   15.8060    2.6260 O.co2 209  ASP209     -0.2456
    172  OD2       13.3860   14.3860    1.8510 O.co2 209  ASP209     -0.2456
@<TRIPOS>BOND
     1   163   161   ar
     2   163   164   ar
     3   151   152    1
     4   161   158   ar
     5   144   145    2
     6   144   143    1
     7   152   155    1
     8   152   153    1
     9   164   162   ar
    10   155   156    1
    11   143   146    1
    12   143   142    1
    13   158   156   ar
    14   158   160   ar
    15   153   154    2
    16   153   165   am
    17    12    13    1
    18   156   157   ar
    19   146   147    1
    20   162   160   ar
    21   165   166    1
    22   150   149    1
    23   148   147    1
    24   148   149    1
    25   167   168    2
    26   167   166    1
    27   160   159   ar
    28    21    22    1
    29    13    14    1
    30    13    16    1
    31   140   139    2
    32    15    14    2
    33   166   169    1
    34   130   129    2
    35   157   159   ar
    36   122   121    2
    37   169   170    1
    38   136   135    1
    39   136   137    2
    40   135   134    1
    41   135   138    1
    42    22    25    1
    43    22    23    1
    44   139   138    1
    45   139   141   am
    46    16    17    1
    47   129   134   am
    48   129   128    1
    49    25    26    1
    50   128   127    1
    51   128   131    1
    52   172   170   ar
    53   170   171   ar
    54    17    18    1
    55   121   127   am
    56   121   120    1
    57    23    24    2
    58   110   109    1
    59   119   120    1
    60   119   113   am
    61   117   115    1
    62   131   133    1
    63   131   132    1
    64   116   115    1
    65   116   118    1
    66   123   120    1
    67   123   124    1
    68   112   115    1
    69   112   113    1
    70   112   111    1
    71    26    28   ar
    72    26    27   ar
    73   125   124    2
    74    18    20   ar
    75    18    19   ar
    76   124   126   am
    77   113   114    2
    78   108   107    2
    79   109   106    1
    80   107   106    1
    81   106   105    1
    82    43    42   ar
    83    42    44   ar
    84    42    41    1
    85    41    38    1
    86    29    30    1
    87   100    99    1
    88    38    37    1
    89    38    39    1
    90    37    31   am
    91    99    98    1
    92    31    32    2
    93    31    30    1
    94    30    33    1
    95    98    97    1
    96    91    90    1
    97    89    88    2
    98    39    40    2
    99    39    45   am
   100    97    94    1
   101    33    34    1
   102    33    35    1
   103    94    93    1
   104    94    95    1
   105    34    36    1
   106    88    93   am
   107    88    87    1
   108    45    46    1
   109    90    92    1
   110    90    87    1
   111    69    70    1
   112    95    96    2
   113    87    86    1
   114    72    71    2
   115    73    70    1
   116    73    74    1
   117    54    53    1
   118    70    71    1
   119    46    47    1
   120    76    74   am
   121    86    79   am
   122   103   104    2
   123   103   102    1
   124    74    75    2
   125    49    47   am
   126    49    50    1
   127    53    50    1
   128    53    55    1
   129    47    48    2
   130   102   101    1
   131    50    51    1
   132    79    80    2
   133    79    78    1
   134    77    78    1
   135    78    81    1
   136    51    56   am
   137    51    52    2
   138     4     3    2
   139    56    57    1
   140    68    66   am
   141    81    82    1
   142     3     2    1
   143    66    65    1
   144    66    67    2
   145    65    62    1
   146     7     9   ar
   147     7     6   ar
   148    60    57    1
   149    57    58    1
   150    82    83    1
   151    61    62    1
   152    61    58   am
   153     9    11   ar
   154     5     2    1
   155     5     6    1
   156     2     1    1
   157    62    63    1
   158    58    59    2
   159     6     8   ar
   160    83    84    2
   161    83    85   am
   162    63    64    2
   163    11    10   ar
   164     8    10   ar
