@<TRIPOS>MOLECULE
tmp/5eyiA00.pdb
 81 75 0 0 0
SMALL
GASTEIGER

@<TRIPOS>ATOM
      1  N         23.6370    9.3500   14.9270 N.3     1  SER1       -0.1202
      2  CA        22.6190    8.5910   15.7220 C.3     1  SER1        0.2020
      3  C         21.5130    9.5440   16.1800 C.2     1  SER1        0.2619
      4  O         21.1890   10.4980   15.4630 O.2     1  SER1       -0.2717
      5  CB        23.2910    7.8960   16.9160 C.3     1  SER1        0.2103
      6  OG        22.4600    7.0570   17.6810 O.3     1  SER1       -0.2182
      7  N         20.9240    9.2780   17.3470 N.am    2  GLY2       -0.1956
      8  CA        20.0230   10.2280   17.9900 C.3     2  GLY2        0.1869
      9  C         19.1030    9.5770   19.0020 C.2     2  GLY2        0.2309
     10  O         19.5040    8.6320   19.6990 O.2     2  GLY2       -0.2863
     11  N         16.4160    7.3310   20.5250 N.3     4  SER4       -0.1217
     12  CA        15.7520    6.0770   20.3410 C.3     4  SER4        0.1889
     13  C         14.2520    6.2960   20.5340 C.2     4  SER4        0.2288
     14  O         13.8260    7.2180   21.2290 O.2     4  SER4       -0.2866
     15  CB        16.3100    5.0690   21.3300 C.3     4  SER4        0.2089
     16  OG        16.6840    5.7330   22.5120 O.3     4  SER4       -0.2183
     17  N         15.7540    9.9100   25.4120 N.3    55  LEU55      -0.1245
     18  CA        16.9330    9.1550   25.7870 C.3    55  LEU55       0.1561
     19  C         17.1900    9.2310   27.2870 C.2    55  LEU55       0.2260
     20  O         17.7830    8.3200   27.8650 O.2    55  LEU55      -0.2867
     21  CB        18.1390    9.6650   25.0030 C.3    55  LEU55       0.0270
     22  CG        19.3570    8.7620   25.0190 C.3    55  LEU55       0.0019
     23  CD1       19.0050    7.3590   24.5190 C.3    55  LEU55       0.0001
     24  CD2       20.4240    9.4000   24.1540 C.3    55  LEU55       0.0001
     25  N         14.0400   -0.9890   19.6660 N.3    70  TYR70      -0.1241
     26  CA        13.8740    0.4460   19.4640 C.3    70  TYR70       0.1605
     27  C         14.3250    0.8430   18.0910 C.2    70  TYR70       0.2264
     28  O         14.9880    0.0760   17.3990 O.2    70  TYR70      -0.2867
     29  CB        14.6330    1.2430   20.5380 C.3    70  TYR70       0.0534
     30  CG        16.1450    1.1000   20.4990 C.ar   70  TYR70      -0.0201
     31  CD1       16.9370    2.0490   19.8540 C.ar   70  TYR70      -0.0009
     32  CD2       16.7840    0.0250   21.1100 C.ar   70  TYR70      -0.0009
     33  CE1       18.3200    1.9270   19.8060 C.ar   70  TYR70       0.0417
     34  CE2       18.1710   -0.1100   21.0690 C.ar   70  TYR70       0.0417
     35  CZ        18.9320    0.8540   20.4210 C.ar   70  TYR70       0.1957
     36  OH        20.2970    0.7390   20.3750 O.3    70  TYR70      -0.2866
     37  N         16.0270    4.1720   15.6950 N.3    72  VAL72      -0.1245
     38  CA        16.6400    5.4740   15.5010 C.3    72  VAL72       0.1561
     39  C         16.5110    5.7230   14.0150 C.2    72  VAL72       0.2260
     40  O         17.1370    5.0350   13.2060 O.2    72  VAL72      -0.2867
     41  CB        18.1210    5.5050   15.9250 C.3    72  VAL72       0.0252
     42  CG1       18.7110    6.9010   15.7000 C.3    72  VAL72       0.0019
     43  CG2       18.2690    5.0690   17.3760 C.3    72  VAL72       0.0019
     44  N         16.7200   -1.5550   16.1830 N.3    77  PHE77      -0.1241
     45  CA        17.7910   -2.1680   16.9560 C.3    77  PHE77       0.1605
     46  C         17.2100   -3.0820   18.0190 C.2    77  PHE77       0.2264
     47  O         16.1280   -2.8210   18.5710 O.2    77  PHE77      -0.2867
     48  CB        18.6690   -1.0900   17.5900 C.3    77  PHE77       0.0534
     49  CG        19.3110   -0.1870   16.5810 C.ar   77  PHE77      -0.0203
     50  CD1       18.6520    0.9490   16.1280 C.ar   77  PHE77      -0.0042
     51  CD2       20.5520   -0.5060   16.0360 C.ar   77  PHE77      -0.0042
     52  CE1       19.2310    1.7730   15.1710 C.ar   77  PHE77      -0.0003
     53  CE2       21.1390    0.3120   15.0720 C.ar   77  PHE77      -0.0003
     54  CZ        20.4780    1.4560   14.6390 C.ar   77  PHE77      -0.0000
     55  N         18.9110   -4.5760   24.6410 N.3    80  THR80      -0.1218
     56  CA        19.9350   -5.2470   25.4230 C.3    80  THR80       0.1862
     57  C         19.3670   -5.4400   26.8190 C.2    80  THR80       0.2287
     58  O         18.9960   -4.4590   27.4520 O.2    80  THR80      -0.2866
     59  CB        21.2100   -4.3930   25.5030 C.3    80  THR80       0.1770
     60  OG1       21.6590   -4.1090   24.1820 O.3    80  THR80      -0.2211
     61  CG2       22.3340   -5.1240   26.2650 C.3    80  THR80       0.0375
     62  N         19.5570   -2.8510   29.9630 N.3    83  VAL83      -0.1231
     63  CA        19.9220   -1.5120   29.5100 C.3    83  VAL83       0.1692
     64  C         18.6510   -0.7940   29.0650 C.2    83  VAL83       0.2592
     65  O         17.8150   -1.3750   28.3680 O.2    83  VAL83      -0.2718
     66  CB        20.9020   -1.5600   28.3220 C.3    83  VAL83       0.0266
     67  CG1       21.3120   -0.1500   27.9080 C.3    83  VAL83       0.0020
     68  CG2       22.1300   -2.4100   28.6510 C.3    83  VAL83       0.0020
     69  N         18.5270    0.4760   29.4450 N.am   84  VAL84      -0.1966
     70  CA        17.3800    1.3070   29.0690 C.3    84  VAL84       0.1727
     71  C         17.4820    1.6400   27.5890 C.2    84  VAL84       0.2616
     72  O         18.4880    2.1950   27.1550 O.2    84  VAL84      -0.2715
     73  CB        17.3480    2.6290   29.8690 C.3    84  VAL84       0.0290
     74  CG1       16.2080    3.5340   29.3970 C.3    84  VAL84       0.0023
     75  CG2       17.2260    2.3530   31.3660 C.3    84  VAL84       0.0023
     76  N         16.4490    1.2940   26.8170 N.am   85  SER85      -0.1950
     77  CA        16.4280    1.5940   25.3820 C.3    85  SER85       0.1924
     78  C         15.9770    3.0300   25.1450 C.2    85  SER85       0.2314
     79  O         16.5460    3.7360   24.3120 O.2    85  SER85      -0.2863
     80  CB        15.5160    0.6140   24.6360 C.3    85  SER85       0.2116
     81  OG        15.8920   -0.7170   24.9260 O.3    85  SER85      -0.2180
@<TRIPOS>BOND
     1    40    39    2
     2    39    38    1
     3    54    53   ar
     4    54    52   ar
     5     1     2    1
     6    53    51   ar
     7    52    50   ar
     8     4     3    2
     9    38    37    1
    10    38    41    1
    11    42    41    1
    12     2     3    1
    13     2     5    1
    14    41    43    1
    15    51    49   ar
    16    50    49   ar
    17     3     7   am
    18    44    45    1
    19    49    48    1
    20     5     6    1
    21    45    48    1
    22    45    46    1
    23     7     8    1
    24    28    27    2
    25     8     9    1
    26    46    47    2
    27    27    26    1
    28     9    10    2
    29    26    25    1
    30    26    29    1
    31    33    31   ar
    32    33    35   ar
    33    31    30   ar
    34    12    11    1
    35    12    13    1
    36    12    15    1
    37    36    35    1
    38    35    34   ar
    39    30    29    1
    40    30    32   ar
    41    13    14    2
    42    34    32   ar
    43    15    16    1
    44    24    22    1
    45    60    59    1
    46    79    78    2
    47    23    22    1
    48    80    81    1
    49    80    77    1
    50    55    56    1
    51    21    22    1
    52    21    18    1
    53    78    77    1
    54    77    76    1
    55    17    18    1
    56    56    59    1
    57    56    57    1
    58    59    61    1
    59    18    19    1
    60    76    71   am
    61    57    58    2
    62    72    71    2
    63    19    20    2
    64    71    70    1
    65    67    66    1
    66    66    68    1
    67    66    63    1
    68    65    64    2
    69    64    69   am
    70    64    63    1
    71    70    69    1
    72    70    73    1
    73    74    73    1
    74    63    62    1
    75    73    75    1
