@<TRIPOS>MOLECULE
tmp/5eykA00.pdb
 201 188 0 0 0
SMALL
GASTEIGER

@<TRIPOS>ATOM
      1  N         16.5840    4.5340   -4.8660 N.3    10  ARG10      -0.1245
      2  CA        15.7540    3.4340   -5.3690 C.3    10  ARG10       0.1563
      3  C         14.3970    3.3560   -4.6540 C.2    10  ARG10       0.2260
      4  O         14.2810    3.8640   -3.5350 O.2    10  ARG10      -0.2867
      5  CB        16.4900    2.0750   -5.2230 C.3    10  ARG10       0.0307
      6  CG        16.8740    1.6750   -3.7950 C.3    10  ARG10       0.0489
      7  CD        16.8620    0.1670   -3.6440 C.3    10  ARG10       0.2205
      8  NE        17.1540   -0.2480   -2.2720 N.pl3  10  ARG10      -0.0865
      9  CZ        18.3540   -0.6280   -1.8400 C.cat  10  ARG10       0.5346
     10  NH1       19.3900   -0.6550   -2.6710 N.pl3  10  ARG10       0.1354
     11  NH2       18.5260   -0.9900   -0.5750 N.pl3  10  ARG10       0.1354
     12  N         11.5730    1.6700   -2.2780 N.3    12  LEU12      -0.1231
     13  CA        11.6410    0.7120   -1.1690 C.3    12  LEU12       0.1693
     14  C         10.3980   -0.1630   -1.1760 C.2    12  LEU12       0.2593
     15  O         10.4290   -1.2770   -0.6630 O.2    12  LEU12      -0.2718
     16  CB        11.8520    1.4180    0.1830 C.3    12  LEU12       0.0284
     17  CG        13.2680    1.9730    0.4080 C.3    12  LEU12       0.0019
     18  CD1       13.3090    2.9180    1.5580 C.3    12  LEU12       0.0001
     19  CD2       14.3160    0.8320    0.5870 C.3    12  LEU12       0.0001
     20  N          9.3450    0.3320   -1.8200 N.am   13  GLY13      -0.1942
     21  CA         8.0740   -0.3580   -1.9590 C.3    13  GLY13       0.2014
     22  C          6.8880    0.5410   -1.7000 C.2    13  GLY13       0.2639
     23  O          7.0410    1.7200   -1.3700 O.2    13  GLY13      -0.2714
     24  N          5.6910   -0.0200   -1.8560 N.am   14  LYS14      -0.1963
     25  CA         4.4230    0.6650   -1.6530 C.3    14  LYS14       0.1728
     26  C          4.1770    0.7610   -0.1490 C.2    14  LYS14       0.2616
     27  O          4.2340   -0.2400    0.5570 O.2    14  LYS14      -0.2715
     28  CB         3.2730   -0.1350   -2.3230 C.3    14  LYS14       0.0311
     29  CG         2.4180    0.5910   -3.3900 C.3    14  LYS14       0.0038
     30  CD         1.1530    1.2310   -2.8740 C.3    14  LYS14       0.0206
     31  CE         1.3190    2.7150   -2.6840 C.3    14  LYS14       0.1093
     32  NZ         0.0130    3.4160   -2.6830 N.3    14  LYS14      -0.1314
     33  N          3.9070    1.9680    0.3190 N.am   15  GLY15      -0.1955
     34  CA         3.5420    2.2410    1.7020 C.3    15  GLY15       0.1869
     35  C          2.0880    2.6630    1.7230 C.2    15  GLY15       0.2309
     36  O          1.4280    2.6590    0.6760 O.2    15  GLY15      -0.2863
     37  N          7.3110    4.6070   -1.3630 N.3    20  VAL20      -0.1245
     38  CA         8.4060    4.9930   -0.4890 C.3    20  VAL20       0.1561
     39  C          9.6920    4.7870   -1.2550 C.2    20  VAL20       0.2260
     40  O          9.8630    3.7650   -1.9180 O.2    20  VAL20      -0.2867
     41  CB         8.3750    4.2440    0.8830 C.3    20  VAL20       0.0252
     42  CG1        9.4470    4.7810    1.8260 C.3    20  VAL20       0.0019
     43  CG2        6.9880    4.3530    1.5310 C.3    20  VAL20       0.0019
     44  N         14.1210    7.7990    4.1590 N.3    33  ALA33      -0.1245
     45  CA        13.0560    7.2780    3.3320 C.3    33  ALA33       0.1562
     46  C         12.2130    8.4770    2.9580 C.2    33  ALA33       0.2260
     47  O         12.0600    9.4300    3.7450 O.2    33  ALA33      -0.2867
     48  CB        12.2270    6.2490    4.0920 C.3    33  ALA33       0.0290
     49  N          8.5050    9.3010    1.4340 N.3    35  LYS35      -0.1245
     50  CA         7.1960    8.8510    1.0040 C.3    35  LYS35       0.1561
     51  C          6.6030    9.9710    0.1550 C.2    35  LYS35       0.2260
     52  O          6.6270   11.1350    0.5620 O.2    35  LYS35      -0.2867
     53  CB         6.2640    8.4910    2.1660 C.3    35  LYS35       0.0271
     54  CG         4.9050    7.9480    1.6750 C.3    35  LYS35       0.0035
     55  CD         3.9810    7.5240    2.7920 C.3    35  LYS35       0.0206
     56  CE         4.2220    6.0900    3.2120 C.3    35  LYS35       0.1093
     57  NZ         3.1680    5.6230    4.1450 N.3    35  LYS35      -0.1314
     58  N         -4.7190   11.2590    7.1580 N.3    51  LEU51      -0.1245
     59  CA        -3.2800   11.4360    6.9530 C.3    51  LEU51       0.1561
     60  C         -2.7760   12.5250    7.8780 C.2    51  LEU51       0.2260
     61  O         -1.6920   12.3790    8.4520 O.2    51  LEU51      -0.2867
     62  CB        -2.9630   11.7760    5.4690 C.3    51  LEU51       0.0270
     63  CG        -1.4940   12.1010    5.1260 C.3    51  LEU51       0.0019
     64  CD1       -0.6290   10.8440    5.0710 C.3    51  LEU51       0.0001
     65  CD2       -1.3790   12.9190    3.8280 C.3    51  LEU51       0.0001
     66  N         -2.4420   11.2030   11.4140 N.3    54  GLU54      -0.1231
     67  CA        -1.2440   10.3640   11.4880 C.3    54  GLU54       0.1699
     68  C          0.0450   11.1930   11.5000 C.2    54  GLU54       0.2592
     69  O          0.9250   10.9160   12.3190 O.2    54  GLU54      -0.2718
     70  CB        -1.2420    9.2730   10.3970 C.3    54  GLU54       0.0402
     71  CG        -0.3260    8.0980   10.7390 C.3    54  GLU54       0.1161
     72  CD        -0.2600    6.9150    9.7810 C.2    54  GLU54       0.3649
     73  OE1       -1.1610    6.7940    8.9160 O.co2  54  GLU54      -0.2457
     74  OE2        0.6840    6.0960    9.9130 O.co2  54  GLU54      -0.2457
     75  N          0.1470   12.2270   10.6240 N.am   55  ILE55      -0.1980
     76  CA         1.3210   13.1090   10.5740 C.3    55  ILE55       0.1595
     77  C          1.4470   13.8490   11.9110 C.2    55  ILE55       0.2287
     78  O          2.5370   13.8610   12.4750 O.2    55  ILE55      -0.2864
     79  CB         1.3460   14.0780    9.3380 C.3    55  ILE55       0.0276
     80  CG1        1.5230   13.2960    8.0110 C.3    55  ILE55       0.0022
     81  CG2        2.4530   15.1550    9.4770 C.3    55  ILE55       0.0022
     82  CD1        1.1890   14.0890    6.7320 C.3    55  ILE55       0.0001
     83  N          2.6780   11.2080   14.6610 N.3    58  GLN58      -0.1245
     84  CA         4.0270   10.7000   14.3850 C.3    58  GLN58       0.1566
     85  C          5.1580   11.7090   14.3250 C.2    58  GLN58       0.2260
     86  O          6.2910   11.3720   14.5390 O.2    58  GLN58      -0.2867
     87  CB         4.0600    9.8050   13.1280 C.3    58  GLN58       0.0367
     88  CG         5.4740    9.5330   12.6270 C.3    58  GLN58       0.0905
     89  CD         5.6820    8.1770   11.9710 C.2    58  GLN58       0.2608
     90  OE1        5.2970    7.1600   12.5070 O.2    58  GLN58      -0.2717
     91  NE2        6.3440    8.1620   10.8300 N.am   58  GLN58      -0.0878
     92  N          9.3350    4.8890   14.5510 N.3    67  LEU67      -0.1245
     93  CA         9.8840    5.4130   13.3100 C.3    67  LEU67       0.1561
     94  C          9.6850    6.9380   13.2550 C.2    67  LEU67       0.2260
     95  O          8.5680    7.4580   13.4040 O.2    67  LEU67      -0.2867
     96  CB         9.2860    4.7060   12.0900 C.3    67  LEU67       0.0270
     97  CG        10.0980    4.8390   10.8200 C.3    67  LEU67       0.0019
     98  CD1       11.3520    3.9550   10.8680 C.3    67  LEU67       0.0001
     99  CD2        9.2500    4.4970    9.6450 C.3    67  LEU67       0.0001
    100  N          9.5330   10.7480   11.8450 N.3    69  MET69      -0.1245
    101  CA         9.2180   11.5810   10.6990 C.3    69  MET69       0.1570
    102  C         10.0460   12.8540   10.9540 C.2    69  MET69       0.2261
    103  O          9.8040   13.5440   11.9520 O.2    69  MET69      -0.2867
    104  CB         7.7280   11.8970   10.5600 C.3    69  MET69       0.0387
    105  CG         7.4800   12.7510    9.2890 C.3    69  MET69       0.0595
    106  SD         5.8080   13.3410    9.1360 S.3    69  MET69      -0.1393
    107  CE         5.0470   11.9720    8.4450 C.3    69  MET69       0.0692
    108  N          7.0760   13.1110    2.5830 N.3    81  LEU81      -0.1245
    109  CA         7.3590   12.8760    3.9970 C.3    81  LEU81       0.1561
    110  C          8.7750   12.3850    4.1140 C.2    81  LEU81       0.2260
    111  O          9.1430   11.3990    3.4770 O.2    81  LEU81      -0.2867
    112  CB         6.3790   11.8570    4.6150 C.3    81  LEU81       0.0270
    113  CG         4.8840   12.0800    4.3560 C.3    81  LEU81       0.0019
    114  CD1        4.0540   10.9480    4.9920 C.3    81  LEU81       0.0001
    115  CD2        4.4090   13.4650    4.8090 C.3    81  LEU81       0.0001
    116  N         11.2920   10.6650    6.1990 N.3    83  LEU83      -0.1231
    117  CA        11.1550    9.6440    7.2250 C.3    83  LEU83       0.1693
    118  C         12.4220    8.8950    7.4820 C.2    83  LEU83       0.2592
    119  O         13.2580    8.7300    6.5920 O.2    83  LEU83      -0.2718
    120  CB        10.0710    8.6370    6.7680 C.3    83  LEU83       0.0284
    121  CG         8.6500    9.1810    6.5550 C.3    83  LEU83       0.0019
    122  CD1        7.9490    8.4520    5.4390 C.3    83  LEU83       0.0001
    123  CD2        7.8280    9.0910    7.8180 C.3    83  LEU83       0.0001
    124  N         12.5230    8.3510    8.7070 N.am   84  GLU84      -0.1966
    125  CA        13.6500    7.5200    9.0960 C.3    84  GLU84       0.1733
    126  C         13.6820    6.2760    8.2230 C.2    84  GLU84       0.2616
    127  O         12.6440    5.6690    7.9900 O.2    84  GLU84      -0.2715
    128  CB        13.4820    7.1260   10.5750 C.3    84  GLU84       0.0429
    129  CG        14.4990    6.1190   11.0540 C.3    84  GLU84       0.1163
    130  CD        14.3830    5.7540   12.5170 C.2    84  GLU84       0.3649
    131  OE1       13.4230    6.2100   13.1810 O.co2  84  GLU84      -0.2457
    132  OE2       15.2780    5.0270   13.0010 O.co2  84  GLU84      -0.2457
    133  N         14.8640    5.9030    7.7430 N.am   85  PHE85      -0.1960
    134  CA        15.0120    4.6960    6.9580 C.3    85  PHE85       0.1771
    135  C         15.3050    3.5680    7.9380 C.2    85  PHE85       0.2619
    136  O         16.1980    3.7110    8.7660 O.2    85  PHE85      -0.2715
    137  CB        16.1540    4.8430    5.9210 C.3    85  PHE85       0.0574
    138  CG        16.5680    3.5810    5.1950 C.ar   85  PHE85      -0.0200
    139  CD1       15.6340    2.8140    4.5060 C.ar   85  PHE85      -0.0042
    140  CD2       17.8960    3.1800    5.1720 C.ar   85  PHE85      -0.0042
    141  CE1       16.0200    1.6530    3.8290 C.ar   85  PHE85      -0.0003
    142  CE2       18.2840    2.0250    4.4770 C.ar   85  PHE85      -0.0003
    143  CZ        17.3420    1.2730    3.8120 C.ar   85  PHE85      -0.0000
    144  N         14.5440    2.4690    7.8560 N.am   86  ALA86      -0.1964
    145  CA        14.7030    1.2810    8.7160 C.3    86  ALA86       0.1713
    146  C         15.3500    0.2210    7.8210 C.2    86  ALA86       0.2458
    147  O         14.6480   -0.4100    7.0390 O.2    86  ALA86      -0.2730
    148  CB        13.3370    0.8160    9.2310 C.3    86  ALA86       0.0333
    149  N         16.7020    0.0760    7.8810 N.am   87  PRO87      -0.2716
    150  CA        17.4160   -0.7800    6.9170 C.3    87  PRO87       0.1536
    151  C         17.0380   -2.2400    6.8170 C.2    87  PRO87       0.2598
    152  O         17.1910   -2.8350    5.7300 O.2    87  PRO87      -0.2715
    153  CB        18.8900   -0.5900    7.2910 C.3    87  PRO87       0.0310
    154  CG        18.9310    0.6930    7.9960 C.3    87  PRO87       0.0237
    155  CD        17.6580    0.8010    8.7380 C.3    87  PRO87       0.0939
    156  N         16.5470   -2.8270    7.9240 N.am   88  ARG88      -0.1964
    157  CA        16.1700   -4.2350    7.8740 C.3    88  ARG88       0.1729
    158  C         14.7590   -4.4850    7.3790 C.2    88  ARG88       0.2617
    159  O         14.3410   -5.6330    7.2320 O.2    88  ARG88      -0.2715
    160  CB        16.5340   -4.9740    9.1680 C.3    88  ARG88       0.0348
    161  CG        18.0430   -5.1070    9.3340 C.3    88  ARG88       0.0492
    162  CD        18.3680   -6.1360   10.3800 C.3    88  ARG88       0.2205
    163  NE        19.7640   -6.0750   10.8050 N.pl3  88  ARG88      -0.0865
    164  CZ        20.2440   -6.7460   11.8460 C.cat  88  ARG88       0.5346
    165  NH1       19.4470   -7.5280   12.5660 N.pl3  88  ARG88       0.1354
    166  NH2       21.5250   -6.6400   12.1770 N.pl3  88  ARG88       0.1354
    167  N         14.0470   -3.4000    7.0790 N.am   89  GLY89      -0.1940
    168  CA        12.7060   -3.4460    6.5140 C.3    89  GLY89       0.2014
    169  C         11.6140   -4.0200    7.3870 C.2    89  GLY89       0.2638
    170  O         11.6050   -3.8250    8.6040 O.2    89  GLY89      -0.2714
    171  N         10.6700   -4.7120    6.7350 N.am   90  GLU90      -0.1977
    172  CA         9.4560   -5.2730    7.3110 C.3    90  GLU90       0.1602
    173  C          9.6670   -6.4100    8.2990 C.2    90  GLU90       0.2287
    174  O         10.2250   -7.4520    7.9480 O.2    90  GLU90      -0.2864
    175  CB         8.4640   -5.6380    6.2030 C.3    90  GLU90       0.0415
    176  CG         8.0400   -4.3960    5.4300 C.3    90  GLU90       0.1163
    177  CD         6.9920   -4.5880    4.3590 C.2    90  GLU90       0.3649
    178  OE1        7.3670   -4.8800    3.2010 O.co2  90  GLU90      -0.2457
    179  OE2        5.8060   -4.3250    4.6540 O.co2  90  GLU90      -0.2457
    180  N          7.9220   -9.7530    7.2470 N.3    93  LYS93      -0.1245
    181  CA         8.6390  -10.5650    6.2500 C.3    93  LYS93       0.1561
    182  C          9.6370  -11.4370    6.9520 C.2    93  LYS93       0.2260
    183  O          9.7780  -12.6050    6.6040 O.2    93  LYS93      -0.2867
    184  CB         9.3230   -9.6920    5.1800 C.3    93  LYS93       0.0271
    185  CG         8.3410   -9.0570    4.2120 C.3    93  LYS93       0.0035
    186  CD         9.0610   -8.2650    3.1330 C.3    93  LYS93       0.0206
    187  CE         8.1460   -7.9650    1.9700 C.3    93  LYS93       0.1093
    188  NZ         8.8970   -7.4560    0.7940 N.3    93  LYS93      -0.1314
    189  N          8.6940   -2.0290   11.6350 N.3   136  LEU136     -0.1245
    190  CA         9.8990   -2.1120   10.8110 C.3   136  LEU136      0.1561
    191  C         11.0840   -2.4050   11.7340 C.2   136  LEU136      0.2260
    192  O         10.9370   -2.4040   12.9520 O.2   136  LEU136     -0.2867
    193  CB        10.1500   -0.8100   10.0010 C.3   136  LEU136      0.0270
    194  CG         9.1480   -0.4310    8.8980 C.3   136  LEU136      0.0019
    195  CD1        9.5490    0.8980    8.2510 C.3   136  LEU136      0.0001
    196  CD2        9.0360   -1.5030    7.8320 C.3   136  LEU136      0.0001
    197  N          5.9790    1.7250   12.9100 N.3   146  ALA146     -0.1245
    198  CA         5.9970    2.4680   11.6510 C.3   146  ALA146      0.1562
    199  C          4.6490    2.9160   11.0650 C.2   146  ALA146      0.2260
    200  O          4.6390    3.7220   10.1260 O.2   146  ALA146     -0.2867
    201  CB         6.7760    1.6780   10.6230 C.3   146  ALA146      0.0290
@<TRIPOS>BOND
     1     2     5    1
     2     2     1    1
     3     2     3    1
     4     5     6    1
     5     3     4    2
     6     6     7    1
     7     7     8    1
     8    29    30    1
     9    29    28    1
    10    30    31    1
    11    31    32    1
    12    10     9    1
    13    28    25    1
    14    12    13    1
    15     8     9    2
    16    21    20    1
    17    21    22    1
    18    40    39    2
    19    24    22   am
    20    24    25    1
    21     9    11    1
    22    20    14   am
    23    22    23    2
    24    25    26    1
    25    37    38    1
    26    39    38    1
    27    14    13    1
    28    14    15    2
    29    13    16    1
    30    38    41    1
    31    26    33   am
    32    26    27    2
    33    51    52    2
    34    51    50    1
    35    16    17    1
    36    33    34    1
    37    17    19    1
    38    17    18    1
    39    36    35    2
    40   188   187    1
    41    41    43    1
    42    41    42    1
    43    50    49    1
    44    50    53    1
    45    54    53    1
    46    54    55    1
    47    34    35    1
    48   187   186    1
    49   108   109    1
    50    55    56    1
    51    46    45    1
    52    46    47    2
    53   186   185    1
    54   178   177   ar
    55    56    57    1
    56    45    48    1
    57    45    44    1
    58   111   110    2
    59   143   141   ar
    60   143   142   ar
    61    65    63    1
    62   141   139   ar
    63   109   110    1
    64   109   112    1
    65   185   184    1
    66   113   112    1
    67   113   115    1
    68   113   114    1
    69   177   179   ar
    70   177   176    1
    71   142   140   ar
    72   139   138   ar
    73    64    63    1
    74    63    62    1
    75   140   138   ar
    76   184   181    1
    77   138   137    1
    78   176   175    1
    79   122   121    1
    80    62    59    1
    81   152   151    2
    82   137   134    1
    83   116   117    1
    84   175   172    1
    85   181   182    1
    86   181   180    1
    87   168   167    1
    88   168   169    1
    89   121   120    1
    90   121   123    1
    91   119   118    2
    92   183   182    2
    93    82    80    1
    94   171   172    1
    95   171   169   am
    96   120   117    1
    97   151   150    1
    98   151   156   am
    99   150   153    1
   100   150   149    1
   101    59    58    1
   102    59    60    1
   103   134   133    1
   104   134   135    1
   105   147   146    2
   106   167   158   am
   107   117   118    1
   108   159   158    2
   109   153   154    1
   110   172   173    1
   111   158   157    1
   112   169   170    2
   113   118   124   am
   114   133   126   am
   115   146   149   am
   116   146   145    1
   117   196   194    1
   118   144   135   am
   119   144   145    1
   120   157   156    1
   121   157   160    1
   122    60    61    2
   123   149   155    1
   124   135   136    2
   125   174   173    2
   126   127   126    2
   127   154   155    1
   128    80    79    1
   129   126   125    1
   130   195   194    1
   131   107   106    1
   132   124   125    1
   133   145   148    1
   134   194   193    1
   135    73    72   ar
   136   125   128    1
   137   106   105    1
   138   160   161    1
   139   105   104    1
   140   161   162    1
   141    79    81    1
   142    79    76    1
   143    99    97    1
   144    72    74   ar
   145    72    71    1
   146   193   190    1
   147   200   199    2
   148   162   163    1
   149    70    71    1
   150    70    67    1
   151   104   101    1
   152    76    75    1
   153    76    77    1
   154   128   129    1
   155   201   198    1
   156    75    68   am
   157   101   102    1
   158   101   100    1
   159   163   164    2
   160   190   189    1
   161   190   191    1
   162    97    98    1
   163    97    96    1
   164    91    89   am
   165   102   103    2
   166   129   130    1
   167   199   198    1
   168    66    67    1
   169    67    68    1
   170    68    69    2
   171   198   197    1
   172   191   192    2
   173   164   166    1
   174   164   165    1
   175    77    78    2
   176    89    90    2
   177    89    88    1
   178    96    93    1
   179   130   132   ar
   180   130   131   ar
   181    88    87    1
   182    87    84    1
   183    94    93    1
   184    94    95    2
   185    93    92    1
   186    85    84    1
   187    85    86    2
   188    84    83    1
