@<TRIPOS>MOLECULE
tmp/5eyrA00.pdb
 225 222 0 0 0
SMALL
GASTEIGER

@<TRIPOS>ATOM
      1  N          6.3360   35.3270    3.2560 N.3    66  LEU66      -0.1245
      2  CA         6.0800   34.0600    3.9340 C.3    66  LEU66       0.1561
      3  C          5.0700   34.2610    5.0760 C.2    66  LEU66       0.2260
      4  O          4.1600   33.4460    5.2300 O.2    66  LEU66      -0.2867
      5  CB         7.4130   33.4860    4.4610 C.3    66  LEU66       0.0270
      6  CG         7.3070   32.1660    5.2140 C.3    66  LEU66       0.0019
      7  CD1        6.6320   31.1310    4.3710 C.3    66  LEU66       0.0001
      8  CD2        8.6660   31.6800    5.6510 C.3    66  LEU66       0.0001
      9  N          1.5930   34.4460    3.7530 N.3    69  LEU69      -0.1231
     10  CA         1.1360   33.1070    3.4250 C.3    69  LEU69       0.1693
     11  C          0.7890   32.3140    4.6950 C.2    69  LEU69       0.2591
     12  O         -0.2380   31.6380    4.7120 O.2    69  LEU69      -0.2718
     13  CB         2.2400   32.4050    2.6120 C.3    69  LEU69       0.0284
     14  CG         1.8780   31.1460    1.8760 C.3    69  LEU69       0.0019
     15  CD1        0.8020   31.4160    0.7970 C.3    69  LEU69       0.0001
     16  CD2        3.1250   30.5470    1.2460 C.3    69  LEU69       0.0001
     17  N          1.6280   32.4220    5.7570 N.am   70  ALA70      -0.1980
     18  CA         1.4680   31.7160    7.0390 C.3    70  ALA70       0.1597
     19  C          0.2410   32.1560    7.8340 C.2    70  ALA70       0.2287
     20  O         -0.3450   31.3330    8.5370 O.2    70  ALA70      -0.2864
     21  CB         2.7180   31.8630    7.8900 C.3    70  ALA70       0.0319
     22  N         -2.6820   33.2710    6.5560 N.3    72  ASN72      -0.1226
     23  CA        -3.8750   32.7710    5.8670 C.3    72  ASN72       0.1770
     24  C         -4.0940   31.2750    6.1880 C.2    72  ASN72       0.2439
     25  O         -3.1220   30.6050    6.5560 O.2    72  ASN72      -0.2733
     26  CB        -3.7260   32.9760    4.3470 C.3    72  ASN72       0.1168
     27  CG        -3.5440   34.4150    3.9090 C.2    72  ASN72       0.2627
     28  OD1       -3.8330   35.3740    4.6410 O.2    72  ASN72      -0.2716
     29  ND2       -3.0600   34.5970    2.6890 N.am   72  ASN72      -0.0877
     30  N         -5.3280   30.7100    6.0470 N.am   73  PRO73      -0.2718
     31  CA        -5.5120   29.2720    6.3330 C.3    73  PRO73       0.1535
     32  C         -4.6690   28.3570    5.4350 C.2    73  PRO73       0.2598
     33  O         -4.3390   28.7250    4.3010 O.2    73  PRO73      -0.2715
     34  CB        -7.0180   29.0460    6.1120 C.3    73  PRO73       0.0310
     35  CG        -7.6320   30.3950    6.1990 C.3    73  PRO73       0.0237
     36  CD        -6.6060   31.3310    5.6360 C.3    73  PRO73       0.0939
     37  N         -4.3060   27.1740    5.9640 N.am   74  ALA74      -0.1964
     38  CA        -3.4900   26.1680    5.2800 C.3    74  ALA74       0.1728
     39  C         -4.1880   25.5790    4.0490 C.2    74  ALA74       0.2616
     40  O         -5.4100   25.3990    4.0550 O.2    74  ALA74      -0.2715
     41  CB        -3.1130   25.0560    6.2490 C.3    74  ALA74       0.0334
     42  N         -3.4000   25.2940    2.9930 N.am   75  ASP75      -0.1971
     43  CA        -3.8820   24.6890    1.7500 C.3    75  ASP75       0.1709
     44  C         -4.2330   23.2320    2.0530 C.2    75  ASP75       0.2293
     45  O         -3.4360   22.5280    2.6830 O.2    75  ASP75      -0.2864
     46  CB        -2.7920   24.7620    0.6560 C.3    75  ASP75       0.1436
     47  CG        -3.2320   24.4360   -0.7700 C.2    75  ASP75       0.3671
     48  OD1       -4.1210   23.5680   -0.9430 O.co2  75  ASP75      -0.2456
     49  OD2       -2.6590   25.0200   -1.7140 O.co2  75  ASP75      -0.2456
     50  N          0.6670   23.1820   -0.7310 N.3    81  MET81      -0.1230
     51  CA         1.0180   24.0210    0.4170 C.3    81  MET81       0.1702
     52  C          2.5510   24.2380    0.4480 C.2    81  MET81       0.2592
     53  O          3.0220   25.3740    0.5870 O.2    81  MET81      -0.2718
     54  CB         0.5170   23.3590    1.7270 C.3    81  MET81       0.0401
     55  CG         1.1820   23.8790    2.9930 C.3    81  MET81       0.0596
     56  SD         0.4800   23.0970    4.4660 S.3    81  MET81      -0.1393
     57  CE         1.4220   21.5540    4.5220 C.3    81  MET81       0.0692
     58  N          3.3150   23.1400    0.2640 N.am   82  TRP82      -0.1976
     59  CA         4.7800   23.2550    0.2720 C.3    82  TRP82       0.1640
     60  C          5.2900   24.0020   -0.9740 C.2    82  TRP82       0.2290
     61  O          6.2010   24.8280   -0.8610 O.2    82  TRP82      -0.2864
     62  CB         5.4190   21.8580    0.3640 C.3    82  TRP82       0.0576
     63  CG         5.0770   21.1660    1.6500 C.ar   82  TRP82       0.0006
     64  CD1        4.1910   20.1440    1.8270 C.ar   82  TRP82       0.0946
     65  CD2        5.5870   21.4870    2.9470 C.ar   82  TRP82       0.0152
     66  NE1        4.1270   19.8000    3.1610 N.ar   82  TRP82      -0.2442
     67  CE2        4.9740   20.6080    3.8700 C.ar   82  TRP82       0.0810
     68  CE3        6.4880   22.4540    3.4250 C.ar   82  TRP82       0.0012
     69  CZ2        5.2550   20.6480    5.2420 C.ar   82  TRP82       0.0191
     70  CZ3        6.7500   22.5060    4.7950 C.ar   82  TRP82       0.0001
     71  CH2        6.1470   21.5960    5.6790 C.ar   82  TRP82       0.0015
     72  N          4.9790   27.8500   -0.6270 N.3    85  GLY85      -0.1210
     73  CA         5.9820   28.3810    0.2890 C.3    85  GLY85       0.1956
     74  C          7.3590   28.4160   -0.3400 C.2    85  GLY85       0.2611
     75  O          8.0650   29.4230   -0.2430 O.2    85  GLY85      -0.2717
     76  N          7.7660   27.3060   -1.0000 N.am   86  ILE86      -0.1979
     77  CA         9.0770   27.2970   -1.6710 C.3    86  ILE86       0.1595
     78  C          9.0970   28.3820   -2.7650 C.2    86  ILE86       0.2287
     79  O         10.1120   29.0760   -2.9280 O.2    86  ILE86      -0.2864
     80  CB         9.4330   25.9040   -2.2410 C.3    86  ILE86       0.0276
     81  CG1        9.5140   24.8600   -1.0840 C.3    86  ILE86       0.0022
     82  CG2       10.7910   25.9950   -3.0030 C.3    86  ILE86       0.0022
     83  CD1        9.6920   23.4360   -1.5440 C.3    86  ILE86       0.0001
     84  N         10.3250   31.9000   -1.9290 N.3    89  PHE89      -0.1241
     85  CA        11.7770   32.0690   -1.9420 C.3    89  PHE89       0.1605
     86  C         12.3280   32.0940   -3.3510 C.2    89  PHE89       0.2264
     87  O         13.2110   32.8910   -3.6510 O.2    89  PHE89      -0.2867
     88  CB        12.4300   30.9590   -1.0770 C.3    89  PHE89       0.0534
     89  CG        12.1770   31.2710    0.3750 C.ar   89  PHE89      -0.0203
     90  CD1       10.9970   30.8720    0.9930 C.ar   89  PHE89      -0.0042
     91  CD2       13.0860   32.0280    1.1080 C.ar   89  PHE89      -0.0042
     92  CE1       10.7180   31.2420    2.3190 C.ar   89  PHE89      -0.0003
     93  CE2       12.8190   32.3810    2.4390 C.ar   89  PHE89      -0.0003
     94  CZ        11.6330   31.9950    3.0310 C.ar   89  PHE89      -0.0000
     95  N         14.0850   35.7780   -4.1120 N.3    93  PHE93      -0.1241
     96  CA        15.5240   35.8090   -4.3820 C.3    93  PHE93       0.1605
     97  C         15.8250   35.8090   -5.8830 C.2    93  PHE93       0.2264
     98  O         16.8120   36.4180   -6.3150 O.2    93  PHE93      -0.2867
     99  CB        16.2300   34.6700   -3.6450 C.3    93  PHE93       0.0534
    100  CG        16.2850   34.9540   -2.1600 C.ar   93  PHE93      -0.0203
    101  CD1       17.3250   35.7050   -1.6170 C.ar   93  PHE93      -0.0042
    102  CD2       15.3040   34.4620   -1.3050 C.ar   93  PHE93      -0.0042
    103  CE1       17.3590   35.9990   -0.2440 C.ar   93  PHE93      -0.0003
    104  CE2       15.3420   34.7470    0.0720 C.ar   93  PHE93      -0.0003
    105  CZ        16.3550   35.5290    0.5860 C.ar   93  PHE93      -0.0000
    106  N         21.9480   36.3140    7.7220 N.3   117  TRP117     -0.1241
    107  CA        21.4850   35.0790    7.0770 C.3   117  TRP117      0.1605
    108  C         21.1240   34.0180    8.1190 C.2   117  TRP117      0.2264
    109  O         20.0630   33.3890    8.0220 O.2   117  TRP117     -0.2867
    110  CB        22.5250   34.5540    6.0710 C.3   117  TRP117      0.0550
    111  CG        21.9480   33.4850    5.1910 C.ar  117  TRP117      0.0003
    112  CD1       22.2690   32.1590    5.1910 C.ar  117  TRP117      0.0946
    113  CD2       20.8870   33.6450    4.2340 C.ar  117  TRP117      0.0152
    114  NE1       21.5090   31.4890    4.2600 N.ar  117  TRP117     -0.2442
    115  CE2       20.6370   32.3750    3.6700 C.ar  117  TRP117      0.0810
    116  CE3       20.1210   34.7450    3.7970 C.ar  117  TRP117      0.0012
    117  CZ2       19.6300   32.1660    2.7170 C.ar  117  TRP117      0.0191
    118  CZ3       19.1430   34.5450    2.8290 C.ar  117  TRP117      0.0001
    119  CH2       18.9110   33.2670    2.2930 C.ar  117  TRP117      0.0015
    120  N         17.5030   32.0970    8.5690 N.3   121  MET121     -0.1245
    121  CA        17.4730   30.6330    8.3470 C.3   121  MET121      0.1570
    122  C         16.9040   29.9410    9.5990 C.2   121  MET121      0.2261
    123  O         16.0800   29.0220    9.4750 O.2   121  MET121     -0.2867
    124  CB        18.8800   30.0990    8.0490 C.3   121  MET121      0.0387
    125  CG        19.3840   30.4880    6.6850 C.3   121  MET121      0.0595
    126  SD        18.4640   29.6470    5.3700 S.3   121  MET121     -0.1393
    127  CE        19.0230   27.9460    5.5260 C.3   121  MET121      0.0692
    128  N         13.0710   30.4220    9.4830 N.3   124  TRP124     -0.1241
    129  CA        12.4500   29.6530    8.4160 C.3   124  TRP124      0.1605
    130  C         12.4560   28.1370    8.6880 C.2   124  TRP124      0.2264
    131  O         11.4780   27.4310    8.4210 O.2   124  TRP124     -0.2867
    132  CB        13.1230   30.0340    7.0800 C.3   124  TRP124      0.0550
    133  CG        12.9930   31.5110    6.7580 C.ar  124  TRP124      0.0003
    134  CD1       11.9490   32.3340    7.1000 C.ar  124  TRP124      0.0946
    135  CD2       13.8800   32.3020    5.9530 C.ar  124  TRP124      0.0152
    136  NE1       12.1630   33.5980    6.6080 N.ar  124  TRP124     -0.2442
    137  CE2       13.3460   33.6140    5.9090 C.ar  124  TRP124      0.0810
    138  CE3       15.1230   32.0580    5.3390 C.ar  124  TRP124      0.0012
    139  CZ2       13.9700   34.6550    5.1910 C.ar  124  TRP124      0.0191
    140  CZ3       15.7770   33.1100    4.6880 C.ar  124  TRP124      0.0001
    141  CH2       15.1810   34.3700    4.5770 C.ar  124  TRP124      0.0015
    142  N          9.8420   27.4990   11.4790 N.3   127  TYR127     -0.1227
    143  CA         8.4850   27.4660   10.9380 C.3   127  TYR127      0.1736
    144  C          8.2580   26.1560   10.1750 C.2   127  TYR127      0.2596
    145  O          7.2240   25.5060   10.3290 O.2   127  TYR127     -0.2718
    146  CB         8.2130   28.6780   10.0370 C.3   127  TYR127      0.0548
    147  CG         6.7890   28.6720    9.5240 C.ar  127  TYR127     -0.0200
    148  CD1        5.7220   28.9510   10.3740 C.ar  127  TYR127     -0.0009
    149  CD2        6.4970   28.2680    8.2230 C.ar  127  TYR127     -0.0009
    150  CE1        4.4040   28.9030    9.9230 C.ar  127  TYR127      0.0417
    151  CE2        5.1810   28.1880    7.7690 C.ar  127  TYR127      0.0417
    152  CZ         4.1390   28.5330    8.6160 C.ar  127  TYR127      0.1957
    153  OH         2.8390   28.4830    8.1740 O.3   127  TYR127     -0.2866
    154  N          9.2440   25.7670    9.3370 N.am  128  THR128     -0.1953
    155  CA         9.1420   24.5210    8.5980 C.3   128  THR128      0.1897
    156  C          8.8960   23.3520    9.5550 C.2   128  THR128      0.2313
    157  O          8.0190   22.5350    9.3110 O.2   128  THR128     -0.2863
    158  CB        10.4320   24.2520    7.7810 C.3   128  THR128      0.1794
    159  OG1       10.6070   25.2830    6.8090 O.3   128  THR128     -0.2208
    160  CG2       10.4140   22.8930    7.0890 C.3   128  THR128      0.0378
    161  N          5.3220   23.2630   10.8990 N.3   131  VAL131     -0.1245
    162  CA         4.3550   22.7200    9.9230 C.3   131  VAL131      0.1561
    163  C          4.4790   21.1840    9.8480 C.2   131  VAL131      0.2260
    164  O          3.4630   20.4850    9.8490 O.2   131  VAL131     -0.2867
    165  CB         4.4750   23.3590    8.5200 C.3   131  VAL131      0.0252
    166  CG1        3.4270   22.7930    7.5650 C.3   131  VAL131      0.0019
    167  CG2        4.4120   24.8830    8.5900 C.3   131  VAL131      0.0019
    168  N         15.9280   22.9730    4.2690 N.3   155  ASN155     -0.1240
    169  CA        16.1410   24.4110    4.0360 C.3   155  ASN155      0.1653
    170  C         17.5470   24.6740    3.4720 C.2   155  ASN155      0.2266
    171  O         17.7340   25.5560    2.6000 O.2   155  ASN155     -0.2867
    172  CB        15.9250   25.2010    5.3200 C.3   155  ASN155      0.1155
    173  CG        14.4850   25.5660    5.5420 C.2   155  ASN155      0.2627
    174  OD1       14.1010   26.7080    5.2770 O.2   155  ASN155     -0.2716
    175  ND2       13.6580   24.6480    6.0460 N.am  155  ASN155     -0.0877
    176  N         17.5010   23.8500   -0.1550 N.3   158  ASN158     -0.1225
    177  CA        16.9070   24.9160   -0.9860 C.3   158  ASN158      0.1785
    178  C         17.8430   26.0840   -1.1570 C.2   158  ASN158      0.2597
    179  O         17.9590   26.6140   -2.2680 O.2   158  ASN158     -0.2718
    180  CB        15.5890   25.3700   -0.3880 C.3   158  ASN158      0.1169
    181  CG        14.4700   24.3880   -0.6070 C.2   158  ASN158      0.2627
    182  OD1       14.6780   23.1820   -0.8820 O.2   158  ASN158     -0.2716
    183  ND2       13.2300   24.8630   -0.4150 N.am  158  ASN158     -0.0877
    184  N         18.5000   26.5150   -0.0660 N.am  159  GLU159     -0.1979
    185  CA        19.4730   27.6020   -0.1420 C.3   159  GLU159      0.1602
    186  C         20.5420   27.2990   -1.2320 C.2   159  GLU159      0.2287
    187  O         20.7270   28.0760   -2.1740 O.2   159  GLU159     -0.2864
    188  CB        20.1900   27.7470    1.2050 C.3   159  GLU159      0.0415
    189  CG        21.2950   28.7950    1.1620 C.3   159  GLU159      0.1163
    190  CD        22.2550   28.7300    2.3330 C.2   159  GLU159      0.3649
    191  OE1       21.7920   28.6500    3.4910 O.co2 159  GLU159     -0.2457
    192  OE2       23.4800   28.7270    2.0850 O.co2 159  GLU159     -0.2457
    193  N         18.7390   26.5760   -4.9910 N.3   162  LEU162     -0.1231
    194  CA        18.1830   27.7800   -5.6370 C.3   162  LEU162      0.1693
    195  C         19.2920   28.7330   -6.0450 C.2   162  LEU162      0.2592
    196  O         19.3010   29.1940   -7.1980 O.2   162  LEU162     -0.2718
    197  CB        17.1970   28.5080   -4.6980 C.3   162  LEU162      0.0284
    198  CG        15.8430   27.8310   -4.4290 C.3   162  LEU162      0.0019
    199  CD1       15.0920   28.5930   -3.3060 C.3   162  LEU162      0.0001
    200  CD2       14.9870   27.7590   -5.6990 C.3   162  LEU162      0.0001
    201  N         20.2780   28.9580   -5.1520 N.am  163  PHE163     -0.1976
    202  CA        21.3230   29.9350   -5.4540 C.3   163  PHE163      0.1639
    203  C         22.2920   29.4190   -6.5390 C.2   163  PHE163      0.2290
    204  O         22.7140   30.2130   -7.3910 O.2   163  PHE163     -0.2864
    205  CB        21.9930   30.3940   -4.1460 C.3   163  PHE163      0.0560
    206  CG        21.0240   31.0460   -3.1490 C.ar  163  PHE163     -0.0200
    207  CD1       19.7110   31.3740   -3.5200 C.ar  163  PHE163     -0.0042
    208  CD2       21.4330   31.3500   -1.8530 C.ar  163  PHE163     -0.0042
    209  CE1       18.8190   31.9510   -2.5950 C.ar  163  PHE163     -0.0003
    210  CE2       20.5450   31.9460   -0.9400 C.ar  163  PHE163     -0.0003
    211  CZ        19.2530   32.2500   -1.3200 C.ar  163  PHE163     -0.0000
    212  N         10.9620   17.5410   -0.9290 N.3   186  TRP186     -0.1241
    213  CA        10.2750   17.9150    0.3210 C.3   186  TRP186      0.1605
    214  C          9.0880   16.9650    0.5850 C.2   186  TRP186      0.2264
    215  O          8.9840   16.3960    1.6740 O.2   186  TRP186     -0.2867
    216  CB         9.7790   19.3790    0.2300 C.3   186  TRP186      0.0550
    217  CG        10.8330   20.4010    0.5200 C.ar  186  TRP186      0.0003
    218  CD1       12.0140   20.5930   -0.1500 C.ar  186  TRP186      0.0946
    219  CD2       10.7910   21.3900    1.5520 C.ar  186  TRP186      0.0152
    220  NE1       12.7020   21.6640    0.3990 N.ar  186  TRP186     -0.2442
    221  CE2       11.9850   22.1520    1.4630 C.ar  186  TRP186      0.0810
    222  CE3        9.8810   21.6730    2.5950 C.ar  186  TRP186      0.0012
    223  CZ2       12.2860   23.1940    2.3570 C.ar  186  TRP186      0.0191
    224  CZ3       10.1780   22.7190    3.4630 C.ar  186  TRP186      0.0001
    225  CH2       11.3990   23.4170    3.3910 C.ar  186  TRP186      0.0015
@<TRIPOS>BOND
     1   204   203    2
     2   196   195    2
     3   203   202    1
     4    98    97    2
     5   195   194    1
     6   195   201   am
     7    97    96    1
     8   200   198    1
     9   194   193    1
    10   194   197    1
    11   202   201    1
    12   202   205    1
    13   197   198    1
    14   198   199    1
    15    96    95    1
    16    96    99    1
    17   205   206    1
    18    87    86    2
    19    99   100    1
    20   207   206   ar
    21   207   209   ar
    22    86    85    1
    23   206   208   ar
    24    82    80    1
    25    79    78    2
    26    78    77    1
    27   209   211   ar
    28   179   178    2
    29    80    77    1
    30    80    81    1
    31   187   186    2
    32   100   101   ar
    33   100   102   ar
    34    85    84    1
    35    85    88    1
    36   208   210   ar
    37    49    47   ar
    38    77    76    1
    39   101   103   ar
    40    83    81    1
    41   211   210   ar
    42   102   104   ar
    43   186   185    1
    44   178   177    1
    45   178   184   am
    46    88    89    1
    47    76    74   am
    48   177   180    1
    49   177   176    1
    50    60    61    2
    51    60    59    1
    52    48    47   ar
    53   212   213    1
    54   182   181    2
    55    47    46    1
    56    50    51    1
    57    72    73    1
    58   181   183   am
    59   181   180    1
    60    74    75    2
    61    74    73    1
    62   103   105   ar
    63   218   220   ar
    64   218   217   ar
    65   185   184    1
    66   185   188    1
    67   104   105   ar
    68   216   213    1
    69   216   217    1
    70    58    59    1
    71    58    52   am
    72    59    62    1
    73   213   214    1
    74    62    63    1
    75    89    90   ar
    76    89    91   ar
    77   220   221   ar
    78    51    52    1
    79    51    54    1
    80    52    53    2
    81   217   219   ar
    82   214   215    2
    83    46    43    1
    84    15    14    1
    85    90    92   ar
    86    91    93   ar
    87   189   188    1
    88   189   190    1
    89    16    14    1
    90   221   219   ar
    91   221   223   ar
    92   219   222   ar
    93    63    64   ar
    94    63    65   ar
    95    54    55    1
    96    43    44    1
    97    43    42    1
    98    64    66   ar
    99    14    13    1
   100    44    45    2
   101   192   190   ar
   102   119   117   ar
   103   119   118   ar
   104    92    94   ar
   105   190   191   ar
   106   223   225   ar
   107    93    94   ar
   108   222   224   ar
   109   171   170    2
   110    13    10    1
   111    29    27   am
   112   117   115   ar
   113   118   116   ar
   114    65    68   ar
   115    65    67   ar
   116    55    56    1
   117    42    39   am
   118    66    67   ar
   119     1     2    1
   120   225   224   ar
   121    10     9    1
   122    10    11    1
   123    68    70   ar
   124   170   169    1
   125   115   113   ar
   126   115   114   ar
   127   116   113   ar
   128    67    69   ar
   129    27    26    1
   130    27    28    2
   131     2     5    1
   132     2     3    1
   133   169   168    1
   134   169   172    1
   135    39    40    2
   136    39    38    1
   137   113   111   ar
   138   114   112   ar
   139    33    32    2
   140    26    23    1
   141     7     6    1
   142     5     6    1
   143    56    57    1
   144   141   140   ar
   145   141   139   ar
   146   140   138   ar
   147    11    12    2
   148    11    17   am
   149    70    71   ar
   150     3     4    2
   151   111   112   ar
   152   111   110    1
   153   139   137   ar
   154     6     8    1
   155    69    71   ar
   156   174   173    2
   157    38    37    1
   158    38    41    1
   159   172   173    1
   160   138   135   ar
   161   126   127    1
   162   126   125    1
   163    32    37   am
   164    32    31    1
   165   173   175   am
   166    36    30    1
   167    36    35    1
   168    17    18    1
   169    23    24    1
   170    23    22    1
   171   137   135   ar
   172   137   136   ar
   173   135   133   ar
   174    30    24   am
   175    30    31    1
   176   110   107    1
   177    34    35    1
   178    34    31    1
   179    24    25    2
   180   136   134   ar
   181   125   124    1
   182   133   132    1
   183   133   134   ar
   184   159   158    1
   185    18    19    1
   186    18    21    1
   187   107   106    1
   188   107   108    1
   189   132   129    1
   190   160   158    1
   191   166   165    1
   192   151   149   ar
   193   151   152   ar
   194   158   155    1
   195    19    20    2
   196   109   108    2
   197   124   121    1
   198   153   152    1
   199   149   147   ar
   200   121   120    1
   201   121   122    1
   202   129   130    1
   203   129   128    1
   204   131   130    2
   205   165   167    1
   206   165   162    1
   207   155   154    1
   208   155   156    1
   209   152   150   ar
   210   157   156    2
   211   154   144   am
   212   123   122    2
   213   147   146    1
   214   147   148   ar
   215   163   164    2
   216   163   162    1
   217   162   161    1
   218   150   148   ar
   219   146   143    1
   220   144   145    2
   221   144   143    1
   222   143   142    1
