@<TRIPOS>MOLECULE
tmp/5eywA00.pdb
 93 87 0 0 0
SMALL
GASTEIGER

@<TRIPOS>ATOM
      1  N          9.0650  -22.4610  -50.0910 N.3     8  ASN8       -0.1240
      2  CA         9.0870  -23.2210  -48.8510 C.3     8  ASN8        0.1653
      3  C         10.4400  -23.0940  -48.1710 C.2     8  ASN8        0.2266
      4  O         11.4150  -23.7050  -48.6180 O.2     8  ASN8       -0.2867
      5  CB         8.7750  -24.6930  -49.1330 C.3     8  ASN8        0.1155
      6  CG         8.7930  -25.5400  -47.8790 C.2     8  ASN8        0.2627
      7  OD1        8.5980  -25.0330  -46.7730 O.2     8  ASN8       -0.2716
      8  ND2        9.0200  -26.8340  -48.0430 N.am    8  ASN8       -0.0877
      9  N         11.2450  -24.2940  -45.4470 N.3    10  LYS10      -0.1245
     10  CA        11.4080  -25.4270  -44.5270 C.3    10  LYS10       0.1561
     11  C         12.0580  -25.0020  -43.2010 C.2    10  LYS10       0.2260
     12  O         11.7310  -23.9280  -42.6760 O.2    10  LYS10      -0.2867
     13  CB        12.0910  -26.6480  -45.1830 C.3    10  LYS10       0.0271
     14  CG        13.3350  -26.3820  -46.0210 C.3    10  LYS10       0.0035
     15  CD        13.5820  -27.5590  -46.9720 C.3    10  LYS10       0.0206
     16  CE        12.6770  -27.4730  -48.1900 C.3    10  LYS10       0.1093
     17  NZ        12.7900  -28.6670  -49.0700 N.3    10  LYS10      -0.1314
     18  N          3.5900  -32.3290  -47.2870 N.3    92  HIS92      -0.1241
     19  CA         4.8700  -32.1930  -47.9490 C.3    92  HIS92       0.1621
     20  C          5.6250  -33.5050  -47.8600 C.2    92  HIS92       0.2264
     21  O          5.4990  -34.2300  -46.8740 O.2    92  HIS92      -0.2867
     22  CB         5.7070  -31.0690  -47.3420 C.3    92  HIS92       0.0745
     23  CG         6.8730  -30.6950  -48.1980 C.ar   92  HIS92       0.0817
     24  ND1        8.0890  -31.3420  -48.1210 N.ar   92  HIS92      -0.2268
     25  CD2        6.9910  -29.7840  -49.1920 C.ar   92  HIS92       0.1154
     26  CE1        8.9150  -30.8240  -49.0140 C.ar   92  HIS92       0.1986
     27  NE2        8.2740  -29.8760  -49.6760 N.ar   92  HIS92      -0.2212
     28  N          5.2840  -32.7830  -56.7090 N.3   162  GLU162     -0.1245
     29  CA         6.7190  -32.8360  -56.4240 C.3   162  GLU162      0.1567
     30  C          7.2150  -34.2810  -56.4110 C.2   162  GLU162      0.2260
     31  O          6.9960  -35.0110  -55.4310 O.2   162  GLU162     -0.2867
     32  CB         7.0350  -32.1660  -55.0770 C.3   162  GLU162      0.0388
     33  CG         6.5600  -30.7060  -54.9260 C.3   162  GLU162      0.1160
     34  CD         7.2280  -29.9650  -53.7590 C.2   162  GLU162      0.3649
     35  OE1        7.9680  -28.9830  -54.0110 O.co2 162  GLU162     -0.2457
     36  OE2        7.0250  -30.3510  -52.5840 O.co2 162  GLU162     -0.2457
     37  N         13.3260  -33.5110  -55.1210 N.3   167  ILE167     -0.1231
     38  CA        13.3920  -32.5370  -54.0410 C.3   167  ILE167      0.1692
     39  C         14.7800  -32.4700  -53.4110 C.2   167  ILE167      0.2592
     40  O         15.2810  -33.4610  -52.8660 O.2   167  ILE167     -0.2718
     41  CB        12.3690  -32.8450  -52.9340 C.3   167  ILE167      0.0266
     42  CG1       10.9570  -32.8540  -53.5100 C.3   167  ILE167      0.0019
     43  CG2       12.4710  -31.8060  -51.8130 C.3   167  ILE167      0.0020
     44  CD1        9.8960  -33.2760  -52.5190 C.3   167  ILE167      0.0001
     45  N         15.3940  -31.2930  -53.4730 N.am  168  GLY168     -0.1957
     46  CA        16.6710  -31.0710  -52.8220 C.3   168  GLY168      0.1869
     47  C         17.8770  -31.7070  -53.4940 C.2   168  GLY168      0.2309
     48  O         19.0040  -31.5080  -53.0340 O.2   168  GLY168     -0.2863
     49  N         10.5050  -29.4050  -57.0310 N.3   207  GLY207     -0.1210
     50  CA        11.5340  -30.4230  -57.1490 C.3   207  GLY207      0.1956
     51  C         12.7590  -29.8490  -57.8230 C.2   207  GLY207      0.2613
     52  O         12.9450  -30.0080  -59.0280 O.2   207  GLY207     -0.2717
     53  N         13.5840  -29.1580  -57.0390 N.am  208  SER208     -0.1938
     54  CA        14.7890  -28.5200  -57.5420 C.3   208  SER208      0.2055
     55  C         14.5430  -27.5010  -58.6570 C.2   208  SER208      0.2642
     56  O         15.2670  -27.4820  -59.6510 O.2   208  SER208     -0.2714
     57  CB        15.8060  -29.5810  -57.9760 C.3   208  SER208      0.2130
     58  OG        16.1890  -30.3420  -56.8380 O.3   208  SER208     -0.2179
     59  N         13.5260  -26.6550  -58.4860 N.am  209  VAL209     -0.1977
     60  CA        13.3190  -25.5370  -59.4070 C.3   209  VAL209      0.1596
     61  C         14.3820  -24.4710  -59.1370 C.2   209  VAL209      0.2287
     62  O         14.6510  -24.1490  -57.9820 O.2   209  VAL209     -0.2864
     63  CB        11.9130  -24.9430  -59.2400 C.3   209  VAL209      0.0276
     64  CG1       11.7710  -23.6470  -60.0540 C.3   209  VAL209      0.0022
     65  CG2       10.8730  -25.9850  -59.6730 C.3   209  VAL209      0.0022
     66  N          6.5010  -24.7050  -56.4650 N.3   227  LEU227     -0.1231
     67  CA         6.8320  -24.7390  -55.0520 C.3   227  LEU227      0.1693
     68  C          8.3500  -24.8980  -54.9650 C.2   227  LEU227      0.2592
     69  O          8.9320  -25.8520  -55.5070 O.2   227  LEU227     -0.2718
     70  CB         6.0960  -25.8810  -54.3410 C.3   227  LEU227      0.0284
     71  CG         6.1150  -25.8290  -52.8140 C.3   227  LEU227      0.0019
     72  CD1        5.6080  -24.4700  -52.3470 C.3   227  LEU227      0.0001
     73  CD2        5.2540  -26.9360  -52.2330 C.3   227  LEU227      0.0001
     74  N          8.9870  -23.9370  -54.2970 N.am  228  VAL228     -0.1966
     75  CA        10.4290  -23.7550  -54.3660 C.3   228  VAL228      0.1727
     76  C         11.0580  -23.8480  -52.9770 C.2   228  VAL228      0.2617
     77  O         10.6790  -23.0990  -52.0710 O.2   228  VAL228     -0.2715
     78  CB        10.7670  -22.3760  -54.9730 C.3   228  VAL228      0.0290
     79  CG1       12.2670  -22.2640  -55.2360 C.3   228  VAL228      0.0023
     80  CG2        9.9730  -22.1430  -56.2780 C.3   228  VAL228      0.0023
     81  N         12.0210  -24.7580  -52.8070 N.am  229  GLY229     -0.1940
     82  CA        12.7070  -24.8950  -51.5310 C.3   229  GLY229      0.2014
     83  C         14.0290  -24.1440  -51.4670 C.2   229  GLY229      0.2639
     84  O         14.0750  -22.9650  -51.0950 O.2   229  GLY229     -0.2714
     85  N         15.1170  -24.8210  -51.8320 N.am  230  GLY230     -0.1939
     86  CA        16.4390  -24.2430  -51.6660 C.3   230  GLY230      0.2014
     87  C         16.5820  -22.8790  -52.3170 C.2   230  GLY230      0.2638
     88  O         17.2040  -21.9710  -51.7540 O.2   230  GLY230     -0.2714
     89  N         16.0100  -22.7230  -53.5110 N.am  231  ALA231     -0.1977
     90  CA        16.1670  -21.4730  -54.2610 C.3   231  ALA231      0.1597
     91  C         15.3660  -20.3280  -53.6460 C.2   231  ALA231      0.2287
     92  O         15.6280  -19.1480  -53.9200 O.2   231  ALA231     -0.2864
     93  CB        15.7880  -21.6650  -55.7340 C.3   231  ALA231      0.0319
@<TRIPOS>BOND
     1    64    63    1
     2    65    63    1
     3    56    55    2
     4    60    63    1
     5    60    61    1
     6    60    59    1
     7    61    62    2
     8    52    51    2
     9    55    59   am
    10    55    54    1
    11    57    54    1
    12    57    58    1
    13    51    50    1
    14    51    53   am
    15    54    53    1
    16    50    49    1
    17    28    29    1
    18    66    67    1
    19    29    30    1
    20    29    32    1
    21    30    31    2
    22    80    78    1
    23    93    90    1
    24    69    68    2
    25    79    78    1
    26    37    38    1
    27    32    33    1
    28    67    68    1
    29    67    70    1
    30    78    75    1
    31    68    74   am
    32    33    34    1
    33    75    74    1
    34    75    76    1
    35    70    71    1
    36    90    91    1
    37    90    89    1
    38    38    39    1
    39    38    41    1
    40    35    34   ar
    41    92    91    2
    42    34    36   ar
    43    89    87   am
    44    42    41    1
    45    42    44    1
    46    47    48    2
    47    47    46    1
    48    45    39   am
    49    45    46    1
    50    39    40    2
    51    76    81   am
    52    76    77    2
    53    41    43    1
    54    71    72    1
    55    71    73    1
    56    81    82    1
    57    87    88    2
    58    87    86    1
    59    85    86    1
    60    85    83   am
    61    82    83    1
    62    83    84    2
    63     1     2    1
    64    27    25   ar
    65    27    26   ar
    66    25    23   ar
    67     5     2    1
    68     5     6    1
    69    17    16    1
    70    26    24   ar
    71     2     3    1
    72     4     3    2
    73    23    24   ar
    74    23    22    1
    75    16    15    1
    76     8     6   am
    77    19    20    1
    78    19    22    1
    79    19    18    1
    80     6     7    2
    81    20    21    2
    82    15    14    1
    83    14    13    1
    84     9    10    1
    85    13    10    1
    86    10    11    1
    87    11    12    2
