@<TRIPOS>MOLECULE
tmp/5ez1B00.pdb
 93 89 0 0 0
SMALL
GASTEIGER

@<TRIPOS>ATOM
      1  N          4.5340   31.7790    7.3770 N.3    96  HIS96      -0.1241
      2  CA         4.8220   33.0930    7.9440 C.3    96  HIS96       0.1621
      3  C          6.2120   33.5990    7.6100 C.2    96  HIS96       0.2264
      4  O          7.1070   32.8570    7.1940 O.2    96  HIS96      -0.2867
      5  CB         4.6350   33.1020    9.4600 C.3    96  HIS96       0.0745
      6  CG         5.8850   32.7530   10.2050 C.ar   96  HIS96       0.0817
      7  ND1        6.5720   31.5770    9.9990 N.ar   96  HIS96      -0.2268
      8  CD2        6.5770   33.4380   11.1450 C.ar   96  HIS96       0.1154
      9  CE1        7.6370   31.5460   10.7850 C.ar   96  HIS96       0.1986
     10  NE2        7.6610   32.6600   11.4890 N.ar   96  HIS96      -0.2212
     11  N          9.0780   36.2630    9.3560 N.3    98  LEU98      -0.1245
     12  CA         9.4770   37.0960   10.4690 C.3    98  LEU98       0.1561
     13  C         10.6070   37.9930    9.9940 C.2    98  LEU98       0.2260
     14  O         11.5180   37.5290    9.3180 O.2    98  LEU98      -0.2867
     15  CB         9.9260   36.2410   11.6460 C.3    98  LEU98       0.0270
     16  CG        10.3930   37.0610   12.8390 C.3    98  LEU98       0.0019
     17  CD1        9.3430   38.0750   13.2380 C.3    98  LEU98       0.0001
     18  CD2       10.7380   36.1560   13.9800 C.3    98  LEU98       0.0001
     19  N         13.0600   33.5810   11.4590 N.3   134  ASP134     -0.1225
     20  CA        12.7670   32.3490   12.1900 C.3   134  ASP134      0.1790
     21  C         13.8530   31.3140   11.7370 C.2   134  ASP134      0.2439
     22  O         13.8660   30.8990   10.5690 O.2   134  ASP134     -0.2733
     23  CB        11.3150   31.8900   11.8660 C.3   134  ASP134      0.1423
     24  CG        10.9180   30.5510   12.5190 C.2   134  ASP134      0.3668
     25  OD1       11.6790   29.9540   13.3070 O.co2 134  ASP134     -0.2456
     26  OD2        9.7980   30.0810   12.2330 O.co2 134  ASP134     -0.2456
     27  N         14.7880   30.9250   12.6520 N.am  135  PRO135     -0.2729
     28  CA        15.9700   30.0740   12.3660 C.3   135  PRO135      0.1401
     29  C         15.5810   28.6410   12.0250 C.2   135  PRO135      0.2269
     30  O         16.2440   27.9730   11.2180 O.2   135  PRO135     -0.2865
     31  CB        16.7740   30.1070   13.6700 C.3   135  PRO135      0.0296
     32  CG        16.2520   31.2760   14.4170 C.3   135  PRO135      0.0237
     33  CD        14.8060   31.4050   14.0460 C.3   135  PRO135      0.0939
     34  N          4.3840   26.3910    8.9000 N.3   146  LEU146     -0.1245
     35  CA         4.2540   26.1190   10.3300 C.3   146  LEU146      0.1561
     36  C          3.5230   24.8260   10.6860 C.2   146  LEU146      0.2260
     37  O          3.2420   24.5790   11.8640 O.2   146  LEU146     -0.2867
     38  CB         3.5980   27.3080   11.0250 C.3   146  LEU146      0.0270
     39  CG         4.5370   28.5130   10.9390 C.3   146  LEU146      0.0019
     40  CD1        3.7880   29.8300   11.1690 C.3   146  LEU146      0.0001
     41  CD2        5.7130   28.3390   11.9020 C.3   146  LEU146      0.0001
     42  N          0.0080   29.8350   19.7830 N.3   154  MET154     -0.1230
     43  CA         0.7800   30.9600   19.2740 C.3   154  MET154      0.1702
     44  C          0.6420   32.2170   20.1350 C.2   154  MET154      0.2592
     45  O         -0.2460   32.3150   20.9830 O.2   154  MET154     -0.2718
     46  CB         0.2980   31.2630   17.8550 C.3   154  MET154      0.0401
     47  CG         0.0800   30.0130   17.0240 C.3   154  MET154      0.0596
     48  SD         1.6320   29.4240   16.2770 S.3   154  MET154     -0.1393
     49  CE         2.3460   28.3080   17.4920 C.3   154  MET154      0.0692
     50  N          1.5270   33.1840   19.9060 N.am  155  ALA155     -0.1980
     51  CA         1.3840   34.4910   20.5270 C.3   155  ALA155      0.1597
     52  C          0.0400   35.0530   20.1090 C.2   155  ALA155      0.2287
     53  O         -0.3240   34.9420   18.9400 O.2   155  ALA155     -0.2864
     54  CB         2.4850   35.4150   20.0700 C.3   155  ALA155      0.0319
     55  N         -0.2610   37.0320   17.0590 N.3   158  PHE158     -0.1241
     56  CA        -0.0730   36.2000   15.8710 C.3   158  PHE158      0.1605
     57  C         -1.3720   35.4800   15.5080 C.2   158  PHE158      0.2264
     58  O         -1.8410   35.5370   14.3640 O.2   158  PHE158     -0.2867
     59  CB         1.0300   35.1570   16.0810 C.3   158  PHE158      0.0534
     60  CG         1.2900   34.3080   14.8630 C.ar  158  PHE158     -0.0203
     61  CD1        0.5630   33.1430   14.6390 C.ar  158  PHE158     -0.0042
     62  CD2        2.2440   34.6900   13.9230 C.ar  158  PHE158     -0.0042
     63  CE1        0.7890   32.3710   13.5050 C.ar  158  PHE158     -0.0003
     64  CE2        2.4860   33.9130   12.7860 C.ar  158  PHE158     -0.0003
     65  CZ         1.7530   32.7540   12.5790 C.ar  158  PHE158     -0.0000
     66  N          5.0440   41.3530   16.8090 N.3   177  THR177     -0.1218
     67  CA         5.3760   40.3970   17.8700 C.3   177  THR177      0.1862
     68  C          6.7230   40.8250   18.4740 C.2   177  THR177      0.2287
     69  O          7.3780   41.7120   17.9270 O.2   177  THR177     -0.2866
     70  CB         5.4730   38.9610   17.3140 C.3   177  THR177      0.1770
     71  OG1        5.4220   38.0160   18.3900 O.3   177  THR177     -0.2211
     72  CG2        6.7670   38.7710   16.5800 C.3   177  THR177      0.0375
     73  N          9.4130   39.0520   18.5690 N.3   179  PHE179     -0.1241
     74  CA        10.4460   38.4820   17.7050 C.3   179  PHE179      0.1605
     75  C         10.6950   39.3380   16.4610 C.2   179  PHE179      0.2264
     76  O         11.6380   39.1000   15.7090 O.2   179  PHE179     -0.2867
     77  CB        10.0560   37.0680   17.2890 C.3   179  PHE179      0.0534
     78  CG         9.6350   36.1840   18.4350 C.ar  179  PHE179     -0.0203
     79  CD1       10.5840   35.6130   19.2780 C.ar  179  PHE179     -0.0042
     80  CD2        8.2870   35.9290   18.6690 C.ar  179  PHE179     -0.0042
     81  CE1       10.2000   34.7980   20.3270 C.ar  179  PHE179     -0.0003
     82  CE2        7.8910   35.1150   19.7190 C.ar  179  PHE179     -0.0003
     83  CZ         8.8520   34.5500   20.5500 C.ar  179  PHE179     -0.0000
     84  N          5.6970   40.3070   11.5130 N.3   182  HIS182     -0.1241
     85  CA         5.2560   39.1240   10.7890 C.3   182  HIS182      0.1621
     86  C          4.3980   39.4160    9.5650 C.2   182  HIS182      0.2264
     87  O          3.6700   40.4030    9.5100 O.2   182  HIS182     -0.2867
     88  CB         4.4770   38.2230   11.7300 C.3   182  HIS182      0.0745
     89  CG         5.3460   37.3860   12.6080 C.ar  182  HIS182      0.0817
     90  ND1        5.1050   37.2250   13.9550 N.ar  182  HIS182     -0.2268
     91  CD2        6.4480   36.6490   12.3270 C.ar  182  HIS182      0.1154
     92  CE1        6.0210   36.4230   14.4670 C.ar  182  HIS182      0.1986
     93  NE2        6.8490   36.0630   13.5030 N.ar  182  HIS182     -0.2212
@<TRIPOS>BOND
     1     4     3    2
     2     1     2    1
     3     3     2    1
     4     2     5    1
     5    34    35    1
     6    14    13    2
     7    11    12    1
     8     5     6    1
     9    87    86    2
    10    86    85    1
    11    13    12    1
    12     7     6   ar
    13     7     9   ar
    14     6     8   ar
    15    35    36    1
    16    35    38    1
    17    12    15    1
    18    22    21    2
    19    36    37    2
    20     9    10   ar
    21    85    84    1
    22    85    88    1
    23    39    38    1
    24    39    40    1
    25    39    41    1
    26     8    10   ar
    27    30    29    2
    28    19    20    1
    29    15    16    1
    30    88    89    1
    31    21    20    1
    32    21    27   am
    33    23    20    1
    34    23    24    1
    35    29    28    1
    36    26    24   ar
    37    91    89   ar
    38    91    93   ar
    39    28    27    1
    40    28    31    1
    41    24    25   ar
    42    65    64   ar
    43    65    63   ar
    44    89    90   ar
    45    27    33    1
    46    64    62   ar
    47    16    17    1
    48    16    18    1
    49    93    92   ar
    50    63    61   ar
    51    31    32    1
    52    62    60   ar
    53    90    92   ar
    54    33    32    1
    55    58    57    2
    56    61    60   ar
    57    60    59    1
    58    57    56    1
    59    76    75    2
    60    56    59    1
    61    56    55    1
    62    48    47    1
    63    48    49    1
    64    75    74    1
    65    72    70    1
    66    66    67    1
    67    47    46    1
    68    77    74    1
    69    77    78    1
    70    70    67    1
    71    70    71    1
    72    74    73    1
    73    46    43    1
    74    67    68    1
    75    69    68    2
    76    78    80   ar
    77    78    79   ar
    78    80    82   ar
    79    53    52    2
    80    43    42    1
    81    43    44    1
    82    79    81   ar
    83    82    83   ar
    84    50    44   am
    85    50    51    1
    86    54    51    1
    87    52    51    1
    88    44    45    2
    89    81    83   ar
