@<TRIPOS>MOLECULE
tmp/5ez3B01.pdb
 202 194 0 0 0
SMALL
GASTEIGER

@<TRIPOS>ATOM
      1  N         25.3500   82.7190    2.2340 N.3   135  MET135     -0.1245
      2  CA        26.4710   82.7990    3.1630 C.3   135  MET135      0.1570
      3  C         26.7760   84.2460    3.5330 C.2   135  MET135      0.2261
      4  O         27.0580   84.5430    4.7000 O.2   135  MET135     -0.2867
      5  CB        27.7020   82.1090    2.5680 C.3   135  MET135      0.0387
      6  CG        27.5790   80.5870    2.4470 C.3   135  MET135      0.0595
      7  SD        29.1440   79.7500    2.0420 S.3   135  MET135     -0.1393
      8  CE        29.5660   80.4610    0.4460 C.3   135  MET135      0.0692
      9  N         32.2350   80.3470    4.0560 N.3   179  MET179     -0.1245
     10  CA        32.3500   79.5830    5.3010 C.3   179  MET179      0.1570
     11  C         33.3610   78.4500    5.1640 C.2   179  MET179      0.2261
     12  O         33.2800   77.6500    4.2310 O.2   179  MET179     -0.2867
     13  CB        31.0030   78.9840    5.7280 C.3   179  MET179      0.0387
     14  CG        29.8900   79.9760    5.8660 C.3   179  MET179      0.0595
     15  SD        28.3250   79.1920    6.2770 S.3   179  MET179     -0.1393
     16  CE        27.3600   80.6610    6.5860 C.3   179  MET179      0.0692
     17  N         34.1320   75.4990    7.4330 N.3   181  MET181     -0.1230
     18  CA        33.8120   74.6880    8.6030 C.3   181  MET181      0.1702
     19  C         34.2940   73.2500    8.4510 C.2   181  MET181      0.2593
     20  O         35.1400   72.7910    9.2310 O.2   181  MET181     -0.2718
     21  CB        32.2930   74.7240    8.8730 C.3   181  MET181      0.0401
     22  CG        31.6990   76.1320    9.0530 C.3   181  MET181      0.0596
     23  SD        29.9560   76.1740    9.5800 S.3   181  MET181     -0.1393
     24  CE        29.1090   75.5000    8.1510 C.3   181  MET181      0.0692
     25  N         33.7860   72.5350    7.4480 N.am  182  THR182     -0.1939
     26  CA        34.0530   71.1120    7.2770 C.3   182  THR182      0.2028
     27  C         35.5270   70.8040    7.0260 C.2   182  THR182      0.2642
     28  O         36.1980   71.4830    6.2400 O.2   182  THR182     -0.2714
     29  CB        33.2200   70.5880    6.1090 C.3   182  THR182      0.1808
     30  OG1       31.8360   70.8180    6.3890 O.3   182  THR182     -0.2208
     31  CG2       33.4800   69.0920    5.8720 C.3   182  THR182      0.0379
     32  N         36.0150   69.7500    7.6900 N.am  183  GLU183     -0.1963
     33  CA        37.3110   69.1390    7.4410 C.3   183  GLU183      0.1733
     34  C         37.1140   67.6740    7.0390 C.2   183  GLU183      0.2616
     35  O         36.0200   67.1150    7.1590 O.2   183  GLU183     -0.2715
     36  CB        38.2260   69.2820    8.6740 C.3   183  GLU183      0.0429
     37  CG        38.5930   70.7470    8.9320 C.3   183  GLU183      0.1163
     38  CD        39.6300   70.9820   10.0340 C.2   183  GLU183      0.3649
     39  OE1       40.4370   70.0750   10.3720 O.co2 183  GLU183     -0.2457
     40  OE2       39.6450   72.1160   10.5620 O.co2 183  GLU183     -0.2457
     41  N         38.1900   67.0520    6.5300 N.am  184  LYS184     -0.1963
     42  CA        38.0950   65.6870    6.0000 C.3   184  LYS184      0.1728
     43  C         37.6220   64.6790    7.0540 C.2   184  LYS184      0.2616
     44  O         36.9260   63.7090    6.7120 O.2   184  LYS184     -0.2715
     45  CB        39.4360   65.2460    5.4150 C.3   184  LYS184      0.0311
     46  CG        39.8200   65.9640    4.1130 C.3   184  LYS184      0.0038
     47  CD        41.2890   65.6830    3.7600 C.3   184  LYS184      0.0206
     48  CE        41.8400   66.6840    2.7250 C.3   184  LYS184      0.1093
     49  NZ        43.2680   66.4050    2.3470 N.3   184  LYS184     -0.1314
     50  N         37.9920   64.8800    8.3260 N.am  185  GLN185     -0.1963
     51  CA        37.5820   63.9840    9.4090 C.3   185  GLN185      0.1736
     52  C         36.1700   64.2680    9.9350 C.2   185  GLN185      0.2656
     53  O         35.7090   63.5370   10.8190 O.2   185  GLN185     -0.2711
     54  CB        38.5840   64.0390   10.5770 C.3   185  GLN185      0.0408
     55  CG        38.6390   65.3460   11.3740 C.3   185  GLN185      0.0908
     56  CD        39.4950   66.4180   10.7130 C.2   185  GLN185      0.2608
     57  OE1       39.8480   66.3100    9.5400 O.2   185  GLN185     -0.2717
     58  NE2       39.8600   67.4430   11.4780 N.am  185  GLN185     -0.0878
     59  N         35.4930   65.3150    9.4470 N.am  186  GLY186     -0.1716
     60  CA        34.1150   65.5890    9.8300 C.2   186  GLY186      0.1480
     61  C         33.6130   67.0030    9.5780 C.2   186  GLY186      0.2821
     62  O         34.3540   67.9740    9.7720 O.2   186  GLY186     -0.2669
     63  N         32.3670   67.1250    9.1140 N.am  187  GLY187     -0.1905
     64  CA        31.6690   68.3990    9.0170 C.3   187  GLY187      0.2017
     65  C         30.6390   68.5840   10.1250 C.2   187  GLY187      0.2640
     66  O         30.3560   69.7120   10.5410 O.2   187  GLY187     -0.2714
     67  N         30.0710   67.4760   10.6180 N.am  188  THR188     -0.1936
     68  CA        29.1410   67.5520   11.7470 C.3   188  THR188      0.2028
     69  C         29.8760   67.8610   13.0420 C.2   188  THR188      0.2642
     70  O         29.4870   68.7620   13.7960 O.2   188  THR188     -0.2714
     71  CB        28.3870   66.2300   11.9080 C.3   188  THR188      0.1808
     72  OG1       27.7490   65.8730   10.6750 O.3   188  THR188     -0.2208
     73  CG2       27.3630   66.3460   13.0230 C.3   188  THR188      0.0379
     74  N         30.9380   67.1050   13.3200 N.am  189  ASP189     -0.1971
     75  CA        31.6880   67.2190   14.5660 C.3   189  ASP189      0.1709
     76  C         32.7930   68.2590   14.3700 C.2   189  ASP189      0.2293
     77  O         33.9750   67.9370   14.2030 O.2   189  ASP189     -0.2864
     78  CB        32.2460   65.8550   14.9610 C.3   189  ASP189      0.1436
     79  CG        32.7740   65.8290   16.3680 C.2   189  ASP189      0.3671
     80  OD1       32.7400   66.8870   17.0280 O.co2 189  ASP189     -0.2456
     81  OD2       33.2420   64.7560   16.8040 O.co2 189  ASP189     -0.2456
     82  N         37.6950   71.1000    3.7340 N.3   212  TRP212     -0.1227
     83  CA        37.4520   70.0430    2.7540 C.3   212  TRP212      0.1737
     84  C         36.3860   70.4220    1.7320 C.2   212  TRP212      0.2595
     85  O         36.3770   69.8650    0.6270 O.2   212  TRP212     -0.2718
     86  CB        37.0590   68.7590    3.5160 C.3   212  TRP212      0.0564
     87  CG        36.7220   67.5090    2.7080 C.ar  212  TRP212      0.0003
     88  CD1       35.6070   66.7050    2.8640 C.ar  212  TRP212      0.0946
     89  CD2       37.5060   66.9020    1.6630 C.ar  212  TRP212      0.0152
     90  NE1       35.6530   65.6540    1.9760 N.ar  212  TRP212     -0.2442
     91  CE2       36.8030   65.7470    1.2290 C.ar  212  TRP212      0.0810
     92  CE3       38.7270   67.2240    1.0470 C.ar  212  TRP212      0.0012
     93  CZ2       37.2880   64.9110    0.2130 C.ar  212  TRP212      0.0191
     94  CZ3       39.2100   66.3910    0.0370 C.ar  212  TRP212      0.0001
     95  CH2       38.4860   65.2480   -0.3710 C.ar  212  TRP212      0.0015
     96  N         35.4980   71.3520    2.0900 N.am  213  PHE213     -0.1976
     97  CA        34.4180   71.8620    1.2530 C.3   213  PHE213      0.1639
     98  C         34.3660   73.3630    1.4970 C.2   213  PHE213      0.2290
     99  O         33.9080   73.7820    2.5640 O.2   213  PHE213     -0.2864
    100  CB        33.0710   71.2520    1.6500 C.3   213  PHE213      0.0560
    101  CG        32.6650   70.0310    0.8790 C.ar  213  PHE213     -0.0200
    102  CD1       33.0810   68.7640    1.2770 C.ar  213  PHE213     -0.0042
    103  CD2       31.8080   70.1470   -0.2090 C.ar  213  PHE213     -0.0042
    104  CE1       32.6700   67.6400    0.5700 C.ar  213  PHE213     -0.0003
    105  CE2       31.3890   69.0360   -0.9130 C.ar  213  PHE213     -0.0003
    106  CZ        31.8160   67.7800   -0.5290 C.ar  213  PHE213     -0.0000
    107  N         32.7360   76.4270   -0.5300 N.3   215  SER215     -0.1217
    108  CA        31.9950   76.9040   -1.6870 C.3   215  SER215      0.1889
    109  C         32.2660   78.3860   -1.9070 C.2   215  SER215      0.2288
    110  O         32.7300   79.0930   -1.0110 O.2   215  SER215     -0.2866
    111  CB        30.4930   76.6740   -1.5100 C.3   215  SER215      0.2089
    112  OG        30.2030   75.3000   -1.3490 O.3   215  SER215     -0.2183
    113  N         30.6490   67.8200   -8.9250 N.3   257  LYS257     -0.1245
    114  CA        29.4330   67.6330   -8.1380 C.3   257  LYS257      0.1561
    115  C         28.2630   67.0800   -8.9510 C.2   257  LYS257      0.2260
    116  O         28.0860   67.3920  -10.1320 O.2   257  LYS257     -0.2867
    117  CB        29.0080   68.9510   -7.4780 C.3   257  LYS257      0.0271
    118  CG        30.1240   69.6100   -6.6630 C.3   257  LYS257      0.0035
    119  CD        29.6040   70.7210   -5.7500 C.3   257  LYS257      0.0206
    120  CE        29.2390   71.9580   -6.5400 C.3   257  LYS257      0.1093
    121  NZ        28.9230   73.1430   -5.6600 N.3   257  LYS257     -0.1314
    122  N         24.2030   71.4790   -8.2660 N.3   260  ASN260     -0.1240
    123  CA        24.7700   72.6980   -7.6720 C.3   260  ASN260      0.1653
    124  C         26.0400   73.1320   -8.4260 C.2   260  ASN260      0.2266
    125  O         26.8800   73.8610   -7.8900 O.2   260  ASN260     -0.2867
    126  CB        25.0520   72.4720   -6.1760 C.3   260  ASN260      0.1155
    127  CG        25.2300   73.7640   -5.4000 C.2   260  ASN260      0.2627
    128  OD1       26.3070   74.0440   -4.8600 O.2   260  ASN260     -0.2716
    129  ND2       24.1700   74.5550   -5.3360 N.am  260  ASN260     -0.0877
    130  N         32.8040   74.5710   -5.6230 N.3   265  SER265     -0.1217
    131  CA        33.1500   74.1420   -4.2680 C.3   265  SER265      0.1889
    132  C         34.5920   73.6540   -4.2850 C.2   265  SER265      0.2288
    133  O         34.9230   72.7390   -5.0420 O.2   265  SER265     -0.2866
    134  CB        32.2110   73.0390   -3.7760 C.3   265  SER265      0.2089
    135  OG        30.8700   73.5180   -3.6480 O.3   265  SER265     -0.2183
    136  N         21.2280   68.8130   -2.3690 N.3   418  VAL418     -0.1245
    137  CA        22.2940   69.6380   -1.8070 C.3   418  VAL418      0.1561
    138  C         21.7900   70.4350   -0.6100 C.2   418  VAL418      0.2260
    139  O         22.4960   70.5730    0.3940 O.2   418  VAL418     -0.2867
    140  CB        22.9270   70.5500   -2.8740 C.3   418  VAL418      0.0252
    141  CG1       22.1070   71.8230   -3.0880 C.3   418  VAL418      0.0019
    142  CG2       24.3400   70.9150   -2.4500 C.3   418  VAL418      0.0019
    143  N         21.8710   68.1960    2.3660 N.3   421  ILE421     -0.1231
    144  CA        23.1800   67.6930    2.7920 C.3   421  ILE421      0.1692
    145  C         24.0920   68.8290    3.2340 C.2   421  ILE421      0.2592
    146  O         24.9420   68.6310    4.1090 O.2   421  ILE421     -0.2718
    147  CB        23.8700   66.8870    1.6690 C.3   421  ILE421      0.0266
    148  CG1       23.0930   65.6290    1.2940 C.3   421  ILE421      0.0019
    149  CG2       25.2910   66.4740    2.0680 C.3   421  ILE421      0.0020
    150  CD1       23.7150   64.9050    0.0870 C.3   421  ILE421      0.0001
    151  N         23.9210   70.0200    2.6850 N.am  422  TRP422     -0.1962
    152  CA        24.7320   71.1430    3.1200 C.3   422  TRP422      0.1771
    153  C         24.4580   71.4530    4.5930 C.2   422  TRP422      0.2619
    154  O         23.3010   71.5120    5.0210 O.2   422  TRP422     -0.2715
    155  CB        24.4460   72.3400    2.2070 C.3   422  TRP422      0.0590
    156  CG        24.4570   73.6670    2.8530 C.ar  422  TRP422      0.0006
    157  CD1       23.4820   74.1970    3.6430 C.ar  422  TRP422      0.0946
    158  CD2       25.4720   74.6700    2.7380 C.ar  422  TRP422      0.0152
    159  NE1       23.8360   75.4570    4.0520 N.ar  422  TRP422     -0.2442
    160  CE2       25.0510   75.7750    3.5040 C.ar  422  TRP422      0.0810
    161  CE3       26.6980   74.7400    2.0690 C.ar  422  TRP422      0.0012
    162  CZ2       25.8110   76.9330    3.6220 C.ar  422  TRP422      0.0191
    163  CZ3       27.4510   75.8920    2.1870 C.ar  422  TRP422      0.0001
    164  CH2       27.0050   76.9730    2.9590 C.ar  422  TRP422      0.0015
    165  N         25.5380   71.5840    5.3730 N.am  423  GLU423     -0.1977
    166  CA        25.5250   71.9830    6.7810 C.3   423  GLU423      0.1602
    167  C         25.1300   70.8310    7.7150 C.2   423  GLU423      0.2287
    168  O         25.9770   70.0110    8.0860 O.2   423  GLU423     -0.2864
    169  CB        24.6190   73.2090    6.9600 C.3   423  GLU423      0.0415
    170  CG        24.8000   73.9500    8.2630 C.3   423  GLU423      0.1163
    171  CD        23.8860   73.4230    9.3510 C.2   423  GLU423      0.3649
    172  OE1       22.6560   73.3530    9.1110 O.co2 423  GLU423     -0.2457
    173  OE2       24.3980   73.0530   10.4330 O.co2 423  GLU423     -0.2457
    174  N         22.5520   67.5700    8.0950 N.3   425  SER425     -0.1217
    175  CA        21.6580   66.6480    7.4140 C.3   425  SER425      0.1889
    176  C         20.5220   66.2180    8.3440 C.2   425  SER425      0.2288
    177  O         20.3820   66.6980    9.4740 O.2   425  SER425     -0.2866
    178  CB        22.4540   65.4600    6.8930 C.3   425  SER425      0.2089
    179  OG        23.2920   64.9830    7.9210 O.3   425  SER425     -0.2183
    180  N         19.7230   63.5910   10.2080 N.3   427  ASN427     -0.1225
    181  CA        19.9400   63.0920   11.5630 C.3   427  ASN427      0.1785
    182  C         20.3490   64.2190   12.5010 C.2   427  ASN427      0.2597
    183  O         19.9500   64.2380   13.6710 O.2   427  ASN427     -0.2718
    184  CB        20.9860   61.9770   11.5640 C.3   427  ASN427      0.1169
    185  CG        20.4860   60.7000   10.9190 C.2   427  ASN427      0.2627
    186  OD1       19.3220   60.6020   10.5130 O.2   427  ASN427     -0.2716
    187  ND2       21.3670   59.7170   10.8080 N.am  427  ASN427     -0.0877
    188  N         21.1190   65.1840   11.9930 N.am  428  VAL428     -0.1980
    189  CA        21.5570   66.3150   12.8060 C.3   428  VAL428      0.1595
    190  C         20.3800   67.2320   13.1320 C.2   428  VAL428      0.2287
    191  O         20.2330   67.6860   14.2710 O.2   428  VAL428     -0.2864
    192  CB        22.6940   67.0750   12.0910 C.3   428  VAL428      0.0276
    193  CG1       23.0800   68.3420   12.8620 C.3   428  VAL428      0.0022
    194  CG2       23.9110   66.1690   11.9050 C.3   428  VAL428      0.0022
    195  N         18.1600   65.3970   15.8160 N.3   431  LEU431     -0.1245
    196  CA        18.7360   65.3920   17.1590 C.3   431  LEU431      0.1561
    197  C         18.6710   66.7770   17.7810 C.2   431  LEU431      0.2260
    198  O         18.4430   66.9120   18.9870 O.2   431  LEU431     -0.2867
    199  CB        20.1800   64.8880   17.1210 C.3   431  LEU431      0.0270
    200  CG        20.3340   63.4220   16.7040 C.3   431  LEU431      0.0019
    201  CD1       21.7990   63.0180   16.5810 C.3   431  LEU431      0.0001
    202  CD2       19.5930   62.5030   17.6580 C.3   431  LEU431      0.0001
@<TRIPOS>BOND
     1   116   115    2
     2   115   114    1
     3   113   114    1
     4   124   125    2
     5   124   123    1
     6   122   123    1
     7   114   117    1
     8   123   126    1
     9   117   118    1
    10   118   119    1
    11   120   119    1
    12   120   121    1
    13   126   127    1
    14   130   131    1
    15   127   129   am
    16   127   128    2
    17   133   132    2
    18   132   131    1
    19   131   134    1
    20   134   135    1
    21   141   140    1
    22   140   142    1
    23   140   137    1
    24   136   137    1
    25   109   108    1
    26   109   110    2
    27   137   138    1
    28   108   111    1
    29   108   107    1
    30   111   112    1
    31   105   106   ar
    32   105   103   ar
    33   138   139    2
    34   106   104   ar
    35    95    94   ar
    36    95    93   ar
    37   103   101   ar
    38    94    92   ar
    39   150   148    1
    40    93    91   ar
    41     8     7    1
    42   104   102   ar
    43    85    84    2
    44   101   102   ar
    45   101   100    1
    46    92    89   ar
    47    91    89   ar
    48    91    90   ar
    49    97    98    1
    50    97   100    1
    51    97    96    1
    52   148   147    1
    53    98    99    2
    54    89    87   ar
    55   147   149    1
    56   147   144    1
    57    84    96   am
    58    84    83    1
    59    90    88   ar
    60     7     6    1
    61   161   163   ar
    62   161   158   ar
    63   163   164   ar
    64   155   156    1
    65   155   152    1
    66     1     2    1
    67    49    48    1
    68   143   144    1
    69     6     5    1
    70     5     2    1
    71   151   152    1
    72   151   145   am
    73    87    88   ar
    74    87    86    1
    75    48    47    1
    76   158   156   ar
    77   158   160   ar
    78    83    86    1
    79    83    82    1
    80   144   145    1
    81   156   157   ar
    82   164   162   ar
    83   152   153    1
    84     2     3    1
    85   145   146    2
    86   160   162   ar
    87   160   159   ar
    88     3     4    2
    89   157   159   ar
    90    47    46    1
    91     9    10    1
    92    46    45    1
    93    12    11    2
    94   153   154    2
    95   153   165   am
    96    11    10    1
    97    10    13    1
    98   165   166    1
    99    45    42    1
   100    13    14    1
   101    14    15    1
   102    31    29    1
   103    42    41    1
   104    42    43    1
   105    29    30    1
   106    29    26    1
   107    28    27    2
   108    15    16    1
   109    41    34   am
   110    44    43    2
   111   166   169    1
   112   166   167    1
   113   178   175    1
   114   178   179    1
   115   169   170    1
   116    27    26    1
   117    27    32   am
   118    34    35    2
   119    34    33    1
   120    43    50   am
   121    26    25    1
   122   175   174    1
   123   175   176    1
   124    17    18    1
   125    33    32    1
   126    33    36    1
   127    25    19   am
   128   167   168    2
   129    24    23    1
   130   170   171    1
   131    50    51    1
   132   176   177    2
   133    19    18    1
   134    19    20    2
   135    18    21    1
   136    36    37    1
   137    21    22    1
   138    37    38    1
   139    64    63    1
   140    64    65    1
   141    22    23    1
   142   172   171   ar
   143    63    61   am
   144   171   173   ar
   145    51    52    1
   146    51    54    1
   147    59    60    2
   148    59    52    1
   149    57    56    2
   150    61    62    2
   151    61    60    1
   152    52    53    2
   153    38    39   ar
   154    38    40   ar
   155    65    66    2
   156    65    67   am
   157   180   181    1
   158   186   185    2
   159    54    55    1
   160    67    68    1
   161    72    71    1
   162    56    55    1
   163    56    58   am
   164   187   185   am
   165   185   184    1
   166   181   184    1
   167   181   182    1
   168    68    71    1
   169    68    69    1
   170   194   192    1
   171    71    73    1
   172   188   182   am
   173   188   189    1
   174   192   189    1
   175   192   193    1
   176   182   183    2
   177   189   190    1
   178    69    74   am
   179    69    70    2
   180   190   191    2
   181    74    75    1
   182    77    76    2
   183    76    75    1
   184    75    78    1
   185    78    79    1
   186   195   196    1
   187    79    81   ar
   188    79    80   ar
   189   201   200    1
   190   200   199    1
   191   200   202    1
   192   199   196    1
   193   196   197    1
   194   197   198    2
