@<TRIPOS>MOLECULE
tmp/5ez3B02.pdb
 102 95 0 0 0
SMALL
GASTEIGER

@<TRIPOS>ATOM
      1  N         13.6570   85.1660   -2.6060 N.3   119  PHE119     -0.1241
      2  CA        14.5060   83.9820   -2.6410 C.3   119  PHE119      0.1605
      3  C         13.7770   82.8040   -3.2710 C.2   119  PHE119      0.2264
      4  O         14.3270   82.0900   -4.1180 O.2   119  PHE119     -0.2867
      5  CB        14.9310   83.6370   -1.2180 C.3   119  PHE119      0.0534
      6  CG        16.2850   83.0390   -1.1190 C.ar  119  PHE119     -0.0203
      7  CD1       17.4100   83.8400   -1.1830 C.ar  119  PHE119     -0.0042
      8  CD2       16.4420   81.6690   -0.9390 C.ar  119  PHE119     -0.0042
      9  CE1       18.6700   83.2890   -1.0760 C.ar  119  PHE119     -0.0003
     10  CE2       17.7010   81.1110   -0.8360 C.ar  119  PHE119     -0.0003
     11  CZ        18.8170   81.9270   -0.9050 C.ar  119  PHE119     -0.0000
     12  N         19.5960   77.9690   -8.7220 N.3   127  ALA127     -0.1245
     13  CA        19.8240   77.8540   -7.2880 C.3   127  ALA127      0.1562
     14  C         21.2920   77.9610   -6.8970 C.2   127  ALA127      0.2260
     15  O         21.5930   78.3560   -5.7640 O.2   127  ALA127     -0.2867
     16  CB        19.2790   76.5100   -6.7830 C.3   127  ALA127      0.0290
     17  N         22.7800   81.1490   -5.5030 N.3   130  LEU130     -0.1231
     18  CA        22.2400   81.5750   -4.2190 C.3   130  LEU130      0.1693
     19  C         23.1860   81.2580   -3.0670 C.2   130  LEU130      0.2592
     20  O         23.1070   81.9110   -2.0260 O.2   130  LEU130     -0.2718
     21  CB        20.8710   80.9340   -3.9720 C.3   130  LEU130      0.0284
     22  CG        19.7470   81.3490   -4.9350 C.3   130  LEU130      0.0019
     23  CD1       18.4060   80.6700   -4.5640 C.3   130  LEU130      0.0001
     24  CD2       19.6060   82.8430   -4.9270 C.3   130  LEU130      0.0001
     25  N         24.0860   80.2860   -3.2350 N.am  131  CYS131     -0.1970
     26  CA        24.9570   79.9010   -2.1260 C.3   131  CYS131      0.1712
     27  C         25.7900   81.0630   -1.5970 C.2   131  CYS131      0.2296
     28  O         25.7250   81.3320   -0.3840 O.2   131  CYS131     -0.2864
     29  CB        25.8320   78.7110   -2.5420 C.3   131  CYS131      0.0983
     30  SG        27.0770   78.2490   -1.2970 S.3   131  CYS131     -0.0798
     31  N         23.3880   83.4550    0.3120 N.3   134  THR134     -0.1218
     32  CA        22.9990   82.9210    1.6160 C.3   134  THR134      0.1862
     33  C         24.1270   83.0760    2.6300 C.2   134  THR134      0.2287
     34  O         23.9060   83.5160    3.7660 O.2   134  THR134     -0.2866
     35  CB        22.5990   81.4490    1.4720 C.3   134  THR134      0.1770
     36  OG1       21.3540   81.3770    0.7830 O.3   134  THR134     -0.2211
     37  CG2       22.4220   80.7770    2.8450 C.3   134  THR134      0.0375
     38  N         24.2030   71.4790   -8.2660 N.3   260  ASN260     -0.1240
     39  CA        24.7700   72.6980   -7.6720 C.3   260  ASN260      0.1653
     40  C         26.0400   73.1320   -8.4260 C.2   260  ASN260      0.2266
     41  O         26.8800   73.8610   -7.8900 O.2   260  ASN260     -0.2867
     42  CB        25.0520   72.4720   -6.1760 C.3   260  ASN260      0.1155
     43  CG        25.2300   73.7640   -5.4000 C.2   260  ASN260      0.2627
     44  OD1       26.3070   74.0440   -4.8600 O.2   260  ASN260     -0.2716
     45  ND2       24.1700   74.5550   -5.3360 N.am  260  ASN260     -0.0877
     46  N         17.0810   79.6190    4.5170 N.3   298  ASP298     -0.1225
     47  CA        17.3100   79.7210    3.0820 C.3   298  ASP298      0.1805
     48  C         17.2380   78.3480    2.4140 C.2   298  ASP298      0.2598
     49  O         16.7510   78.2270    1.2820 O.2   298  ASP298     -0.2718
     50  CB        18.6710   80.3690    2.8020 C.3   298  ASP298      0.1424
     51  CG        18.6520   81.8930    2.9110 C.2   298  ASP298      0.3668
     52  OD1       17.6260   82.4730    3.3100 O.co2 298  ASP298     -0.2456
     53  OD2       19.6890   82.5230    2.5930 O.co2 298  ASP298     -0.2456
     54  N         17.7860   77.3140    3.0660 N.am  299  CYS299     -0.1970
     55  CA        17.7510   75.9650    2.4900 C.3   299  CYS299      0.1712
     56  C         16.3210   75.4920    2.2840 C.2   299  CYS299      0.2296
     57  O         16.0090   74.8640    1.2660 O.2   299  CYS299     -0.2864
     58  CB        18.5000   74.9650    3.3750 C.3   299  CYS299      0.0983
     59  SG        20.2980   75.0950    3.3700 S.3   299  CYS299     -0.0798
     60  N         14.4720   77.7080   -0.5360 N.3   302  ALA302     -0.1245
     61  CA        14.9710   77.3620   -1.8650 C.3   302  ALA302      0.1562
     62  C         14.4950   75.9800   -2.3090 C.2   302  ALA302      0.2260
     63  O         14.2020   75.7780   -3.4920 O.2   302  ALA302     -0.2867
     64  CB        16.5050   77.4430   -1.9030 C.3   302  ALA302      0.0290
     65  N         19.8300   68.9370   -8.1610 N.3   415  GLU415     -0.1245
     66  CA        20.0310   70.0050   -7.1840 C.3   415  GLU415      0.1567
     67  C         19.4780   69.6320   -5.8140 C.2   415  GLU415      0.2260
     68  O         20.0690   69.9660   -4.7850 O.2   415  GLU415     -0.2867
     69  CB        19.3360   71.2780   -7.6800 C.3   415  GLU415      0.0388
     70  CG        19.6560   72.5230   -6.8930 C.3   415  GLU415      0.1160
     71  CD        21.0790   73.0280   -7.1540 C.2   415  GLU415      0.3649
     72  OE1       21.6470   72.7740   -8.2620 O.co2 415  GLU415     -0.2457
     73  OE2       21.6350   73.6910   -6.2520 O.co2 415  GLU415     -0.2457
     74  N         21.2280   68.8130   -2.3690 N.3   418  VAL418     -0.1231
     75  CA        22.2940   69.6380   -1.8070 C.3   418  VAL418      0.1692
     76  C         21.7900   70.4350   -0.6100 C.2   418  VAL418      0.2592
     77  O         22.4960   70.5730    0.3940 O.2   418  VAL418     -0.2718
     78  CB        22.9270   70.5500   -2.8740 C.3   418  VAL418      0.0266
     79  CG1       22.1070   71.8230   -3.0880 C.3   418  VAL418      0.0020
     80  CG2       24.3400   70.9150   -2.4500 C.3   418  VAL418      0.0020
     81  N         20.5590   70.9370   -0.6710 N.am  419  ASN419     -0.1974
     82  CA        20.0430   71.7160    0.4480 C.3   419  ASN419      0.1688
     83  C         19.8980   70.8720    1.7110 C.2   419  ASN419      0.2292
     84  O         20.1120   71.3770    2.8170 O.2   419  ASN419     -0.2864
     85  CB        18.7160   72.3520    0.0490 C.3   419  ASN419      0.1181
     86  CG        18.8980   73.4110   -1.0170 C.2   419  ASN419      0.2629
     87  OD1       20.0300   73.7660   -1.3590 O.2   419  ASN419     -0.2716
     88  ND2       17.7980   73.9250   -1.5440 N.am  419  ASN419     -0.0877
     89  N         23.9210   70.0200    2.6850 N.3   422  TRP422     -0.1241
     90  CA        24.7320   71.1430    3.1200 C.3   422  TRP422      0.1605
     91  C         24.4580   71.4530    4.5930 C.2   422  TRP422      0.2264
     92  O         23.3010   71.5120    5.0210 O.2   422  TRP422     -0.2867
     93  CB        24.4460   72.3400    2.2070 C.3   422  TRP422      0.0550
     94  CG        24.4570   73.6670    2.8530 C.ar  422  TRP422      0.0003
     95  CD1       23.4820   74.1970    3.6430 C.ar  422  TRP422      0.0946
     96  CD2       25.4720   74.6700    2.7380 C.ar  422  TRP422      0.0152
     97  NE1       23.8360   75.4570    4.0520 N.ar  422  TRP422     -0.2442
     98  CE2       25.0510   75.7750    3.5040 C.ar  422  TRP422      0.0810
     99  CE3       26.6980   74.7400    2.0690 C.ar  422  TRP422      0.0012
    100  CZ2       25.8110   76.9330    3.6220 C.ar  422  TRP422      0.0191
    101  CZ3       27.4510   75.8920    2.1870 C.ar  422  TRP422      0.0001
    102  CH2       27.0050   76.9730    2.9590 C.ar  422  TRP422      0.0015
@<TRIPOS>BOND
     1    12    13    1
     2    40    41    2
     3    40    39    1
     4    38    39    1
     5    72    71   ar
     6    65    66    1
     7    69    66    1
     8    69    70    1
     9    39    42    1
    10    13    14    1
    11    13    16    1
    12    66    67    1
    13    71    70    1
    14    71    73   ar
    15    14    15    2
    16    42    43    1
    17    67    68    2
    18    17    18    1
    19    43    45   am
    20    43    44    2
    21    22    24    1
    22    22    23    1
    23    22    21    1
    24    18    21    1
    25    18    19    1
    26     4     3    2
    27    63    62    2
    28     3     2    1
    29    25    19   am
    30    25    26    1
    31    79    78    1
    32    19    20    2
    33    78    80    1
    34    78    75    1
    35     2     1    1
    36     2     5    1
    37    29    26    1
    38    29    30    1
    39    74    75    1
    40    62    61    1
    41    26    27    1
    42    64    61    1
    43    61    60    1
    44    75    76    1
    45    27    28    2
    46    88    86   am
    47    87    86    2
    48     5     6    1
    49     7     6   ar
    50     7     9   ar
    51     6     8   ar
    52     9    11   ar
    53    86    85    1
    54     8    10   ar
    55    11    10   ar
    56    81    76   am
    57    81    82    1
    58    76    77    2
    59    85    82    1
    60    31    32    1
    61    82    83    1
    62    36    35    1
    63    57    56    2
    64    49    48    2
    65    35    32    1
    66    35    37    1
    67    32    33    1
    68    83    84    2
    69    99   101   ar
    70    99    96   ar
    71   101   102   ar
    72    93    94    1
    73    93    90    1
    74    56    55    1
    75    48    54   am
    76    48    47    1
    77    55    54    1
    78    55    58    1
    79    53    51   ar
    80    33    34    2
    81    89    90    1
    82    96    94   ar
    83    96    98   ar
    84    50    51    1
    85    50    47    1
    86    94    95   ar
    87    51    52   ar
    88   102   100   ar
    89    47    46    1
    90    90    91    1
    91    59    58    1
    92    98   100   ar
    93    98    97   ar
    94    95    97   ar
    95    91    92    2
