@<TRIPOS>MOLECULE
tmp/5ez3B00.pdb
 131 126 0 0 0
SMALL
GASTEIGER

@<TRIPOS>ATOM
      1  N          2.6970   70.6480  -18.4320 N.3   317  HIS317     -0.1241
      2  CA         2.8400   69.6240  -19.4560 C.3   317  HIS317      0.1621
      3  C          1.5580   68.8150  -19.5890 C.2   317  HIS317      0.2264
      4  O          1.0960   68.5640  -20.7080 O.2   317  HIS317     -0.2867
      5  CB         4.0480   68.7450  -19.1270 C.3   317  HIS317      0.0745
      6  CG         4.3600   67.7320  -20.1760 C.ar  317  HIS317      0.0817
      7  ND1        4.7920   68.0830  -21.4390 N.ar  317  HIS317     -0.2268
      8  CD2        4.3350   66.3790  -20.1480 C.ar  317  HIS317      0.1154
      9  CE1        5.0020   66.9880  -22.1470 C.ar  317  HIS317      0.1986
     10  NE2        4.7390   65.9410  -21.3860 N.ar  317  HIS317     -0.2212
     11  N         -0.1430   68.0970  -23.2780 N.3   321  ARG321     -0.1245
     12  CA         0.2610   66.8410  -23.8990 C.3   321  ARG321      0.1563
     13  C         -0.9280   65.9060  -23.9700 C.2   321  ARG321      0.2260
     14  O         -1.4940   65.5600  -22.9310 O.2   321  ARG321     -0.2867
     15  CB         1.3890   66.2010  -23.0890 C.3   321  ARG321      0.0307
     16  CG         1.8000   64.8210  -23.5850 C.3   321  ARG321      0.0489
     17  CD         2.5480   64.9240  -24.9060 C.3   321  ARG321      0.2205
     18  NE         3.3920   63.7560  -25.0930 N.pl3 321  ARG321     -0.0865
     19  CZ         4.1970   63.5610  -26.1230 C.cat 321  ARG321      0.5346
     20  NH1        4.2580   64.4610  -27.1010 N.pl3 321  ARG321      0.1354
     21  NH2        4.9620   62.4710  -26.1600 N.pl3 321  ARG321      0.1354
     22  N         -2.6590   62.1940  -24.7580 N.3   323  VAL323     -0.1231
     23  CA        -2.4680   60.7440  -24.8150 C.3   323  VAL323      0.1692
     24  C         -3.8490   60.1040  -24.9580 C.2   323  VAL323      0.2592
     25  O         -4.7870   60.5000  -24.2590 O.2   323  VAL323     -0.2718
     26  CB        -1.7350   60.2050  -23.5640 C.3   323  VAL323      0.0266
     27  CG1       -1.5710   58.7050  -23.6660 C.3   323  VAL323      0.0020
     28  CG2       -0.3370   60.8690  -23.3940 C.3   323  VAL323      0.0020
     29  N         -4.0040   59.1720  -25.9100 N.am  324  PHE324     -0.1976
     30  CA        -5.3100   58.5310  -26.1540 C.3   324  PHE324      0.1639
     31  C         -6.4010   59.5590  -26.4370 C.2   324  PHE324      0.2290
     32  O         -7.5530   59.3900  -26.0370 O.2   324  PHE324     -0.2864
     33  CB        -5.7310   57.6270  -24.9870 C.3   324  PHE324      0.0560
     34  CG        -4.7410   56.5380  -24.6670 C.ar  324  PHE324     -0.0200
     35  CD1       -4.3050   55.6580  -25.6530 C.ar  324  PHE324     -0.0042
     36  CD2       -4.2050   56.4270  -23.3960 C.ar  324  PHE324     -0.0042
     37  CE1       -3.3710   54.6710  -25.3600 C.ar  324  PHE324     -0.0003
     38  CE2       -3.2680   55.4370  -23.1000 C.ar  324  PHE324     -0.0003
     39  CZ        -2.8540   54.5660  -24.0810 C.ar  324  PHE324     -0.0000
     40  N         -3.4920   64.8770  -20.8500 N.3   328  LEU328     -0.1245
     41  CA        -3.1410   64.0640  -19.6840 C.3   328  LEU328      0.1561
     42  C         -3.8330   64.5530  -18.4210 C.2   328  LEU328      0.2260
     43  O         -4.1280   63.7480  -17.5270 O.2   328  LEU328     -0.2867
     44  CB        -1.6160   64.0570  -19.4840 C.3   328  LEU328      0.0270
     45  CG        -0.8090   63.0270  -20.2890 C.3   328  LEU328      0.0019
     46  CD1        0.7070   63.3170  -20.2780 C.3   328  LEU328      0.0001
     47  CD2       -1.0980   61.6090  -19.7560 C.3   328  LEU328      0.0001
     48  N         -6.9240   62.7600  -17.2660 N.3   331  GLN331     -0.1245
     49  CA        -6.8540   61.3790  -16.7880 C.3   331  GLN331      0.1566
     50  C         -6.9400   61.3500  -15.2650 C.2   331  GLN331      0.2260
     51  O         -6.1380   62.0090  -14.5950 O.2   331  GLN331     -0.2867
     52  CB        -5.5520   60.7270  -17.2440 C.3   331  GLN331      0.0367
     53  CG        -5.4090   60.6620  -18.7560 C.3   331  GLN331      0.0905
     54  CD        -6.3980   59.7040  -19.3950 C.2   331  GLN331      0.2608
     55  OE1       -6.9440   58.8310  -18.7260 O.2   331  GLN331     -0.2717
     56  NE2       -6.6360   59.8650  -20.6860 N.am  331  GLN331     -0.0878
     57  N         -5.9610   59.2890  -12.9640 N.3   333  LEU333     -0.1231
     58  CA        -4.7460   58.8790  -12.2710 C.3   333  LEU333      0.1693
     59  C         -3.6840   59.9750  -12.3130 C.2   333  LEU333      0.2591
     60  O         -3.0050   60.2250  -11.3120 O.2   333  LEU333     -0.2718
     61  CB        -4.2220   57.5890  -12.8950 C.3   333  LEU333      0.0284
     62  CG        -3.1770   56.7620  -12.1710 C.3   333  LEU333      0.0019
     63  CD1       -3.5930   56.5060  -10.7320 C.3   333  LEU333      0.0001
     64  CD2       -3.0520   55.4630  -12.9200 C.3   333  LEU333      0.0001
     65  N         -3.5200   60.6430  -13.4610 N.am  334  MET334     -0.1979
     66  CA        -2.6050   61.7800  -13.5100 C.3   334  MET334      0.1605
     67  C         -3.0830   62.9100  -12.6060 C.2   334  MET334      0.2287
     68  O         -2.2650   63.6140  -12.0020 O.2   334  MET334     -0.2864
     69  CB        -2.4360   62.2820  -14.9530 C.3   334  MET334      0.0413
     70  CG        -1.4850   63.4750  -15.0680 C.3   334  MET334      0.0598
     71  SD         0.1830   63.0290  -14.5050 S.3   334  MET334     -0.1393
     72  CE         0.8830   62.5080  -16.0660 C.3   334  MET334      0.0692
     73  N          9.0580   62.2920  -13.9260 N.3   396  GLU396     -0.1231
     74  CA         8.3690   61.1780  -14.5750 C.3   396  GLU396      0.1699
     75  C          7.0970   61.6280  -15.2880 C.2   396  GLU396      0.2592
     76  O          6.7030   61.0240  -16.3020 O.2   396  GLU396     -0.2718
     77  CB         8.0430   60.0830  -13.5470 C.3   396  GLU396      0.0402
     78  CG         7.3190   58.8900  -14.1460 C.3   396  GLU396      0.1161
     79  CD         7.2790   57.6890  -13.2180 C.2   396  GLU396      0.3649
     80  OE1        6.1660   57.1540  -12.9400 O.co2 396  GLU396     -0.2457
     81  OE2        8.3670   57.2570  -12.7800 O.co2 396  GLU396     -0.2457
     82  N          6.4360   62.6790  -14.7850 N.am  397  CYS397     -0.1956
     83  CA         5.2380   63.1920  -15.4610 C.3   397  CYS397      0.1843
     84  C          5.5600   63.7870  -16.8240 C.2   397  CYS397      0.2625
     85  O          4.6530   63.9420  -17.6450 O.2   397  CYS397     -0.2714
     86  CB         4.5220   64.2280  -14.5890 C.3   397  CYS397      0.0997
     87  SG         3.7720   63.5140  -13.0880 S.3   397  CYS397     -0.0797
     88  N          6.8240   64.1380  -17.0830 N.am  398  LEU398     -0.1963
     89  CA         7.1840   64.6300  -18.4110 C.3   398  LEU398      0.1728
     90  C          7.4510   63.5160  -19.4150 C.2   398  LEU398      0.2617
     91  O          7.5920   63.8030  -20.6110 O.2   398  LEU398     -0.2715
     92  CB         8.4310   65.5200  -18.3470 C.3   398  LEU398      0.0311
     93  CG         8.3460   66.7370  -17.4270 C.3   398  LEU398      0.0022
     94  CD1        9.6070   67.5850  -17.5570 C.3   398  LEU398      0.0001
     95  CD2        7.1410   67.5370  -17.7900 C.3   398  LEU398      0.0001
     96  N          7.4930   62.2640  -18.9790 N.am  399  GLY399     -0.1940
     97  CA         7.8940   61.2420  -19.9370 C.3   399  GLY399      0.2014
     98  C          9.4100   61.2930  -20.1700 C.2   399  GLY399      0.2639
     99  O         10.1770   61.8450  -19.3700 O.2   399  GLY399     -0.2714
    100  N          9.8260   60.7260  -21.3120 N.am  400  GLY400     -0.1939
    101  CA        11.2530   60.5700  -21.5820 C.3   400  GLY400      0.2014
    102  C         12.0290   61.8780  -21.5870 C.2   400  GLY400      0.2638
    103  O         13.1460   61.9410  -21.0660 O.2   400  GLY400     -0.2714
    104  N         11.4420   62.9480  -22.1570 N.am  401  ASN401     -0.1972
    105  CA        12.1360   64.2360  -22.1850 C.3   401  ASN401      0.1688
    106  C         12.5070   64.7240  -20.7840 C.2   401  ASN401      0.2292
    107  O         13.4690   65.4860  -20.6360 O.2   401  ASN401     -0.2864
    108  CB        11.2940   65.3090  -22.8810 C.3   401  ASN401      0.1181
    109  CG        11.1940   65.0950  -24.3700 C.2   401  ASN401      0.2629
    110  OD1       11.6140   64.0560  -24.9070 O.2   401  ASN401     -0.2716
    111  ND2       10.6540   66.0820  -25.0560 N.am  401  ASN401     -0.0877
    112  N         13.9740   63.2030  -18.4700 N.3   403  TYR403     -0.1227
    113  CA        15.2600   62.6220  -18.1140 C.3   403  TYR403      0.1736
    114  C         16.4160   63.2480  -18.8840 C.2   403  TYR403      0.2595
    115  O         17.5700   62.8330  -18.7050 O.2   403  TYR403     -0.2718
    116  CB        15.2120   61.1010  -18.3640 C.3   403  TYR403      0.0548
    117  CG        16.2820   60.2930  -17.6460 C.ar  403  TYR403     -0.0200
    118  CD1       16.2700   60.1580  -16.2610 C.ar  403  TYR403     -0.0009
    119  CD2       17.2900   59.6420  -18.3610 C.ar  403  TYR403     -0.0009
    120  CE1       17.2490   59.4090  -15.6040 C.ar  403  TYR403      0.0417
    121  CE2       18.2600   58.8920  -17.7170 C.ar  403  TYR403      0.0417
    122  CZ        18.2340   58.7760  -16.3440 C.ar  403  TYR403      0.1957
    123  OH        19.2050   58.0300  -15.7200 O.3   403  TYR403     -0.2866
    124  N         16.1370   64.2350  -19.7320 N.am  404  ILE404     -0.1980
    125  CA        17.1180   64.7790  -20.6580 C.3   404  ILE404      0.1595
    126  C         17.5810   66.1420  -20.1580 C.2   404  ILE404      0.2287
    127  O         16.7700   66.9760  -19.7320 O.2   404  ILE404     -0.2864
    128  CB        16.5370   64.8510  -22.0850 C.3   404  ILE404      0.0276
    129  CG1       15.9560   63.4850  -22.4810 C.3   404  ILE404      0.0022
    130  CG2       17.6050   65.2700  -23.1080 C.3   404  ILE404      0.0022
    131  CD1       16.9130   62.3260  -22.2970 C.3   404  ILE404      0.0001
@<TRIPOS>BOND
     1    20    19    1
     2    31    30    1
     3    31    32    2
     4    21    19    1
     5    30    29    1
     6    30    33    1
     7    19    18    2
     8    29    24   am
     9    35    37   ar
    10    35    34   ar
    11    37    39   ar
    12    18    17    1
    13   111   109   am
    14    33    34    1
    15    24    23    1
    16    24    25    2
    17   110   109    2
    18    17    16    1
    19    23    22    1
    20    23    26    1
    21    34    36   ar
    22   109   108    1
    23    39    38   ar
    24    13    12    1
    25    13    14    2
    26    12    11    1
    27    12    15    1
    28    27    26    1
    29    16    15    1
    30    26    28    1
    31    36    38   ar
    32   130   128    1
    33   108   105    1
    34   129   131    1
    35   129   128    1
    36   105   104    1
    37   105   106    1
    38   104   102   am
    39     9     7   ar
    40     9    10   ar
    41   128   125    1
    42   102   101    1
    43   102   103    2
    44   101   100    1
    45     7     6   ar
    46    10     8   ar
    47   100    98   am
    48    40    41    1
    49   106   107    2
    50     4     3    2
    51    56    54   am
    52   125   126    1
    53   125   124    1
    54    91    90    2
    55    45    46    1
    56    45    47    1
    57    45    44    1
    58     6     8   ar
    59     6     5    1
    60    98    97    1
    61    98    99    2
    62   126   127    2
    63    97    96    1
    64   124   114   am
    65    41    44    1
    66    41    42    1
    67     3     2    1
    68     2     5    1
    69     2     1    1
    70    90    96   am
    71    90    89    1
    72    54    53    1
    73    54    55    2
    74   114   115    2
    75   114   113    1
    76    53    52    1
    77   112   113    1
    78    42    43    2
    79    89    92    1
    80    89    88    1
    81   116   113    1
    82   116   117    1
    83   119   121   ar
    84   119   117   ar
    85    92    93    1
    86    95    93    1
    87   121   122   ar
    88   117   118   ar
    89    85    84    2
    90    94    93    1
    91    48    49    1
    92    52    49    1
    93    88    84   am
    94    84    83    1
    95    49    50    1
    96   122   123    1
    97   122   120   ar
    98    76    75    2
    99   118   120   ar
   100    72    71    1
   101    83    82    1
   102    83    86    1
   103    75    82   am
   104    75    74    1
   105    50    51    2
   106    70    69    1
   107    70    71    1
   108    69    66    1
   109    86    87    1
   110    74    73    1
   111    74    77    1
   112    78    77    1
   113    78    79    1
   114    66    65    1
   115    66    67    1
   116    65    59   am
   117    79    80   ar
   118    79    81   ar
   119    57    58    1
   120    64    62    1
   121    61    58    1
   122    61    62    1
   123    67    68    2
   124    59    58    1
   125    59    60    2
   126    62    63    1
