@<TRIPOS>MOLECULE
tmp/5ez4B02.pdb
 109 103 0 0 0
SMALL
GASTEIGER

@<TRIPOS>ATOM
      1  N        -66.2820  -35.8610   26.2920 N.3   102  GLU102     -0.1231
      2  CA       -64.9710  -35.2950   26.1010 C.3   102  GLU102      0.1699
      3  C        -65.0570  -33.7890   25.9340 C.2   102  GLU102      0.2592
      4  O        -64.2390  -33.0730   26.5000 O.2   102  GLU102     -0.2718
      5  CB       -64.2580  -35.9240   24.8970 C.3   102  GLU102      0.0402
      6  CG       -63.7730  -37.3410   25.1500 C.3   102  GLU102      0.1161
      7  CD       -62.7170  -37.3990   26.2390 C.2   102  GLU102      0.3649
      8  OE1      -61.9000  -36.4530   26.3470 O.co2 102  GLU102     -0.2457
      9  OE2      -62.7250  -38.3780   27.0060 O.co2 102  GLU102     -0.2457
     10  N        -66.0370  -33.2920   25.1710 N.am  103  GLU103     -0.1979
     11  CA       -66.2040  -31.8470   25.0810 C.3   103  GLU103      0.1602
     12  C        -66.5060  -31.2520   26.4550 C.2   103  GLU103      0.2287
     13  O        -66.0200  -30.1660   26.7850 O.2   103  GLU103     -0.2864
     14  CB       -67.2990  -31.4290   24.0930 C.3   103  GLU103      0.0415
     15  CG       -66.9400  -31.6560   22.6320 C.3   103  GLU103      0.1163
     16  CD       -68.1640  -31.6310   21.7540 C.2   103  GLU103      0.3649
     17  OE1      -68.7400  -32.7210   21.5450 O.co2 103  GLU103     -0.2457
     18  OE2      -68.6150  -30.5080   21.3620 O.co2 103  GLU103     -0.2457
     19  N        -63.4050  -30.8720   28.6060 N.3   106  ALA106     -0.1231
     20  CA       -62.6520  -29.6940   28.1640 C.3   106  ALA106      0.1694
     21  C        -63.2990  -28.4160   28.6990 C.2   106  ALA106      0.2592
     22  O        -62.5850  -27.5240   29.1670 O.2   106  ALA106     -0.2718
     23  CB       -62.5000  -29.6280   26.6380 C.3   106  ALA106      0.0304
     24  N        -64.6330  -28.3220   28.6570 N.am  107  ASP107     -0.1974
     25  CA       -65.2990  -27.1780   29.2780 C.3   107  ASP107      0.1709
     26  C        -64.8760  -27.0430   30.7640 C.2   107  ASP107      0.2293
     27  O        -64.6180  -25.9390   31.2110 O.2   107  ASP107     -0.2864
     28  CB       -66.8220  -27.2970   29.3170 C.3   107  ASP107      0.1436
     29  CG       -67.5120  -26.9200   28.0530 C.2   107  ASP107      0.3671
     30  OD1      -66.8690  -26.6650   27.0000 O.co2 107  ASP107     -0.2456
     31  OD2      -68.7690  -26.9280   28.1150 O.co2 107  ASP107     -0.2456
     32  N        -61.4800  -25.6490   31.2020 N.3   110  ASP110     -0.1239
     33  CA       -61.5060  -24.2310   30.8960 C.3   110  ASP110      0.1674
     34  C        -62.1410  -23.4090   32.0290 C.2   110  ASP110      0.2266
     35  O        -61.6870  -22.3120   32.3330 O.2   110  ASP110     -0.2867
     36  CB       -62.3280  -23.9660   29.6330 C.3   110  ASP110      0.1410
     37  CG       -61.6390  -24.4120   28.3610 C.2   110  ASP110      0.3668
     38  OD1      -60.4070  -24.7100   28.3880 O.co2 110  ASP110     -0.2456
     39  OD2      -62.3470  -24.4310   27.3160 O.co2 110  ASP110     -0.2456
     40  N        -73.4700  -23.6920   26.1780 N.3   157  TYR157     -0.1241
     41  CA       -72.3580  -23.9670   27.1150 C.3   157  TYR157      0.1605
     42  C        -72.7380  -23.2950   28.4390 C.2   157  TYR157      0.2264
     43  O        -72.1800  -22.2560   28.8020 O.2   157  TYR157     -0.2867
     44  CB       -71.0500  -23.3830   26.5720 C.3   157  TYR157      0.0534
     45  CG       -70.5300  -24.0780   25.3340 C.ar  157  TYR157     -0.0201
     46  CD1      -70.9560  -23.7040   24.0720 C.ar  157  TYR157     -0.0009
     47  CD2      -69.6010  -25.1310   25.4240 C.ar  157  TYR157     -0.0009
     48  CE1      -70.4540  -24.3380   22.9310 C.ar  157  TYR157      0.0417
     49  CE2      -69.1230  -25.7770   24.2910 C.ar  157  TYR157      0.0417
     50  CZ       -69.5490  -25.3670   23.0430 C.ar  157  TYR157      0.1957
     51  OH       -69.0790  -26.0020   21.8980 O.3   157  TYR157     -0.2866
     52  N        -69.9110  -22.8240   31.1860 N.3   160  LEU160     -0.1245
     53  CA       -68.7930  -22.0460   30.6600 C.3   160  LEU160      0.1561
     54  C        -69.1770  -20.5780   30.5840 C.2   160  LEU160      0.2260
     55  O        -68.4790  -19.6980   31.1150 O.2   160  LEU160     -0.2867
     56  CB       -68.3600  -22.5710   29.2910 C.3   160  LEU160      0.0270
     57  CG       -67.1860  -21.8220   28.6240 C.3   160  LEU160      0.0019
     58  CD1      -65.8840  -22.0470   29.3640 C.3   160  LEU160      0.0001
     59  CD2      -67.0410  -22.2840   27.1870 C.3   160  LEU160      0.0001
     60  N        -68.4490  -29.0920   15.8180 N.3   282  PHE282     -0.1241
     61  CA       -68.3860  -29.2580   17.2630 C.3   282  PHE282      0.1605
     62  C        -69.7310  -28.7700   17.8540 C.2   282  PHE282      0.2264
     63  O        -70.2710  -27.7380   17.4150 O.2   282  PHE282     -0.2867
     64  CB       -67.1730  -28.5420   17.8830 C.3   282  PHE282      0.0534
     65  CG       -65.9580  -29.4160   17.9980 C.ar  282  PHE282     -0.0203
     66  CD1      -65.9340  -30.4690   18.9130 C.ar  282  PHE282     -0.0042
     67  CD2      -64.8320  -29.1990   17.2040 C.ar  282  PHE282     -0.0042
     68  CE1      -64.8030  -31.2780   19.0470 C.ar  282  PHE282     -0.0003
     69  CE2      -63.7040  -29.9850   17.3310 C.ar  282  PHE282     -0.0003
     70  CZ       -63.6950  -31.0270   18.2500 C.ar  282  PHE282     -0.0000
     71  N        -72.5140  -23.1250   18.5060 N.3   287  VAL287     -0.1245
     72  CA       -71.3810  -22.4520   19.1290 C.3   287  VAL287      0.1561
     73  C        -71.2950  -21.0410   18.5780 C.2   287  VAL287      0.2260
     74  O        -71.4250  -20.8200   17.3710 O.2   287  VAL287     -0.2867
     75  CB       -70.0480  -23.1580   18.7820 C.3   287  VAL287      0.0252
     76  CG1      -68.9430  -22.7600   19.7680 C.3   287  VAL287      0.0019
     77  CG2      -70.1870  -24.6600   18.8770 C.3   287  VAL287      0.0019
     78  N        -68.7470  -19.3610   18.3500 N.3   288  SER288     -0.1217
     79  CA       -67.5750  -19.3660   17.5130 C.3   288  SER288      0.1889
     80  C        -67.6450  -20.2790   16.2790 C.2   288  SER288      0.2288
     81  O        -66.6580  -20.3570   15.5300 O.2   288  SER288     -0.2866
     82  CB       -66.3310  -19.7110   18.3400 C.3   288  SER288      0.2089
     83  OG       -66.3910  -20.9780   18.9950 O.3   288  SER288     -0.2183
     84  N        -61.5380  -21.9420   16.9010 N.3   446  HIS446     -0.1226
     85  CA       -62.1650  -22.1560   18.2160 C.3   446  HIS446      0.1752
     86  C        -61.2700  -21.8960   19.4280 C.2   446  HIS446      0.2596
     87  O        -61.6050  -22.3350   20.5340 O.2   446  HIS446     -0.2718
     88  CB       -62.6910  -23.6050   18.3780 C.3   446  HIS446      0.0759
     89  CG       -63.9590  -23.9150   17.6420 C.ar  446  HIS446      0.0818
     90  ND1      -65.1230  -23.1950   17.8070 N.ar  446  HIS446     -0.2268
     91  CD2      -64.2840  -24.9680   16.8550 C.ar  446  HIS446      0.1154
     92  CE1      -66.0810  -23.7320   17.0660 C.ar  446  HIS446      0.1986
     93  NE2      -65.6010  -24.8190   16.4980 N.ar  446  HIS446     -0.2212
     94  N        -60.1010  -21.3060   19.2480 N.am  447  MET447     -0.1965
     95  CA       -59.2210  -21.1290   20.3880 C.3   447  MET447      0.1736
     96  C        -59.5930  -19.8800   21.1730 C.2   447  MET447      0.2616
     97  O        -59.4930  -18.7520   20.6580 O.2   447  MET447     -0.2715
     98  CB       -57.7720  -21.0110   19.9710 C.3   447  MET447      0.0427
     99  CG       -57.1320  -22.2780   19.4530 C.3   447  MET447      0.0599
    100  SD       -57.1630  -23.6830   20.6010 S.3   447  MET447     -0.1393
    101  CE       -58.5770  -24.6040   19.9710 C.3   447  MET447      0.0692
    102  N        -60.0320  -20.0690   22.4010 N.am  448  LEU448     -0.1977
    103  CA       -60.2470  -18.9370   23.2560 C.3   448  LEU448      0.1596
    104  C        -59.8800  -19.2890   24.6790 C.2   448  LEU448      0.2287
    105  O        -59.8140  -20.4490   25.0320 O.2   448  LEU448     -0.2864
    106  CB       -61.6310  -18.3500   23.0940 C.3   448  LEU448      0.0297
    107  CG       -62.8120  -19.2180   23.3810 C.3   448  LEU448      0.0022
    108  CD1      -62.9200  -19.3710   24.8710 C.3   448  LEU448      0.0001
    109  CD2      -64.0580  -18.5720   22.8330 C.3   448  LEU448      0.0001
@<TRIPOS>BOND
     1    81    80    2
     2    60    61    1
     3    80    79    1
     4    93    91   ar
     5    93    92   ar
     6    91    89   ar
     7    84    85    1
     8    92    90   ar
     9    67    69   ar
    10    67    65   ar
    11    61    62    1
    12    61    64    1
    13    69    70   ar
    14    74    73    2
    15    63    62    2
    16    79    82    1
    17    79    78    1
    18    89    90   ar
    19    89    88    1
    20    64    65    1
    21    65    66   ar
    22    85    88    1
    23    85    86    1
    24    70    68   ar
    25    82    83    1
    26    71    72    1
    27    73    72    1
    28    75    77    1
    29    75    72    1
    30    75    76    1
    31    66    68   ar
    32    94    86   am
    33    94    95    1
    34    86    87    2
    35    99    98    1
    36    99   100    1
    37    98    95    1
    38   101   100    1
    39    95    96    1
    40    97    96    2
    41    96   102   am
    42    18    16   ar
    43    17    16   ar
    44    16    15    1
    45    51    50    1
    46   102   103    1
    47    15    14    1
    48   109   107    1
    49    48    50   ar
    50    48    46   ar
    51    50    49   ar
    52   106   103    1
    53   106   107    1
    54   103   104    1
    55   107   108    1
    56    46    45   ar
    57    14    11    1
    58    49    47   ar
    59   104   105    2
    60     5     6    1
    61     5     2    1
    62    11    10    1
    63    11    12    1
    64     6     7    1
    65    10     3   am
    66    45    47   ar
    67    45    44    1
    68     3     2    1
    69     3     4    2
    70     2     1    1
    71    40    41    1
    72     7     8   ar
    73     7     9   ar
    74    12    13    2
    75    44    41    1
    76    23    20    1
    77    30    29   ar
    78    41    42    1
    79    59    57    1
    80    39    37   ar
    81    29    31   ar
    82    29    28    1
    83    20    19    1
    84    20    21    1
    85    37    38   ar
    86    37    36    1
    87    42    43    2
    88    57    56    1
    89    57    58    1
    90    24    21   am
    91    24    25    1
    92    21    22    2
    93    25    28    1
    94    25    26    1
    95    56    53    1
    96    36    33    1
    97    54    53    1
    98    54    55    2
    99    53    52    1
   100    26    27    2
   101    33    32    1
   102    33    34    1
   103    34    35    2
