@<TRIPOS>MOLECULE
tmp/5ezgA00.pdb
 168 165 0 0 0
SMALL
GASTEIGER

@<TRIPOS>ATOM
      1  N         35.4470    6.5240   -3.2420 N.3    66  LEU66      -0.1245
      2  CA        34.1990    6.2540   -3.7980 C.3    66  LEU66       0.1561
      3  C         34.4150    5.2330   -4.9480 C.2    66  LEU66       0.2260
      4  O         33.5510    4.4300   -5.2310 O.2    66  LEU66      -0.2867
      5  CB        33.5650    7.5680   -4.4090 C.3    66  LEU66       0.0270
      6  CG        33.1120    8.5360   -3.2920 C.3    66  LEU66       0.0019
      7  CD1       32.8400    9.9060   -3.9750 C.3    66  LEU66       0.0001
      8  CD2       31.8430    8.0290   -2.5340 C.3    66  LEU66       0.0001
      9  N         34.3880    1.8540   -3.4470 N.3    69  LEU69      -0.1231
     10  CA        33.1150    1.3690   -3.1410 C.3    69  LEU69       0.1693
     11  C         32.3120    0.9610   -4.3620 C.2    69  LEU69       0.2591
     12  O         31.4840    0.0090   -4.2800 O.2    69  LEU69      -0.2718
     13  CB        32.2970    2.4540   -2.4320 C.3    69  LEU69       0.0284
     14  CG        32.6520    2.8140   -1.0100 C.3    69  LEU69       0.0019
     15  CD1       31.6140    3.8960   -0.5870 C.3    69  LEU69       0.0001
     16  CD2       32.3660    1.5010   -0.2570 C.3    69  LEU69       0.0001
     17  N         32.4490    1.7340   -5.4310 N.am   70  ALA70      -0.1980
     18  CA        31.6360    1.5370   -6.6420 C.3    70  ALA70       0.1597
     19  C         32.0590    0.1700   -7.2010 C.2    70  ALA70       0.2287
     20  O         31.2320   -0.5700   -7.7440 O.2    70  ALA70      -0.2864
     21  CB        31.9390    2.6060   -7.7030 C.3    70  ALA70       0.0319
     22  N         23.6310    1.0970    1.3810 N.3    81  MET81      -0.1230
     23  CA        24.4850    1.3690    0.2000 C.3    81  MET81       0.1702
     24  C         24.6570    2.9370    0.0060 C.2    81  MET81       0.2592
     25  O         25.7750    3.4230   -0.1840 O.2    81  MET81      -0.2718
     26  CB        23.9260    0.6910   -1.0870 C.3    81  MET81       0.0401
     27  CG        24.2280    1.3950   -2.4730 C.3    81  MET81       0.0596
     28  SD        23.2830    1.2180   -4.0990 S.3    81  MET81      -0.1393
     29  CE        24.5360    1.7730   -5.2680 C.3    81  MET81       0.0692
     30  N         23.5340    3.7000    0.0930 N.am   82  TRP82      -0.1976
     31  CA        23.7050    5.1430   -0.0690 C.3    82  TRP82       0.1640
     32  C         24.4740    5.7040    1.1330 C.2    82  TRP82       0.2290
     33  O         25.3140    6.5920    0.9600 O.2    82  TRP82      -0.2864
     34  CB        22.3140    5.8080   -0.1690 C.3    82  TRP82       0.0576
     35  CG        21.6060    5.4590   -1.4410 C.ar   82  TRP82       0.0006
     36  CD1       20.5280    4.5980   -1.6500 C.ar   82  TRP82       0.0946
     37  CD2       21.9700    5.9570   -2.7490 C.ar   82  TRP82       0.0152
     38  NE1       20.2480    4.5260   -3.0300 N.ar   82  TRP82      -0.2442
     39  CE2       21.0600    5.3170   -3.7250 C.ar   82  TRP82       0.0810
     40  CE3       22.9530    6.8370   -3.2090 C.ar   82  TRP82       0.0012
     41  CZ2       21.1100    5.6380   -5.1340 C.ar   82  TRP82       0.0191
     42  CZ3       23.0720    7.0630   -4.6180 C.ar   82  TRP82       0.0001
     43  CH2       22.1490    6.4690   -5.5530 C.ar   82  TRP82       0.0015
     44  N         28.2720    5.5570    0.6510 N.3    85  GLY85      -0.1210
     45  CA        28.8560    6.6000   -0.1030 C.3    85  GLY85       0.1956
     46  C         28.9300    7.9470    0.4990 C.2    85  GLY85       0.2611
     47  O         29.9200    8.6760    0.3050 O.2    85  GLY85      -0.2717
     48  N         27.8300    8.3680    1.1530 N.am   86  ILE86      -0.1979
     49  CA        27.8170    9.6800    1.7500 C.3    86  ILE86       0.1595
     50  C         28.8710    9.7030    2.8730 C.2    86  ILE86       0.2287
     51  O         29.5620   10.6950    3.0910 O.2    86  ILE86      -0.2864
     52  CB        26.3750   10.0440    2.3160 C.3    86  ILE86       0.0276
     53  CG1       25.3940   10.0190    1.1130 C.3    86  ILE86       0.0022
     54  CG2       26.4760   11.3140    3.1110 C.3    86  ILE86       0.0022
     55  CD1       23.9360   10.1120    1.5520 C.3    86  ILE86       0.0001
     56  N         32.4190   11.2360    2.3660 N.3    89  PHE89      -0.1241
     57  CA        32.6410   12.6420    2.5850 C.3    89  PHE89       0.1605
     58  C         32.6780   12.9700    3.9900 C.2    89  PHE89       0.2264
     59  O         33.5020   13.7590    4.4310 O.2    89  PHE89      -0.2867
     60  CB        31.5410   13.4760    1.8710 C.3    89  PHE89       0.0534
     61  CG        31.6830   13.3690    0.4270 C.ar   89  PHE89      -0.0203
     62  CD1       32.6900   14.1520   -0.1930 C.ar   89  PHE89      -0.0042
     63  CD2       30.9660   12.4220   -0.3160 C.ar   89  PHE89      -0.0042
     64  CE1       32.9160   14.0100   -1.5350 C.ar   89  PHE89      -0.0003
     65  CE2       31.1880   12.3030   -1.6650 C.ar   89  PHE89      -0.0003
     66  CZ        32.1720   13.0730   -2.2630 C.ar   89  PHE89      -0.0000
     67  N         36.6170   21.8270   -7.8050 N.3   117  TRP117     -0.1241
     68  CA        35.3600   21.2900   -7.1800 C.3   117  TRP117      0.1605
     69  C         34.3380   20.8600   -8.1910 C.2   117  TRP117      0.2264
     70  O         33.8150   19.7490   -8.1270 O.2   117  TRP117     -0.2867
     71  CB        34.8120   22.2340   -6.1060 C.3   117  TRP117      0.0550
     72  CG        33.6990   21.5450   -5.3290 C.ar  117  TRP117      0.0003
     73  CD1       32.3580   21.8670   -5.3070 C.ar  117  TRP117      0.0946
     74  CD2       33.8650   20.4270   -4.3710 C.ar  117  TRP117      0.0152
     75  NE1       31.6890   21.0120   -4.4600 N.ar  117  TRP117     -0.2442
     76  CE2       32.5570   20.1100   -3.8900 C.ar  117  TRP117      0.0810
     77  CE3       34.9590   19.6500   -3.9350 C.ar  117  TRP117      0.0012
     78  CZ2       32.3310   19.1140   -2.9380 C.ar  117  TRP117      0.0191
     79  CZ3       34.7320   18.6290   -2.9970 C.ar  117  TRP117      0.0001
     80  CH2       33.4310   18.3850   -2.4830 C.ar  117  TRP117      0.0015
     81  N         32.3390   17.3150   -8.7190 N.3   121  MET121     -0.1245
     82  CA        30.8850   17.2320   -8.4890 C.3   121  MET121      0.1570
     83  C         30.1690   16.6560   -9.7160 C.2   121  MET121      0.2261
     84  O         29.2570   15.8890   -9.5930 O.2   121  MET121     -0.2867
     85  CB        30.2670   18.6080   -8.1470 C.3   121  MET121      0.0387
     86  CG        30.6730   19.2330   -6.8720 C.3   121  MET121      0.0595
     87  SD        29.6840   18.3250   -5.5840 S.3   121  MET121     -0.1393
     88  CE        27.9710   19.0390   -5.5960 C.3   121  MET121      0.0692
     89  N         30.4800   12.8970   -9.5930 N.3   124  TRP124     -0.1241
     90  CA        29.6680   12.1630   -8.6190 C.3   124  TRP124      0.1605
     91  C         28.1730   12.2910   -8.8570 C.2   124  TRP124      0.2264
     92  O         27.4320   11.4080   -8.5410 O.2   124  TRP124     -0.2867
     93  CB        29.9260   12.8370   -7.2670 C.3   124  TRP124      0.0550
     94  CG        31.3510   12.7770   -6.8990 C.ar  124  TRP124      0.0003
     95  CD1       32.2700   11.7300   -7.2100 C.ar  124  TRP124      0.0946
     96  CD2       32.1210   13.7770   -6.0900 C.ar  124  TRP124      0.0152
     97  NE1       33.5330   12.0650   -6.7200 N.ar  124  TRP124     -0.2442
     98  CE2       33.4960   13.2320   -5.9580 C.ar  124  TRP124      0.0810
     99  CE3       31.8190   15.0170   -5.4840 C.ar  124  TRP124      0.0012
    100  CZ2       34.5110   13.9080   -5.2220 C.ar  124  TRP124      0.0191
    101  CZ3       32.8740   15.6870   -4.8240 C.ar  124  TRP124      0.0001
    102  CH2       34.1710   15.1440   -4.6770 C.ar  124  TRP124      0.0015
    103  N         27.4470    9.7130  -11.5850 N.3   127  TYR127     -0.1227
    104  CA        27.4070    8.3900  -10.9540 C.3   127  TYR127      0.1736
    105  C         26.1000    8.2230  -10.2170 C.2   127  TYR127      0.2596
    106  O         25.4030    7.2310  -10.3810 O.2   127  TYR127     -0.2718
    107  CB        28.6250    8.2390   -9.9900 C.3   127  TYR127      0.0548
    108  CG        28.5610    6.8650   -9.3750 C.ar  127  TYR127     -0.0200
    109  CD1       28.9590    5.7810  -10.1150 C.ar  127  TYR127     -0.0009
    110  CD2       27.9910    6.6610   -8.0990 C.ar  127  TYR127     -0.0009
    111  CE1       28.8630    4.5030   -9.5640 C.ar  127  TYR127      0.0417
    112  CE2       27.8530    5.4160   -7.5510 C.ar  127  TYR127      0.0417
    113  CZ        28.3170    4.3360   -8.2930 C.ar  127  TYR127      0.1957
    114  OH        28.2440    3.0720   -7.7500 O.3   127  TYR127     -0.2866
    115  N         25.7330    9.2170   -9.3650 N.am  128  THR128     -0.1953
    116  CA        24.4400    9.1450   -8.6800 C.3   128  THR128      0.1897
    117  C         23.2250    8.9630   -9.6550 C.2   128  THR128      0.2313
    118  O         22.3590    8.0980   -9.4620 O.2   128  THR128     -0.2863
    119  CB        24.2160   10.4280   -7.8480 C.3   128  THR128      0.1794
    120  OG1       25.3160   10.5920   -6.8980 O.3   128  THR128     -0.2208
    121  CG2       22.8760   10.3490   -7.1140 C.3   128  THR128      0.0378
    122  N         23.1400   15.9230   -4.2550 N.3   155  ASN155     -0.1240
    123  CA        24.5630   16.2160   -4.0370 C.3   155  ASN155      0.1653
    124  C         24.8440   17.6110   -3.5230 C.2   155  ASN155      0.2266
    125  O         25.7210   17.7970   -2.6730 O.2   155  ASN155     -0.2867
    126  CB        25.4110   15.8680   -5.3230 C.3   155  ASN155      0.1155
    127  CG        25.6490   14.3830   -5.4620 C.2   155  ASN155      0.2627
    128  OD1       26.6450   13.8630   -4.8500 O.2   155  ASN155     -0.2716
    129  ND2       24.7890   13.6520   -6.2630 N.am  155  ASN155     -0.0877
    130  N         24.0310   17.7460    0.1370 N.3   158  ASN158     -0.1225
    131  CA        25.0730   17.1700    1.0080 C.3   158  ASN158      0.1785
    132  C         26.2390   18.0960    1.1570 C.2   158  ASN158      0.2597
    133  O         26.7860   18.2610    2.2720 O.2   158  ASN158     -0.2718
    134  CB        25.5410   15.7870    0.5230 C.3   158  ASN158      0.1169
    135  CG        24.4910   14.7070    0.7090 C.2   158  ASN158      0.2627
    136  OD1       23.3360   14.9700    0.9320 O.2   158  ASN158     -0.2716
    137  ND2       24.9300   13.4610    0.5520 N.am  158  ASN158     -0.0877
    138  N         26.6500   18.7230    0.0430 N.am  159  GLU159     -0.1979
    139  CA        27.7440   19.6590    0.1940 C.3   159  GLU159      0.1602
    140  C         27.4260   20.7240    1.2320 C.2   159  GLU159      0.2287
    141  O         28.2970   21.0160    2.1060 O.2   159  GLU159     -0.2864
    142  CB        28.0000   20.3550   -1.1480 C.3   159  GLU159      0.0415
    143  CG        29.1130   21.4490   -1.2630 C.3   159  GLU159      0.1163
    144  CD        28.8920   22.2160   -2.5940 C.2   159  GLU159      0.3649
    145  OE1       28.8910   21.6380   -3.6930 O.co2 159  GLU159     -0.2457
    146  OE2       28.6920   23.4220   -2.5490 O.co2 159  GLU159     -0.2457
    147  N         26.7240   19.1130    4.9750 N.3   162  LEU162     -0.1245
    148  CA        27.9350   18.6180    5.6870 C.3   162  LEU162      0.1561
    149  C         28.8180   19.7790    6.0180 C.2   162  LEU162      0.2260
    150  O         29.3860   19.8130    7.1540 O.2   162  LEU162     -0.2867
    151  CB        28.7240   17.5930    4.8170 C.3   162  LEU162      0.0270
    152  CG        27.9770   16.2530    4.6070 C.3   162  LEU162      0.0019
    153  CD1       28.7570   15.4680    3.5560 C.3   162  LEU162      0.0001
    154  CD2       27.9620   15.4610    5.9630 C.3   162  LEU162      0.0001
    155  N         17.8020   11.2430    0.9870 N.3   186  TRP186     -0.1241
    156  CA        18.1700   10.5320   -0.2940 C.3   186  TRP186      0.1605
    157  C         17.2170    9.3180   -0.5490 C.2   186  TRP186      0.2264
    158  O         16.6780    9.1770   -1.6710 O.2   186  TRP186     -0.2867
    159  CB        19.5720    9.9590   -0.2070 C.3   186  TRP186      0.0550
    160  CG        20.5980   11.0340   -0.4520 C.ar  186  TRP186      0.0003
    161  CD1       20.8110   12.2370    0.2540 C.ar  186  TRP186      0.0946
    162  CD2       21.5830   11.0210   -1.5100 C.ar  186  TRP186      0.0152
    163  NE1       21.8290   12.9570   -0.3250 N.ar  186  TRP186     -0.2442
    164  CE2       22.3570   12.2440   -1.3890 C.ar  186  TRP186      0.0810
    165  CE3       21.8550   10.1470   -2.5690 C.ar  186  TRP186      0.0012
    166  CZ2       23.4500   12.6000   -2.2920 C.ar  186  TRP186      0.0191
    167  CZ3       22.9630   10.4830   -3.4340 C.ar  186  TRP186      0.0001
    168  CH2       23.7020   11.6840   -3.3570 C.ar  186  TRP186      0.0015
@<TRIPOS>BOND
     1   103   104    1
     2   104   105    1
     3   104   107    1
     4   106   105    2
     5   105   115   am
     6   109   111   ar
     7   109   108   ar
     8   107   108    1
     9    83    84    2
    10    83    82    1
    11   117   118    2
    12   117   116    1
    13    89    90    1
    14   111   113   ar
    15   108   110   ar
    16   115   116    1
    17    91    90    1
    18    91    92    2
    19    81    82    1
    20   116   119    1
    21    90    93    1
    22    82    85    1
    23   113   114    1
    24   113   112   ar
    25    69    70    2
    26    69    68    1
    27    85    86    1
    28   110   112   ar
    29   119   121    1
    30   119   120    1
    31    67    68    1
    32    20    19    2
    33    21    18    1
    34    93    94    1
    35    95    94   ar
    36    95    97   ar
    37    19    18    1
    38    68    71    1
    39    94    96   ar
    40    86    87    1
    41    97    98   ar
    42    18    17    1
    43   129   127   am
    44    71    72    1
    45    96    98   ar
    46    96    99   ar
    47    98   100   ar
    48    88    87    1
    49    43    41   ar
    50    43    42   ar
    51    99   101   ar
    52   127   126    1
    53   127   128    2
    54    17    11   am
    55    72    73   ar
    56    72    74   ar
    57   126   123    1
    58    73    75   ar
    59    29    28    1
    60     4     3    2
    61   100   102   ar
    62    41    39   ar
    63     3     2    1
    64   101   102   ar
    65    42    40   ar
    66    75    76   ar
    67     5     2    1
    68     5     6    1
    69    74    77   ar
    70    74    76   ar
    71    11    12    2
    72    11    10    1
    73   122   123    1
    74    28    27    1
    75   123   124    1
    76     7     6    1
    77    77    79   ar
    78    76    78   ar
    79     2     1    1
    80    39    38   ar
    81    39    37   ar
    82   145   144   ar
    83   124   125    2
    84     9    10    1
    85   167   168   ar
    86   167   165   ar
    87   168   166   ar
    88     6     8    1
    89    40    37   ar
    90    10    13    1
    91    38    36   ar
    92    79    80   ar
    93    78    80   ar
    94    37    35   ar
    95   144   146   ar
    96   144   143    1
    97   165   162   ar
    98    27    26    1
    99    13    14    1
   100   166   164   ar
   101    66    65   ar
   102    66    64   ar
   103   158   157    2
   104    65    63   ar
   105    36    35   ar
   106    64    62   ar
   107   162   164   ar
   108   162   160   ar
   109    35    34    1
   110   164   163   ar
   111   143   142    1
   112   142   139    1
   113    26    23    1
   114    14    15    1
   115    14    16    1
   116   157   156    1
   117   160   159    1
   118   160   161   ar
   119   163   161   ar
   120    63    61   ar
   121   156   159    1
   122   156   155    1
   123    62    61   ar
   124    25    24    2
   125    34    31    1
   126    45    46    1
   127    45    44    1
   128    31    30    1
   129    31    32    1
   130    24    30   am
   131    24    23    1
   132   138   139    1
   133   138   132   am
   134   130   131    1
   135   139   140    1
   136    23    22    1
   137    47    46    2
   138    61    60    1
   139    46    48   am
   140   134   135    1
   141   134   131    1
   142   137   135   am
   143   135   136    2
   144    33    32    2
   145   131   132    1
   146    53    55    1
   147    53    52    1
   148    48    49    1
   149   132   133    2
   150   140   141    2
   151    49    52    1
   152    49    50    1
   153    60    57    1
   154    52    54    1
   155    56    57    1
   156    57    58    1
   157    50    51    2
   158   153   152    1
   159    58    59    2
   160   152   151    1
   161   152   154    1
   162   151   148    1
   163   147   148    1
   164   148   149    1
   165   149   150    2
