@<TRIPOS>MOLECULE
tmp/5ezgA01.pdb
 136 130 0 0 0
SMALL
GASTEIGER

@<TRIPOS>ATOM
      1  N         43.8170   20.8670   -1.2520 N.3    55  LEU55      -0.1245
      2  CA        42.4030   20.5920   -1.6600 C.3    55  LEU55       0.1561
      3  C         42.3550   19.4870   -2.6630 C.2    55  LEU55       0.2260
      4  O         41.5520   18.5590   -2.6140 O.2    55  LEU55      -0.2867
      5  CB        41.8210   21.8920   -2.2430 C.3    55  LEU55       0.0270
      6  CG        41.6220   23.0630   -1.2730 C.3    55  LEU55       0.0019
      7  CD1       41.1660   24.2950   -2.0650 C.3    55  LEU55       0.0001
      8  CD2       40.4860   22.7010   -0.2460 C.3    55  LEU55       0.0001
      9  N         40.3070   15.9470   -2.1330 N.3    59  VAL59      -0.1245
     10  CA        39.2550   15.5730   -3.0860 C.3    59  VAL59       0.1561
     11  C         39.6170   14.2570   -3.8330 C.2    59  VAL59       0.2260
     12  O         38.7410   13.4090   -4.0960 O.2    59  VAL59      -0.2867
     13  CB        38.8910   16.7170   -4.0250 C.3    59  VAL59       0.0252
     14  CG1       39.8410   16.8410   -5.2120 C.3    59  VAL59       0.0019
     15  CG2       37.4510   16.4870   -4.6220 C.3    59  VAL59       0.0019
     16  N         32.4190   11.2360    2.3660 N.3    89  PHE89      -0.1241
     17  CA        32.6410   12.6420    2.5850 C.3    89  PHE89       0.1605
     18  C         32.6780   12.9700    3.9900 C.2    89  PHE89       0.2264
     19  O         33.5020   13.7590    4.4310 O.2    89  PHE89      -0.2867
     20  CB        31.5410   13.4760    1.8710 C.3    89  PHE89       0.0534
     21  CG        31.6830   13.3690    0.4270 C.ar   89  PHE89      -0.0203
     22  CD1       32.6900   14.1520   -0.1930 C.ar   89  PHE89      -0.0042
     23  CD2       30.9660   12.4220   -0.3160 C.ar   89  PHE89      -0.0042
     24  CE1       32.9160   14.0100   -1.5350 C.ar   89  PHE89      -0.0003
     25  CE2       31.1880   12.3030   -1.6650 C.ar   89  PHE89      -0.0003
     26  CZ        32.1720   13.0730   -2.2630 C.ar   89  PHE89      -0.0000
     27  N         36.4470   14.5500    4.3620 N.3    93  PHE93      -0.1241
     28  CA        36.4790   16.0100    4.5840 C.3    93  PHE93       0.1605
     29  C         36.3550   16.2370    6.0250 C.2    93  PHE93       0.2264
     30  O         36.8850   17.2150    6.5410 O.2    93  PHE93      -0.2867
     31  CB        35.3560   16.7040    3.7360 C.3    93  PHE93       0.0534
     32  CG        35.7640   16.8060    2.2980 C.ar   93  PHE93      -0.0203
     33  CD1       36.3700   17.9420    1.8450 C.ar   93  PHE93      -0.0042
     34  CD2       35.5700   15.7330    1.4270 C.ar   93  PHE93      -0.0042
     35  CE1       36.7840   18.0380    0.5020 C.ar   93  PHE93      -0.0003
     36  CE2       35.9460   15.8230    0.0680 C.ar   93  PHE93      -0.0003
     37  CZ        36.5610   16.9780   -0.3720 C.ar   93  PHE93      -0.0000
     38  N         38.9370   22.0710    4.4670 N.3   100  THR100     -0.1218
     39  CA        37.6200   22.2760    3.8920 C.3   100  THR100      0.1862
     40  C         37.1340   23.7170    4.0500 C.2   100  THR100      0.2287
     41  O         36.6290   24.2670    3.1080 O.2   100  THR100     -0.2866
     42  CB        36.6030   21.2810    4.5660 C.3   100  THR100      0.1770
     43  OG1       37.1030   19.9780    4.3540 O.3   100  THR100     -0.2211
     44  CG2       35.2160   21.3840    3.9170 C.3   100  THR100      0.0375
     45  N         39.1060   25.9710    1.7050 N.3   103  GLY103     -0.1210
     46  CA        38.6730   25.7360    0.3150 C.3   103  GLY103      0.1956
     47  C         37.3820   26.5110    0.0360 C.2   103  GLY103      0.2611
     48  O         37.2300   27.2120   -0.9940 O.2   103  GLY103     -0.2717
     49  N         36.4360   26.4130    0.9420 N.am  104  GLN104     -0.1979
     50  CA        35.1340   27.1140    0.7150 C.3   104  GLN104      0.1601
     51  C         35.3770   28.6210    0.6990 C.2   104  GLN104      0.2287
     52  O         34.8260   29.3560   -0.1490 O.2   104  GLN104     -0.2864
     53  CB        34.1260   26.7890    1.8430 C.3   104  GLN104      0.0394
     54  CG        32.8090   27.6150    1.8220 C.3   104  GLN104      0.0908
     55  CD        32.0480   27.4070    0.5300 C.2   104  GLN104      0.2608
     56  OE1       32.2040   26.4000   -0.1380 O.2   104  GLN104     -0.2717
     57  NE2       31.2540   28.3890    0.1410 N.am  104  GLN104     -0.0878
     58  N         36.8200   29.5410   -2.7010 N.3   107  ARG107     -0.1245
     59  CA        36.2670   29.4730   -4.0510 C.3   107  ARG107      0.1563
     60  C         35.3550   30.6850   -4.3160 C.2   107  ARG107      0.2260
     61  O         34.9550   30.9090   -5.4420 O.2   107  ARG107     -0.2867
     62  CB        35.7450   28.1230   -4.4730 C.3   107  ARG107      0.0307
     63  CG        34.4420   27.8580   -3.9110 C.3   107  ARG107      0.0489
     64  CD        33.5910   26.7780   -4.6260 C.3   107  ARG107      0.2205
     65  NE        32.6180   26.4640   -3.6190 N.pl3 107  ARG107     -0.0865
     66  CZ        31.6250   25.5600   -3.6740 C.cat 107  ARG107      0.5346
     67  NH1       31.2220   24.9080   -4.7910 N.pl3 107  ARG107      0.1354
     68  NH2       30.9690   25.4250   -2.5620 N.pl3 107  ARG107      0.1354
     69  N         39.9530   26.8820   -7.8490 N.3   113  VAL113     -0.1245
     70  CA        39.3570   26.0660   -6.7640 C.3   113  VAL113      0.1561
     71  C         37.9490   25.7280   -7.2320 C.2   113  VAL113      0.2260
     72  O         37.4980   24.6210   -7.0930 O.2   113  VAL113     -0.2867
     73  CB        39.3530   26.8170   -5.4180 C.3   113  VAL113      0.0252
     74  CG1       38.3730   26.1260   -4.4440 C.3   113  VAL113      0.0019
     75  CG2       40.7800   26.8610   -4.8310 C.3   113  VAL113      0.0019
     76  N         38.1330   22.9300   -9.9670 N.3   116  LEU116     -0.1231
     77  CA        38.4710   21.6900   -9.3840 C.3   116  LEU116      0.1693
     78  C         37.2320   21.0290   -8.6860 C.2   116  LEU116      0.2592
     79  O         36.9010   19.8150   -8.9340 O.2   116  LEU116     -0.2718
     80  CB        39.5700   21.9130   -8.3250 C.3   116  LEU116      0.0284
     81  CG        40.0550   20.6380   -7.5930 C.3   116  LEU116      0.0019
     82  CD1       40.5440   19.5970   -8.5950 C.3   116  LEU116      0.0001
     83  CD2       41.1560   20.9560   -6.5960 C.3   116  LEU116      0.0001
     84  N         36.6170   21.8270   -7.8050 N.am  117  TRP117     -0.1976
     85  CA        35.3600   21.2900   -7.1800 C.3   117  TRP117      0.1640
     86  C         34.3380   20.8600   -8.1910 C.2   117  TRP117      0.2290
     87  O         33.8150   19.7490   -8.1270 O.2   117  TRP117     -0.2864
     88  CB        34.8120   22.2340   -6.1060 C.3   117  TRP117      0.0576
     89  CG        33.6990   21.5450   -5.3290 C.ar  117  TRP117      0.0006
     90  CD1       32.3580   21.8670   -5.3070 C.ar  117  TRP117      0.0946
     91  CD2       33.8650   20.4270   -4.3710 C.ar  117  TRP117      0.0152
     92  NE1       31.6890   21.0120   -4.4600 N.ar  117  TRP117     -0.2442
     93  CE2       32.5570   20.1100   -3.8900 C.ar  117  TRP117      0.0810
     94  CE3       34.9590   19.6500   -3.9350 C.ar  117  TRP117      0.0012
     95  CZ2       32.3310   19.1140   -2.9380 C.ar  117  TRP117      0.0191
     96  CZ3       34.7320   18.6290   -2.9970 C.ar  117  TRP117      0.0001
     97  CH2       33.4310   18.3850   -2.4830 C.ar  117  TRP117      0.0015
     98  N         26.6500   18.7230    0.0430 N.3   159  GLU159     -0.1245
     99  CA        27.7440   19.6590    0.1940 C.3   159  GLU159      0.1567
    100  C         27.4260   20.7240    1.2320 C.2   159  GLU159      0.2260
    101  O         28.2970   21.0160    2.1060 O.2   159  GLU159     -0.2867
    102  CB        28.0000   20.3550   -1.1480 C.3   159  GLU159      0.0388
    103  CG        29.1130   21.4490   -1.2630 C.3   159  GLU159      0.1160
    104  CD        28.8920   22.2160   -2.5940 C.2   159  GLU159      0.3649
    105  OE1       28.8910   21.6380   -3.6930 O.co2 159  GLU159     -0.2457
    106  OE2       28.6920   23.4220   -2.5490 O.co2 159  GLU159     -0.2457
    107  N         26.7240   19.1130    4.9750 N.3   162  LEU162     -0.1231
    108  CA        27.9350   18.6180    5.6870 C.3   162  LEU162      0.1693
    109  C         28.8180   19.7790    6.0180 C.2   162  LEU162      0.2588
    110  O         29.3860   19.8130    7.1540 O.2   162  LEU162     -0.2718
    111  CB        28.7240   17.5930    4.8170 C.3   162  LEU162      0.0284
    112  CG        27.9770   16.2530    4.6070 C.3   162  LEU162      0.0019
    113  CD1       28.7570   15.4680    3.5560 C.3   162  LEU162      0.0001
    114  CD2       27.9620   15.4610    5.9630 C.3   162  LEU162      0.0001
    115  N         28.9600   20.7340    5.0730 N.am  163  PHE163     -0.2029
    116  CA        29.8120   21.9000    5.4250 C.3   163  PHE163      0.1325
    117  C         29.3290   22.6070    6.7420 C.3   163  PHE163      0.2039
    118  O         30.1130   22.9470    7.7320 O.3   163  PHE163     -0.2185
    119  CB        29.8210   22.9250    4.2580 C.3   163  PHE163      0.0507
    120  CG        30.8210   24.0610    4.5150 C.ar  163  PHE163     -0.0204
    121  CD1       32.1330   23.8700    4.1750 C.ar  163  PHE163     -0.0042
    122  CD2       30.4340   25.1940    5.2590 C.ar  163  PHE163     -0.0042
    123  CE1       33.1020   24.8750    4.4270 C.ar  163  PHE163     -0.0003
    124  CE2       31.3800   26.1720    5.6020 C.ar  163  PHE163     -0.0003
    125  CZ        32.7080   26.0100    5.1790 C.ar  163  PHE163     -0.0000
    126  N         30.0890   20.4860    9.8330 N.3   166  PHE166     -0.1241
    127  CA        31.4850   20.4220   10.1930 C.3   166  PHE166      0.1605
    128  C         31.9380   21.7190   10.7720 C.2   166  PHE166      0.2264
    129  O         32.7970   21.7360   11.6670 O.2   166  PHE166     -0.2867
    130  CB        32.4220   20.0960    9.0050 C.3   166  PHE166      0.0534
    131  CG        32.2510   18.6900    8.5080 C.ar  166  PHE166     -0.0203
    132  CD1       31.6220   17.7490    9.3100 C.ar  166  PHE166     -0.0042
    133  CD2       32.6990   18.3130    7.2560 C.ar  166  PHE166     -0.0042
    134  CE1       31.4650   16.4460    8.8870 C.ar  166  PHE166     -0.0003
    135  CE2       32.5790   16.9840    6.8460 C.ar  166  PHE166     -0.0003
    136  CZ        31.9350   16.0860    7.6280 C.ar  166  PHE166     -0.0000
@<TRIPOS>BOND
     1    76    77    1
     2    77    78    1
     3    77    80    1
     4    79    78    2
     5    78    84   am
     6    82    81    1
     7    80    81    1
     8    86    87    2
     9    86    85    1
    10    69    70    1
    11    84    85    1
    12    81    83    1
    13    71    72    2
    14    71    70    1
    15    85    88    1
    16    70    73    1
    17    88    89    1
    18    61    60    2
    19    73    75    1
    20    73    74    1
    21    89    90   ar
    22    89    91   ar
    23    90    92   ar
    24    14    13    1
    25    67    66    1
    26    64    63    1
    27    64    65    1
    28    15    13    1
    29    62    59    1
    30    62    63    1
    31    92    93   ar
    32    91    94   ar
    33    91    93   ar
    34    60    59    1
    35    12    11    2
    36    59    58    1
    37    13    10    1
    38    94    96   ar
    39    93    95   ar
    40    11    10    1
    41   105   104   ar
    42    66    65    2
    43    66    68    1
    44    10     9    1
    45    96    97   ar
    46    95    97   ar
    47     3     4    2
    48     3     2    1
    49   104   106   ar
    50   104   103    1
    51    26    25   ar
    52    26    24   ar
    53     5     2    1
    54     5     6    1
    55     7     6    1
    56    25    23   ar
    57     2     1    1
    58    24    22   ar
    59     6     8    1
    60   103   102    1
    61   102    99    1
    62    48    47    2
    63    37    36   ar
    64    37    35   ar
    65    23    21   ar
    66    22    21   ar
    67    52    51    2
    68    56    55    2
    69    47    46    1
    70    47    49   am
    71    98    99    1
    72    36    34   ar
    73    57    55   am
    74    99   100    1
    75    46    45    1
    76    21    20    1
    77    35    33   ar
    78    55    54    1
    79    51    50    1
    80    50    49    1
    81    50    53    1
    82   100   101    2
    83    34    32   ar
    84    54    53    1
    85    33    32   ar
    86    20    17    1
    87    32    31    1
    88    16    17    1
    89    17    18    1
    90    41    40    2
    91   113   112    1
    92    31    28    1
    93    39    40    1
    94    39    38    1
    95    39    42    1
    96    44    42    1
    97    18    19    2
    98   121   123   ar
    99   121   120   ar
   100   119   120    1
   101   119   116    1
   102    43    42    1
   103    27    28    1
   104   123   125   ar
   105   120   122   ar
   106    28    29    1
   107   112   111    1
   108   112   114    1
   109   111   108    1
   110   107   108    1
   111   115   116    1
   112   115   109   am
   113   125   124   ar
   114   122   124   ar
   115   116   117    1
   116   108   109    1
   117   109   110    2
   118    29    30    2
   119   117   118    1
   120   135   133   ar
   121   135   136   ar
   122   133   131   ar
   123   136   134   ar
   124   131   130    1
   125   131   132   ar
   126   134   132   ar
   127   130   127    1
   128   126   127    1
   129   127   128    1
   130   128   129    2
