@<TRIPOS>MOLECULE
tmp/5ezmA02.pdb
 105 105 0 0 0
SMALL
GASTEIGER

@<TRIPOS>ATOM
      1  N         39.7100   -1.5930   58.7930 N.3    48  TRP48      -0.1227
      2  CA        39.8260   -0.8540   57.5440 C.3    48  TRP48       0.1737
      3  C         38.5750   -0.0520   57.2110 C.2    48  TRP48       0.2595
      4  O         38.4850    0.4990   56.1100 O.2    48  TRP48      -0.2718
      5  CB        40.1370   -1.8080   56.3880 C.3    48  TRP48       0.0564
      6  CG        41.5260   -2.3750   56.3980 C.ar   48  TRP48       0.0003
      7  CD1       42.2960   -2.6560   57.4910 C.ar   48  TRP48       0.0946
      8  CD2       42.3160   -2.7200   55.2520 C.ar   48  TRP48       0.0152
      9  NE1       43.5130   -3.1610   57.0950 N.ar   48  TRP48      -0.2442
     10  CE2       43.5490   -3.2100   55.7260 C.ar   48  TRP48       0.0810
     11  CE3       42.0980   -2.6650   53.8710 C.ar   48  TRP48       0.0012
     12  CZ2       44.5570   -3.6430   54.8690 C.ar   48  TRP48       0.0191
     13  CZ3       43.1000   -3.0950   53.0230 C.ar   48  TRP48       0.0001
     14  CH2       44.3140   -3.5770   53.5240 C.ar   48  TRP48       0.0015
     15  N         37.6120    0.0230   58.1250 N.am   49  VAL49      -0.1980
     16  CA        36.3490    0.7140   57.8930 C.3    49  VAL49       0.1595
     17  C         36.2700    2.0140   58.6880 C.2    49  VAL49       0.2287
     18  O         36.0330    3.0830   58.1240 O.2    49  VAL49      -0.2864
     19  CB        35.1510   -0.2050   58.2190 C.3    49  VAL49       0.0276
     20  CG1       33.8390    0.5310   57.9910 C.3    49  VAL49       0.0022
     21  CG2       35.2190   -1.4760   57.3880 C.3    49  VAL49       0.0022
     22  N         40.7990    5.1480   50.7520 N.3    64  PHE64      -0.1241
     23  CA        41.5850    4.3860   49.7800 C.3    64  PHE64       0.1605
     24  C         43.0810    4.6430   49.9370 C.2    64  PHE64       0.2264
     25  O         43.8910    3.7060   49.9160 O.2    64  PHE64      -0.2867
     26  CB        41.1380    4.7020   48.3540 C.3    64  PHE64       0.0534
     27  CG        41.9910    4.0470   47.3010 C.ar   64  PHE64      -0.0203
     28  CD1       41.9450    2.6750   47.1090 C.ar   64  PHE64      -0.0042
     29  CD2       42.8460    4.7990   46.5120 C.ar   64  PHE64      -0.0042
     30  CE1       42.7330    2.0640   46.1460 C.ar   64  PHE64      -0.0003
     31  CE2       43.6340    4.1920   45.5490 C.ar   64  PHE64      -0.0003
     32  CZ        43.5750    2.8230   45.3650 C.ar   64  PHE64      -0.0000
     33  N         44.1520    2.5950   52.7310 N.3    67  TRP67      -0.1241
     34  CA        44.2180    1.1900   52.3410 C.3    67  TRP67       0.1605
     35  C         45.5360    0.8810   51.6420 C.2    67  TRP67       0.2264
     36  O         46.2310   -0.0860   51.9900 O.2    67  TRP67      -0.2867
     37  CB        43.0390    0.8420   51.4340 C.3    67  TRP67       0.0550
     38  CG        41.7220    0.8290   52.1270 C.ar   67  TRP67       0.0003
     39  CD1       41.5020    0.8510   53.4760 C.ar   67  TRP67       0.0946
     40  CD2       40.4310    0.7890   51.5090 C.ar   67  TRP67       0.0152
     41  NE1       40.1500    0.8250   53.7350 N.ar   67  TRP67      -0.2442
     42  CE2       39.4710    0.7880   52.5450 C.ar   67  TRP67       0.0810
     43  CE3       39.9920    0.7530   50.1800 C.ar   67  TRP67       0.0012
     44  CZ2       38.1010    0.7540   52.2930 C.ar   67  TRP67       0.0191
     45  CZ3       38.6260    0.7190   49.9320 C.ar   67  TRP67       0.0001
     46  CH2       37.6990    0.7210   50.9840 C.ar   67  TRP67       0.0015
     47  N         37.1510    4.5950   42.5110 N.3   174  VAL174     -0.1245
     48  CA        38.3310    4.6750   43.3690 C.3   174  VAL174      0.1561
     49  C         38.5650    6.1130   43.8170 C.2   174  VAL174      0.2260
     50  O         38.9160    6.3700   44.9760 O.2   174  VAL174     -0.2867
     51  CB        39.5610    4.1010   42.6420 C.3   174  VAL174      0.0252
     52  CG1       40.7930    4.2000   43.5290 C.3   174  VAL174      0.0019
     53  CG2       39.3120    2.6600   42.2200 C.3   174  VAL174      0.0019
     54  N         36.3080    6.9410   46.5770 N.3   177  LEU177     -0.1245
     55  CA        36.8750    6.3290   47.7740 C.3   177  LEU177      0.1561
     56  C         38.1920    6.9610   48.1950 C.2   177  LEU177      0.2260
     57  O         38.7460    6.5630   49.2240 O.2   177  LEU177     -0.2867
     58  CB        37.0750    4.8290   47.5580 C.3   177  LEU177      0.0270
     59  CG        35.8000    3.9880   47.5120 C.3   177  LEU177      0.0019
     60  CD1       36.1260    2.5320   47.2140 C.3   177  LEU177      0.0001
     61  CD2       35.0420    4.1140   48.8210 C.3   177  LEU177      0.0001
     62  N         29.1370   -0.4710   42.8560 N.3   218  VAL218     -0.1231
     63  CA        29.7010   -1.6650   43.4780 C.3   218  VAL218      0.1692
     64  C         31.0480   -1.3570   44.1140 C.2   218  VAL218      0.2591
     65  O         31.3990   -1.9250   45.1550 O.2   218  VAL218     -0.2718
     66  CB        29.8030   -2.8040   42.4440 C.3   218  VAL218      0.0266
     67  CG1       30.6990   -3.9280   42.9580 C.3   218  VAL218      0.0020
     68  CG2       28.4130   -3.3390   42.1070 C.3   218  VAL218      0.0020
     69  N         31.8130   -0.4370   43.5300 N.am  219  ILE219     -0.1980
     70  CA        33.1260   -0.1310   44.0890 C.3   219  ILE219      0.1595
     71  C         33.0070    0.7590   45.3240 C.2   219  ILE219      0.2287
     72  O         33.6490    0.5060   46.3500 O.2   219  ILE219     -0.2864
     73  CB        34.0270    0.5000   43.0130 C.3   219  ILE219      0.0276
     74  CG1       34.3530   -0.5360   41.9410 C.3   219  ILE219      0.0022
     75  CG2       35.3060    1.0390   43.6330 C.3   219  ILE219      0.0022
     76  CD1       35.2140   -0.0080   40.8310 C.3   219  ILE219      0.0001
     77  N         30.0500   -0.2280   49.2640 N.3   222  PRO222     -0.2102
     78  CA        30.2760   -1.0820   50.4500 C.3   222  PRO222      0.1504
     79  C         30.9300   -0.3890   51.6410 C.2   222  PRO222      0.2575
     80  O         30.4550   -0.5500   52.7740 O.2   222  PRO222     -0.2718
     81  CB        31.1540   -2.2070   49.8890 C.3   222  PRO222      0.0282
     82  CG        30.7250   -2.3260   48.4890 C.3   222  PRO222      0.0208
     83  CD        30.4770   -0.9160   48.0310 C.3   222  PRO222      0.0893
     84  N         31.9950    0.3870   51.4290 N.am  223  TRP223     -0.1977
     85  CA        32.6230    1.0460   52.5700 C.3   223  TRP223      0.1640
     86  C         31.7040    2.0970   53.1770 C.2   223  TRP223      0.2290
     87  O         31.6440    2.2390   54.4030 O.2   223  TRP223     -0.2864
     88  CB        33.9550    1.6810   52.1780 C.3   223  TRP223      0.0576
     89  CG        34.5490    2.4790   53.3090 C.ar  223  TRP223      0.0006
     90  CD1       35.2500    1.9940   54.3780 C.ar  223  TRP223      0.0946
     91  CD2       34.4760    3.8980   53.4920 C.ar  223  TRP223      0.0152
     92  NE1       35.6250    3.0240   55.2080 N.ar  223  TRP223     -0.2442
     93  CE2       35.1610    4.2030   54.6870 C.ar  223  TRP223      0.0810
     94  CE3       33.9030    4.9410   52.7590 C.ar  223  TRP223      0.0012
     95  CZ2       35.2890    5.5040   55.1620 C.ar  223  TRP223      0.0191
     96  CZ3       34.0310    6.2330   53.2330 C.ar  223  TRP223      0.0001
     97  CH2       34.7180    6.5030   54.4230 C.ar  223  TRP223      0.0015
     98  N         29.1540    0.3310   55.2400 N.3   226  LEU226     -0.1245
     99  CA        29.7300   -0.2460   56.4500 C.3   226  LEU226      0.1561
    100  C         30.0010    0.8270   57.4980 C.2   226  LEU226      0.2260
    101  O         29.5990    0.6930   58.6610 O.2   226  LEU226     -0.2867
    102  CB        31.0090   -1.0100   56.1080 C.3   226  LEU226      0.0270
    103  CG        30.7960   -2.3390   55.3780 C.3   226  LEU226      0.0019
    104  CD1       32.1230   -2.9120   54.9120 C.3   226  LEU226      0.0001
    105  CD2       30.0690   -3.3250   56.2720 C.3   226  LEU226      0.0001
@<TRIPOS>BOND
     1    76    74    1
     2    74    73    1
     3    68    66    1
     4    53    51    1
     5    66    67    1
     6    66    63    1
     7    47    48    1
     8    51    48    1
     9    51    52    1
    10    62    63    1
    11    73    75    1
    12    73    70    1
    13    48    49    1
    14    63    64    1
    15    69    70    1
    16    69    64   am
    17    49    50    2
    18    70    71    1
    19    64    65    2
    20    71    72    2
    21    32    31   ar
    22    32    30   ar
    23    31    29   ar
    24    30    28   ar
    25    29    27   ar
    26    54    55    1
    27    28    27   ar
    28    60    59    1
    29    27    26    1
    30    59    58    1
    31    59    61    1
    32    58    55    1
    33    55    56    1
    34    83    82    1
    35    83    77    1
    36    56    57    2
    37    26    23    1
    38    82    81    1
    39    77    78    1
    40    23    24    1
    41    23    22    1
    42    81    78    1
    43    25    24    2
    44    45    43   ar
    45    45    46   ar
    46    43    40   ar
    47    78    79    1
    48    46    44   ar
    49    84    79   am
    50    84    85    1
    51    37    38    1
    52    37    34    1
    53    40    38   ar
    54    40    42   ar
    55    79    80    2
    56    35    36    2
    57    35    34    1
    58    38    39   ar
    59    88    85    1
    60    88    89    1
    61    44    42   ar
    62    34    33    1
    63    42    41   ar
    64    85    86    1
    65    94    96   ar
    66    94    91   ar
    67    13    14   ar
    68    13    11   ar
    69    86    87    2
    70    96    97   ar
    71    89    91   ar
    72    89    90   ar
    73    39    41   ar
    74    91    93   ar
    75    14    12   ar
    76    11     8   ar
    77    90    92   ar
    78    97    95   ar
    79    93    95   ar
    80    93    92   ar
    81    12    10   ar
    82   104   103    1
    83    98    99    1
    84     8    10   ar
    85     8     6   ar
    86   103   102    1
    87   103   105    1
    88    10     9   ar
    89   102    99    1
    90     4     3    2
    91     5     6    1
    92     5     2    1
    93     6     7   ar
    94    99   100    1
    95     9     7   ar
    96     3     2    1
    97     3    15   am
    98    21    19    1
    99   100   101    2
   100     2     1    1
   101    16    15    1
   102    16    19    1
   103    16    17    1
   104    20    19    1
   105    18    17    2
