@<TRIPOS>MOLECULE
tmp/5ezmA20.pdb
 107 108 0 0 0
SMALL
GASTEIGER

@<TRIPOS>ATOM
      1  N         36.9620   12.9560   58.0250 N.3    60  GLU60      -0.1231
      2  CA        37.1380   14.0530   57.0830 C.3    60  GLU60       0.1699
      3  C         37.6120   13.5900   55.7070 C.2    60  GLU60       0.2592
      4  O         37.5910   14.3920   54.7680 O.2    60  GLU60      -0.2718
      5  CB        38.1150   15.1070   57.6510 C.3    60  GLU60       0.0402
      6  CG        37.8740   15.4910   59.1280 C.3    60  GLU60       0.1161
      7  CD        37.4410   16.9560   59.3680 C.2    60  GLU60       0.3649
      8  OE1       37.3190   17.7510   58.4130 O.co2  60  GLU60      -0.2457
      9  OE2       37.2180   17.3240   60.5430 O.co2  60  GLU60      -0.2457
     10  N         38.0150   12.3270   55.5520 N.am   61  LYS61      -0.1980
     11  CA        38.5300   11.8110   54.2870 C.3    61  LYS61       0.1596
     12  C         38.1060   10.3640   54.0810 C.2    61  LYS61       0.2287
     13  O         37.9100    9.6240   55.0530 O.2    61  LYS61      -0.2864
     14  CB        40.0670   11.8810   54.2140 C.3    61  LYS61       0.0298
     15  CG        40.6700   13.2610   54.4040 C.3    61  LYS61       0.0038
     16  CD        40.3550   14.1910   53.2480 C.3    61  LYS61       0.0206
     17  CE        40.8570   15.5940   53.5550 C.3    61  LYS61       0.1093
     18  NZ        40.5440   16.5680   52.4780 N.3    61  LYS61      -0.1314
     19  N         38.7750   10.7820   47.8370 N.3   179  LYS179     -0.1231
     20  CA        38.5270   12.1110   48.3870 C.3   179  LYS179      0.1693
     21  C         37.0840   12.5690   48.1880 C.2   179  LYS179      0.2593
     22  O         36.8250   13.7760   48.1270 O.2   179  LYS179     -0.2718
     23  CB        39.4870   13.1320   47.7750 C.3   179  LYS179      0.0285
     24  CG        39.8630   14.2640   48.7130 C.3   179  LYS179      0.0035
     25  CD        40.8050   15.2400   48.0370 C.3   179  LYS179      0.0206
     26  CE        41.0540   16.4600   48.9020 C.3   179  LYS179      0.1093
     27  NZ        41.8020   17.4940   48.1410 N.3   179  LYS179     -0.1314
     28  N         36.1410   11.6410   48.0840 N.am  180  GLY180     -0.1942
     29  CA        34.7380   12.0070   48.0610 C.3   180  GLY180      0.2014
     30  C         34.2100   12.3180   46.6730 C.2   180  GLY180      0.2639
     31  O         34.7850   11.9460   45.6460 O.2   180  GLY180     -0.2714
     32  N         33.0840   13.0440   46.6570 N.am  181  LEU181     -0.1963
     33  CA        32.3050   13.2440   45.4350 C.3   181  LEU181      0.1728
     34  C         33.0790   13.9670   44.3420 C.2   181  LEU181      0.2616
     35  O         32.6570   13.9330   43.1810 O.2   181  LEU181     -0.2715
     36  CB        31.0270   14.0210   45.7470 C.3   181  LEU181      0.0311
     37  CG        30.0190   13.3480   46.6790 C.3   181  LEU181      0.0022
     38  CD1       28.8200   14.2560   46.9130 C.3   181  LEU181      0.0001
     39  CD2       29.5800   12.0040   46.1170 C.3   181  LEU181      0.0001
     40  N         34.1890   14.6250   44.6910 N.am  182  VAL182     -0.1977
     41  CA        35.0230   15.2980   43.6960 C.3   182  VAL182      0.1596
     42  C         35.2920   14.3720   42.5190 C.2   182  VAL182      0.2287
     43  O         35.1130   14.7460   41.3530 O.2   182  VAL182     -0.2864
     44  CB        36.3390   15.7720   44.3390 C.3   182  VAL182      0.0276
     45  CG1       37.0080   16.8290   43.4740 C.3   182  VAL182      0.0022
     46  CG2       36.0890   16.2820   45.7530 C.3   182  VAL182      0.0022
     47  N         28.0920   13.9090   58.8920 N.3   237  PHE237     -0.1227
     48  CA        29.3750   14.5950   58.9850 C.3   237  PHE237      0.1736
     49  C         30.0430   14.6860   57.6200 C.2   237  PHE237      0.2595
     50  O         30.2340   15.7800   57.0790 O.2   237  PHE237     -0.2718
     51  CB        30.2880   13.8780   59.9820 C.3   237  PHE237      0.0547
     52  CG        31.6030   14.5760   60.2080 C.ar  237  PHE237     -0.0202
     53  CD1       31.7240   15.5500   61.1840 C.ar  237  PHE237     -0.0042
     54  CD2       32.7130   14.2620   59.4390 C.ar  237  PHE237     -0.0042
     55  CE1       32.9240   16.1970   61.3940 C.ar  237  PHE237     -0.0003
     56  CE2       33.9210   14.9050   59.6420 C.ar  237  PHE237     -0.0003
     57  CZ        34.0260   15.8770   60.6230 C.ar  237  PHE237     -0.0000
     58  N         30.3880   13.5350   57.0410 N.am  238  PHE238     -0.1962
     59  CA        31.1860   13.5120   55.8200 C.3   238  PHE238      0.1771
     60  C         30.5180   14.2670   54.6770 C.2   238  PHE238      0.2620
     61  O         31.2110   14.8180   53.8160 O.2   238  PHE238     -0.2715
     62  CB        31.4630   12.0670   55.4080 C.3   238  PHE238      0.0574
     63  CG        32.3680   11.9420   54.2190 C.ar  238  PHE238     -0.0200
     64  CD1       33.7420   11.9770   54.3740 C.ar  238  PHE238     -0.0042
     65  CD2       31.8440   11.7890   52.9450 C.ar  238  PHE238     -0.0042
     66  CE1       34.5770   11.8630   53.2800 C.ar  238  PHE238     -0.0003
     67  CE2       32.6740   11.6750   51.8500 C.ar  238  PHE238     -0.0003
     68  CZ        34.0400   11.7130   52.0170 C.ar  238  PHE238     -0.0000
     69  N         29.1890   14.3060   54.6410 N.am  239  PHE239     -0.1960
     70  CA        28.5050   15.0060   53.5630 C.3   239  PHE239      0.1771
     71  C         28.0370   16.4030   53.9450 C.2   239  PHE239      0.2619
     72  O         27.6130   17.1530   53.0600 O.2   239  PHE239     -0.2715
     73  CB        27.3050   14.1860   53.0680 C.3   239  PHE239      0.0574
     74  CG        27.6880   12.9090   52.3750 C.ar  239  PHE239     -0.0200
     75  CD1       28.3580   12.9380   51.1630 C.ar  239  PHE239     -0.0042
     76  CD2       27.3770   11.6810   52.9330 C.ar  239  PHE239     -0.0042
     77  CE1       28.7160   11.7640   50.5230 C.ar  239  PHE239     -0.0003
     78  CE2       27.7310   10.5040   52.2970 C.ar  239  PHE239     -0.0003
     79  CZ        28.4010   10.5450   51.0910 C.ar  239  PHE239     -0.0000
     80  N         28.1090   16.7830   55.2210 N.am  240  ILE240     -0.1963
     81  CA        27.5570   18.0680   55.6380 C.3   240  ILE240      0.1727
     82  C         28.6140   18.9270   56.3280 C.2   240  ILE240      0.2616
     83  O         28.5590   20.1600   56.2620 O.2   240  ILE240     -0.2715
     84  CB        26.3210   17.8590   56.5350 C.3   240  ILE240      0.0290
     85  CG1       25.2210   17.1350   55.7560 C.3   240  ILE240      0.0022
     86  CG2       25.7750   19.1820   57.0410 C.3   240  ILE240      0.0023
     87  CD1       24.7650   17.8740   54.5200 C.3   240  ILE240      0.0001
     88  N         29.5950   18.2950   56.9730 N.am  241  HIS241     -0.1973
     89  CA        30.6010   19.0400   57.7280 C.3   241  HIS241      0.1656
     90  C         31.3760   20.0260   56.8590 C.2   241  HIS241      0.2291
     91  O         32.1320   19.6220   55.9700 O.2   241  HIS241     -0.2864
     92  CB        31.5840   18.0840   58.4130 C.3   241  HIS241      0.0771
     93  CG        32.7470   18.7730   59.0570 C.ar  241  HIS241      0.0820
     94  ND1       32.6090   19.6120   60.1420 N.ar  241  HIS241     -0.2267
     95  CD2       34.0700   18.7460   58.7690 C.ar  241  HIS241      0.1154
     96  CE1       33.7950   20.0720   60.4960 C.ar  241  HIS241      0.1986
     97  NE2       34.6990   19.5600   59.6790 N.ar  241  HIS241     -0.2212
     98  N         34.3920   21.8740   56.7440 N.3   243  HIS243     -0.1241
     99  CA        35.6790   21.8340   57.4240 C.3   243  HIS243      0.1621
    100  C         36.4710   23.1080   57.1600 C.2   243  HIS243      0.2264
    101  O         36.4270   23.6670   56.0610 O.2   243  HIS243     -0.2867
    102  CB        36.4870   20.6180   56.9720 C.3   243  HIS243      0.0745
    103  CG        37.8360   20.5190   57.6100 C.ar  243  HIS243      0.0817
    104  ND1       38.0080   20.3800   58.9710 N.ar  243  HIS243     -0.2268
    105  CD2       39.0790   20.5360   57.0740 C.ar  243  HIS243      0.1154
    106  CE1       39.2990   20.3140   59.2450 C.ar  243  HIS243      0.1986
    107  NE2       39.9710   20.4080   58.1110 N.ar  243  HIS243     -0.2212
@<TRIPOS>BOND
     1    43    42    2
     2    42    41    1
     3    35    34    2
     4    45    44    1
     5    41    44    1
     6    41    40    1
     7    44    46    1
     8    34    40   am
     9    34    33    1
    10    33    36    1
    11    33    32    1
    12    31    30    2
    13    36    37    1
    14    39    37    1
    15    32    30   am
    16    30    29    1
    17    37    38    1
    18    23    20    1
    19    23    24    1
    20    19    20    1
    21    25    24    1
    22    25    26    1
    23    29    28    1
    24    28    21   am
    25    22    21    2
    26    27    26    1
    27    21    20    1
    28    77    79   ar
    29    77    75   ar
    30    79    78   ar
    31    75    74   ar
    32    67    68   ar
    33    67    65   ar
    34    68    66   ar
    35    78    76   ar
    36    74    76   ar
    37    74    73    1
    38    18    17    1
    39    65    63   ar
    40    72    71    2
    41    73    70    1
    42    16    17    1
    43    16    15    1
    44    66    64   ar
    45    70    71    1
    46    70    69    1
    47    61    60    2
    48    71    80   am
    49    12    11    1
    50    12    13    2
    51    14    11    1
    52    14    15    1
    53    63    64   ar
    54    63    62    1
    55    11    10    1
    56    87    85    1
    57    69    60   am
    58    60    59    1
    59     4     3    2
    60    80    81    1
    61    62    59    1
    62    10     3   am
    63    81    82    1
    64    81    84    1
    65     3     2    1
    66    85    84    1
    67    59    58    1
    68    91    90    2
    69   101   100    2
    70    83    82    2
    71    82    88   am
    72    84    86    1
    73    98    99    1
    74    90    89    1
    75   102    99    1
    76   102   103    1
    77    88    89    1
    78    58    49   am
    79   105   103   ar
    80   105   107   ar
    81    50    49    2
    82     2     5    1
    83     2     1    1
    84   100    99    1
    85   103   104   ar
    86    49    48    1
    87     5     6    1
    88    89    92    1
    89   107   106   ar
    90    92    93    1
    91     8     7   ar
    92    95    93   ar
    93    95    97   ar
    94    47    48    1
    95   104   106   ar
    96    48    51    1
    97    93    94   ar
    98     6     7    1
    99     7     9   ar
   100    54    56   ar
   101    54    52   ar
   102    56    57   ar
   103    97    96   ar
   104    51    52    1
   105    94    96   ar
   106    52    53   ar
   107    57    55   ar
   108    53    55   ar
