@<TRIPOS>MOLECULE
tmp/5ezmA29.pdb
 117 110 0 0 0
SMALL
GASTEIGER

@<TRIPOS>ATOM
      1  N         57.3490   20.2130   38.1870 N.3   122  PRO122     -0.2102
      2  CA        57.6330   20.1290   39.6270 C.3   122  PRO122      0.1504
      3  C         56.4120   19.8150   40.4670 C.2   122  PRO122      0.2575
      4  O         56.5540   19.1880   41.5210 O.2   122  PRO122     -0.2718
      5  CB        58.1960   21.5180   39.9500 C.3   122  PRO122      0.0282
      6  CG        57.5940   22.4020   38.9270 C.3   122  PRO122      0.0208
      7  CD        57.5300   21.5790   37.6720 C.3   122  PRO122      0.0893
      8  N         55.2160   20.2300   40.0460 N.am  123  MET123     -0.1980
      9  CA        54.0270   19.8950   40.8230 C.3   123  MET123      0.1605
     10  C         53.7710   18.3920   40.8190 C.2   123  MET123      0.2287
     11  O         53.4140   17.8160   41.8550 O.2   123  MET123     -0.2864
     12  CB        52.8150   20.6560   40.2910 C.3   123  MET123      0.0413
     13  CG        51.5070   20.3090   40.9800 C.3   123  MET123      0.0598
     14  SD        50.2380   21.5780   40.7610 S.3   123  MET123     -0.1393
     15  CE        50.7080   22.7450   42.0340 C.3   123  MET123      0.0692
     16  N         57.1330   16.6790   42.7800 N.3   126  VAL126     -0.1231
     17  CA        57.0710   17.0580   44.1910 C.3   126  VAL126      0.1692
     18  C         55.8370   16.4500   44.8470 C.2   126  VAL126      0.2591
     19  O         55.9330   15.7260   45.8460 O.2   126  VAL126     -0.2718
     20  CB        57.0910   18.5900   44.3420 C.3   126  VAL126      0.0266
     21  CG1       56.5940   19.0100   45.7240 C.3   126  VAL126      0.0020
     22  CG2       58.4900   19.1260   44.1000 C.3   126  VAL126      0.0020
     23  N         54.6560   16.7300   44.2860 N.am  127  ALA127     -0.1980
     24  CA        53.4370   16.1570   44.8450 C.3   127  ALA127      0.1597
     25  C         53.4810   14.6340   44.8290 C.2   127  ALA127      0.2287
     26  O         52.9090   13.9850   45.7110 O.2   127  ALA127     -0.2864
     27  CB        52.2140   16.6700   44.0830 C.3   127  ALA127      0.0319
     28  N         55.3580   13.6170   48.0350 N.3   130  PHE130     -0.1241
     29  CA        54.9030   14.2630   49.2600 C.3   130  PHE130      0.1605
     30  C         53.6030   13.6070   49.6950 C.2   130  PHE130      0.2264
     31  O         52.6020   13.6770   48.9760 O.2   130  PHE130     -0.2867
     32  CB        54.7120   15.7660   49.0430 C.3   130  PHE130      0.0534
     33  CG        54.4600   16.5300   50.3050 C.ar  130  PHE130     -0.0203
     34  CD1       55.5150   16.9190   51.1130 C.ar  130  PHE130     -0.0042
     35  CD2       53.1690   16.8630   50.6840 C.ar  130  PHE130     -0.0042
     36  CE1       55.2880   17.6220   52.2790 C.ar  130  PHE130     -0.0003
     37  CE2       52.9360   17.5700   51.8460 C.ar  130  PHE130     -0.0003
     38  CZ        53.9980   17.9490   52.6460 C.ar  130  PHE130     -0.0000
     39  N         50.4030   13.1140   50.5650 N.3   132  THR132     -0.1218
     40  CA        49.1230   13.7920   50.7010 C.3   132  THR132      0.1862
     41  C         48.1270   13.1120   49.7740 C.2   132  THR132      0.2287
     42  O         48.5090   12.4390   48.8150 O.2   132  THR132     -0.2866
     43  CB        49.2350   15.2880   50.3770 C.3   132  THR132      0.1770
     44  OG1       47.9970   15.9380   50.6830 O.3   132  THR132     -0.2211
     45  CG2       49.5510   15.4920   48.9040 C.3   132  THR132      0.0375
     46  N         46.1720   14.4320   47.6580 N.3   134  ASP134     -0.1239
     47  CA        45.9540   15.1110   46.3860 C.3   134  ASP134      0.1674
     48  C         46.6380   14.3960   45.2260 C.2   134  ASP134      0.2266
     49  O         46.1120   14.3950   44.1070 O.2   134  ASP134     -0.2867
     50  CB        46.4340   16.5590   46.4870 C.3   134  ASP134      0.1410
     51  CG        45.6910   17.3410   47.5560 C.2   134  ASP134      0.3668
     52  OD1       44.4500   17.2100   47.6320 O.co2 134  ASP134     -0.2456
     53  OD2       46.3470   18.0750   48.3270 O.co2 134  ASP134     -0.2456
     54  N         50.4050   28.9400   41.4050 N.3   257  LEU257     -0.1245
     55  CA        50.5630   27.5120   41.6590 C.3   257  LEU257      0.1561
     56  C         50.6400   26.7300   40.3550 C.2   257  LEU257      0.2260
     57  O         51.4870   25.8450   40.2040 O.2   257  LEU257     -0.2867
     58  CB        49.4160   26.9970   42.5260 C.3   257  LEU257      0.0270
     59  CG        49.5250   27.3000   44.0170 C.3   257  LEU257      0.0019
     60  CD1       48.2250   26.9530   44.7130 C.3   257  LEU257      0.0001
     61  CD2       50.6750   26.5250   44.6240 C.3   257  LEU257      0.0001
     62  N         54.0220   27.9320   38.5230 N.3   260  GLY260     -0.1210
     63  CA        55.2050   27.3680   39.1470 C.3   260  GLY260      0.1956
     64  C         55.2450   25.8540   39.0880 C.2   260  GLY260      0.2612
     65  O         56.3200   25.2620   38.9600 O.2   260  GLY260     -0.2717
     66  N         54.0840   25.2080   39.1770 N.am  261  GLY261     -0.1956
     67  CA        54.0130   23.7610   39.1440 C.3   261  GLY261      0.1869
     68  C         54.1890   23.1510   37.7760 C.2   261  GLY261      0.2309
     69  O         54.3650   21.9340   37.6700 O.2   261  GLY261     -0.2863
     70  N         56.4790   24.8120   35.6100 N.3   263  LEU263     -0.1245
     71  CA        57.4140   25.8740   35.2410 C.3   263  LEU263      0.1561
     72  C         58.2930   25.5320   34.0430 C.2   263  LEU263      0.2260
     73  O         58.3970   26.3700   33.1310 O.2   263  LEU263     -0.2867
     74  CB        58.2580   26.2550   36.4620 C.3   263  LEU263      0.0270
     75  CG        59.1990   27.4500   36.2990 C.3   263  LEU263      0.0019
     76  CD1       58.4200   28.7090   35.9530 C.3   263  LEU263      0.0001
     77  CD2       60.0060   27.6520   37.5640 C.3   263  LEU263      0.0001
     78  N         46.6790   24.1640   47.8370 N.3   305  PRO305     -0.2102
     79  CA        47.4070   23.9740   46.5670 C.3   305  PRO305      0.1504
     80  C         47.1600   22.6270   45.9080 C.2   305  PRO305      0.2576
     81  O         46.8940   22.5750   44.6990 O.2   305  PRO305     -0.2718
     82  CB        48.8770   24.1550   46.9780 C.3   305  PRO305      0.0282
     83  CG        48.9000   23.9840   48.4650 C.3   305  PRO305      0.0208
     84  CD        47.5820   24.4930   48.9510 C.3   305  PRO305      0.0893
     85  N         47.2170   21.5370   46.6780 N.am  306  GLY306     -0.1957
     86  CA        47.0080   20.2070   46.1300 C.3   306  GLY306      0.1869
     87  C         45.7330   20.0520   45.3250 C.2   306  GLY306      0.2309
     88  O         45.6860   19.2120   44.4190 O.2   306  GLY306     -0.2863
     89  N         46.3140   19.8350   41.6120 N.3   309  VAL309     -0.1245
     90  CA        47.1950   18.8230   41.0150 C.3   309  VAL309      0.1561
     91  C         46.5230   18.0180   39.9100 C.2   309  VAL309      0.2260
     92  O         47.1770   17.7530   38.8900 O.2   309  VAL309     -0.2867
     93  CB        47.8050   17.9400   42.1140 C.3   309  VAL309      0.0252
     94  CG1       48.6690   16.8590   41.5010 C.3   309  VAL309      0.0019
     95  CG2       48.6370   18.7850   43.0750 C.3   309  VAL309      0.0019
     96  N         69.0910   24.8730   41.3380 N.3   376  PHE376     -0.1241
     97  CA        69.1210   25.6670   40.1140 C.3   376  PHE376      0.1605
     98  C         70.3950   25.4160   39.3160 C.2   376  PHE376      0.2264
     99  O         70.3890   25.5470   38.0850 O.2   376  PHE376     -0.2867
    100  CB        68.9580   27.1520   40.4360 C.3   376  PHE376      0.0534
    101  CG        67.5450   27.5400   40.7720 C.ar  376  PHE376     -0.0203
    102  CD1       66.5560   27.4980   39.8030 C.ar  376  PHE376     -0.0042
    103  CD2       67.2050   27.9360   42.0550 C.ar  376  PHE376     -0.0042
    104  CE1       65.2540   27.8470   40.1060 C.ar  376  PHE376     -0.0003
    105  CE2       65.9030   28.2870   42.3660 C.ar  376  PHE376     -0.0003
    106  CZ        64.9260   28.2430   41.3900 C.ar  376  PHE376     -0.0000
    107  N         64.4560   19.8670   40.8020 N.3   409  PHE409     -0.1241
    108  CA        63.3890   20.0030   41.7840 C.3   409  PHE409      0.1605
    109  C         63.4440   18.8970   42.8280 C.2   409  PHE409      0.2264
    110  O         63.0190   19.1070   43.9710 O.2   409  PHE409     -0.2867
    111  CB        62.0330   20.0290   41.0830 C.3   409  PHE409      0.0534
    112  CG        61.7790   21.2990   40.3240 C.ar  409  PHE409     -0.0203
    113  CD1       61.4390   22.4630   40.9940 C.ar  409  PHE409     -0.0042
    114  CD2       61.8940   21.3340   38.9460 C.ar  409  PHE409     -0.0042
    115  CE1       61.2110   23.6360   40.3040 C.ar  409  PHE409     -0.0003
    116  CE2       61.6670   22.5060   38.2520 C.ar  409  PHE409     -0.0003
    117  CZ        61.3250   23.6580   38.9340 C.ar  409  PHE409     -0.0000
@<TRIPOS>BOND
     1    73    72    2
     2    72    71    1
     3    71    70    1
     4    71    74    1
     5    76    75    1
     6    75    74    1
     7    75    77    1
     8    69    68    2
     9     7     1    1
    10     7     6    1
    11    68    67    1
    12    99    98    2
    13     1     2    1
    14   116   117   ar
    15   116   114   ar
    16    62    63    1
    17    92    91    2
    18     6     5    1
    19   117   115   ar
    20   114   112   ar
    21    65    64    2
    22    64    63    1
    23    64    66   am
    24    67    66    1
    25    98    97    1
    26     2     5    1
    27     2     3    1
    28   102   104   ar
    29   102   101   ar
    30    91    90    1
    31     8     3   am
    32     8     9    1
    33   104   106   ar
    34    97   100    1
    35    97    96    1
    36    57    56    2
    37    12     9    1
    38    12    13    1
    39   115   113   ar
    40   112   113   ar
    41   112   111    1
    42    56    55    1
    43   100   101    1
    44     3     4    2
    45    14    13    1
    46    14    15    1
    47   101   103   ar
    48   107   108    1
    49    10     9    1
    50    10    11    2
    51    90    89    1
    52    90    93    1
    53   111   108    1
    54   106   105   ar
    55    54    55    1
    56    94    93    1
    57    55    58    1
    58   108   109    1
    59   103   105   ar
    60    93    95    1
    61    58    59    1
    62    16    17    1
    63   109   110    2
    64    59    61    1
    65    59    60    1
    66    27    24    1
    67    22    20    1
    68    49    48    2
    69    17    20    1
    70    17    18    1
    71    23    24    1
    72    23    18   am
    73    20    21    1
    74    88    87    2
    75    81    80    2
    76    25    24    1
    77    25    26    2
    78    18    19    2
    79    48    47    1
    80    87    86    1
    81    80    79    1
    82    80    85   am
    83    86    85    1
    84    47    50    1
    85    47    46    1
    86    50    51    1
    87    79    82    1
    88    79    78    1
    89    82    83    1
    90    51    52   ar
    91    51    53   ar
    92    78    84    1
    93    28    29    1
    94    83    84    1
    95    42    41    2
    96    45    43    1
    97    31    30    2
    98    32    29    1
    99    32    33    1
   100    29    30    1
   101    41    40    1
   102    33    35   ar
   103    33    34   ar
   104    43    44    1
   105    43    40    1
   106    39    40    1
   107    35    37   ar
   108    34    36   ar
   109    37    38   ar
   110    36    38   ar
