@<TRIPOS>MOLECULE
tmp/5ezmA09.pdb
 110 103 0 0 0
SMALL
GASTEIGER

@<TRIPOS>ATOM
      1  N         31.3600   17.5600   35.3360 N.3   189  LEU189     -0.1245
      2  CA        31.5460   18.9530   34.9450 C.3   189  LEU189      0.1561
      3  C         32.3330   19.0450   33.6420 C.2   189  LEU189      0.2260
      4  O         31.8190   19.5130   32.6180 O.2   189  LEU189     -0.2867
      5  CB        32.2560   19.7160   36.0660 C.3   189  LEU189      0.0270
      6  CG        32.7050   21.1440   35.7510 C.3   189  LEU189      0.0019
      7  CD1       31.5080   22.0560   35.5170 C.3   189  LEU189      0.0001
      8  CD2       33.6000   21.6870   36.8580 C.3   189  LEU189      0.0001
      9  N         30.6130   20.5230   30.1380 N.3   193  VAL193     -0.1245
     10  CA        31.2860   21.6320   29.4650 C.3   193  VAL193      0.1561
     11  C         31.7330   21.2040   28.0750 C.2   193  VAL193      0.2260
     12  O         31.4840   21.8970   27.0790 O.2   193  VAL193     -0.2867
     13  CB        32.4720   22.1330   30.3080 C.3   193  VAL193      0.0252
     14  CG1       33.1930   23.2600   29.5860 C.3   193  VAL193      0.0019
     15  CG2       31.9940   22.5930   31.6750 C.3   193  VAL193      0.0019
     16  N         30.6920   22.7830   24.3040 N.3   197  VAL197     -0.1245
     17  CA        31.6020   23.4520   23.3820 C.3   197  VAL197      0.1561
     18  C         31.5840   22.7690   22.0200 C.2   197  VAL197      0.2260
     19  O         31.5870   23.4360   20.9780 O.2   197  VAL197     -0.2867
     20  CB        33.0190   23.5000   23.9810 C.3   197  VAL197      0.0252
     21  CG1       33.9770   24.2100   23.0370 C.3   197  VAL197      0.0019
     22  CG2       32.9960   24.1870   25.3390 C.3   197  VAL197      0.0019
     23  N         47.3900   25.9500   24.3690 N.3   273  TRP273     -0.1241
     24  CA        46.0990   26.3970   23.8590 C.3   273  TRP273      0.1605
     25  C         45.9410   26.0340   22.3860 C.2   273  TRP273      0.2264
     26  O         44.9620   25.3890   21.9900 O.2   273  TRP273     -0.2867
     27  CB        45.9570   27.9050   24.0730 C.3   273  TRP273      0.0550
     28  CG        44.6950   28.4910   23.5140 C.ar  273  TRP273      0.0003
     29  CD1       44.5430   29.1050   22.3050 C.ar  273  TRP273      0.0946
     30  CD2       43.4100   28.5240   24.1460 C.ar  273  TRP273      0.0152
     31  NE1       43.2420   29.5160   22.1440 N.ar  273  TRP273     -0.2442
     32  CE2       42.5260   29.1720   23.2600 C.ar  273  TRP273      0.0810
     33  CE3       42.9190   28.0670   25.3730 C.ar  273  TRP273      0.0012
     34  CZ2       41.1810   29.3740   23.5610 C.ar  273  TRP273      0.0191
     35  CZ3       41.5830   28.2710   25.6710 C.ar  273  TRP273      0.0001
     36  CH2       40.7290   28.9180   24.7680 C.ar  273  TRP273      0.0015
     37  N         44.6590   22.4790   21.6350 N.3   276  MET276     -0.1230
     38  CA        43.2850   22.0010   21.7570 C.3   276  MET276      0.1702
     39  C         42.3330   22.6630   20.7700 C.2   276  MET276      0.2592
     40  O         41.4690   21.9860   20.2050 O.2   276  MET276     -0.2718
     41  CB        42.7690   22.2080   23.1870 C.3   276  MET276      0.0401
     42  CG        43.0320   23.5890   23.7580 C.3   276  MET276      0.0596
     43  SD        42.2920   23.8480   25.3820 S.3   276  MET276     -0.1393
     44  CE        40.5640   23.9990   24.9540 C.3   276  MET276      0.0692
     45  N         42.4750   23.9710   20.5430 N.am  277  ARG277     -0.1980
     46  CA        41.6690   24.6560   19.5400 C.3   277  ARG277      0.1597
     47  C         41.9460   24.1610   18.1270 C.2   277  ARG277      0.2287
     48  O         41.1440   24.4310   17.2260 O.2   277  ARG277     -0.2864
     49  CB        41.9100   26.1650   19.6190 C.3   277  ARG277      0.0334
     50  CG        41.5670   26.8840   20.9230 C.3   277  ARG277      0.0492
     51  CD        40.0610   26.8960   21.1970 C.3   277  ARG277      0.2205
     52  NE        39.2610   27.3990   20.0880 N.pl3 277  ARG277     -0.0865
     53  CZ        39.2250   28.6780   19.6760 C.cat 277  ARG277      0.5346
     54  NH1       39.9630   29.6280   20.2280 N.pl3 277  ARG277      0.1354
     55  NH2       38.4500   29.0050   18.6470 N.pl3 277  ARG277      0.1354
     56  N         41.1520   18.7820   22.9960 N.3   284  LEU284     -0.1245
     57  CA        40.1170   19.6510   23.5480 C.3   284  LEU284      0.1561
     58  C         39.5830   19.1000   24.8650 C.2   284  LEU284      0.2260
     59  O         39.2650   19.8660   25.7820 O.2   284  LEU284     -0.2867
     60  CB        38.9850   19.8240   22.5350 C.3   284  LEU284      0.0270
     61  CG        37.7360   20.5850   22.9860 C.3   284  LEU284      0.0019
     62  CD1       38.0660   22.0250   23.3360 C.3   284  LEU284      0.0001
     63  CD2       36.6600   20.5290   21.9120 C.3   284  LEU284      0.0001
     64  N         39.7520   21.2110   28.3070 N.3   288  ILE288     -0.1245
     65  CA        38.5690   21.4800   29.1180 C.3   288  ILE288      0.1561
     66  C         38.7190   20.8570   30.5000 C.2   288  ILE288      0.2260
     67  O         38.2100   21.3930   31.4910 O.2   288  ILE288     -0.2867
     68  CB        37.3060   20.9830   28.3910 C.3   288  ILE288      0.0252
     69  CG1       37.0810   21.8010   27.1180 C.3   288  ILE288      0.0019
     70  CG2       36.0880   21.0670   29.2950 C.3   288  ILE288      0.0019
     71  CD1       35.8670   21.3810   26.3220 C.3   288  ILE288      0.0001
     72  N         41.2320   23.4360   32.3050 N.3   291  ILE291     -0.1231
     73  CA        40.6300   24.7530   32.4970 C.3   291  ILE291      0.1692
     74  C         39.4280   24.6620   33.4310 C.2   291  ILE291      0.2591
     75  O         39.2870   25.4600   34.3660 O.2   291  ILE291     -0.2718
     76  CB        40.2430   25.3730   31.1430 C.3   291  ILE291      0.0266
     77  CG1       41.4860   25.5990   30.2800 C.3   291  ILE291      0.0019
     78  CG2       39.5000   26.6850   31.3530 C.3   291  ILE291      0.0020
     79  CD1       41.1720   25.9700   28.8410 C.3   291  ILE291      0.0001
     80  N         38.5460   23.6900   33.1920 N.am  292  ALA292     -0.1980
     81  CA        37.3400   23.5640   34.0040 C.3   292  ALA292      0.1597
     82  C         37.6810   23.2790   35.4610 C.2   292  ALA292      0.2287
     83  O         37.1220   23.8990   36.3730 O.2   292  ALA292     -0.2864
     84  CB        36.4380   22.4690   33.4380 C.3   292  ALA292      0.0319
     85  N         39.2040   26.5240   37.0610 N.3   295  VAL295     -0.1231
     86  CA        38.2460   27.5560   37.4420 C.3   295  VAL295      0.1692
     87  C         37.3100   27.0490   38.5300 C.2   295  VAL295      0.2592
     88  O         36.7700   27.8450   39.3080 O.2   295  VAL295     -0.2718
     89  CB        37.4610   28.0640   36.2170 C.3   295  VAL295      0.0266
     90  CG1       38.4150   28.5250   35.1320 C.3   295  VAL295      0.0020
     91  CG2       36.5110   26.9990   35.7010 C.3   295  VAL295      0.0020
     92  N         37.1040   25.7320   38.6150 N.am  296  PHE296     -0.1976
     93  CA        36.2700   25.1960   39.6850 C.3   296  PHE296      0.1639
     94  C         36.9140   25.4360   41.0420 C.2   296  PHE296      0.2290
     95  O         36.2720   25.9570   41.9630 O.2   296  PHE296     -0.2864
     96  CB        36.0140   23.7040   39.4760 C.3   296  PHE296      0.0560
     97  CG        35.3800   23.0340   40.6650 C.ar  296  PHE296     -0.0200
     98  CD1       34.0200   23.1500   40.8990 C.ar  296  PHE296     -0.0042
     99  CD2       36.1470   22.2990   41.5570 C.ar  296  PHE296     -0.0042
    100  CE1       33.4340   22.5400   41.9940 C.ar  296  PHE296     -0.0003
    101  CE2       35.5670   21.6870   42.6550 C.ar  296  PHE296     -0.0003
    102  CZ        34.2090   21.8070   42.8730 C.ar  296  PHE296     -0.0000
    103  N         37.1940   29.3000   42.0930 N.3   299  ILE299     -0.1245
    104  CA        36.0180   29.9870   42.6180 C.3   299  ILE299      0.1561
    105  C         35.4780   29.3320   43.8770 C.2   299  ILE299      0.2260
    106  O         34.4240   29.7450   44.3760 O.2   299  ILE299     -0.2867
    107  CB        34.9030   30.0830   41.5590 C.3   299  ILE299      0.0252
    108  CG1       34.3570   28.6900   41.2350 C.3   299  ILE299      0.0019
    109  CG2       35.4180   30.7700   40.3010 C.3   299  ILE299      0.0019
    110  CD1       33.3350   28.6800   40.1160 C.3   299  ILE299      0.0001
@<TRIPOS>BOND
     1    48    47    2
     2    47    46    1
     3    55    53    1
     4    46    49    1
     5    46    45    1
     6    49    50    1
     7    53    52    2
     8    53    54    1
     9    52    51    1
    10    40    39    2
    11    45    39   am
    12    39    38    1
    13    50    51    1
    14    19    18    2
    15    37    38    1
    16    38    41    1
    17    63    61    1
    18    26    25    2
    19    18    17    1
    20    31    29   ar
    21    31    32   ar
    22    29    28   ar
    23    25    24    1
    24    60    61    1
    25    60    57    1
    26    61    62    1
    27    56    57    1
    28    21    20    1
    29    41    42    1
    30    32    34   ar
    31    32    30   ar
    32    17    20    1
    33    17    16    1
    34    28    27    1
    35    28    30   ar
    36    57    58    1
    37    34    36   ar
    38    42    43    1
    39    24    27    1
    40    24    23    1
    41    20    22    1
    42    30    33   ar
    43    36    35   ar
    44    58    59    2
    45    44    43    1
    46    33    35   ar
    47    71    69    1
    48    12    11    2
    49    69    68    1
    50    11    10    1
    51    64    65    1
    52    68    65    1
    53    68    70    1
    54    79    77    1
    55    65    66    1
    56    10     9    1
    57    10    13    1
    58    14    13    1
    59    77    76    1
    60    13    15    1
    61    66    67    2
    62    76    78    1
    63    76    73    1
    64    72    73    1
    65    73    74    1
    66     4     3    2
    67    80    74   am
    68    80    81    1
    69    74    75    2
    70    84    81    1
    71     3     2    1
    72    81    82    1
    73     2     1    1
    74     2     5    1
    75    90    89    1
    76    82    83    2
    77     7     6    1
    78    91    89    1
    79     6     5    1
    80     6     8    1
    81    89    86    1
    82    85    86    1
    83    86    87    1
    84    87    92   am
    85    87    88    2
    86    92    93    1
    87    96    93    1
    88    96    97    1
    89    93    94    1
    90   110   108    1
    91   109   107    1
    92    97    98   ar
    93    97    99   ar
    94    98   100   ar
    95    94    95    2
    96   108   107    1
    97    99   101   ar
    98   107   104    1
    99   100   102   ar
   100   103   104    1
   101   104   105    1
   102   101   102   ar
   103   105   106    2
