@<TRIPOS>MOLECULE
tmp/5ezmA22.pdb
 164 157 0 0 0
SMALL
GASTEIGER

@<TRIPOS>ATOM
      1  N         40.9160    8.2830   35.1180 N.3   144  VAL144     -0.1231
      2  CA        39.6040    8.6350   34.5720 C.3   144  VAL144      0.1692
      3  C         39.7580    9.2620   33.1910 C.2   144  VAL144      0.2591
      4  O         39.1400    8.8230   32.2100 O.2   144  VAL144     -0.2718
      5  CB        38.8500    9.5780   35.5280 C.3   144  VAL144      0.0266
      6  CG1       37.4840    9.9250   34.9580 C.3   144  VAL144      0.0020
      7  CG2       38.7120    8.9540   36.9060 C.3   144  VAL144      0.0020
      8  N         40.5980   10.2970   33.0950 N.am  145  LEU145     -0.1980
      9  CA        40.7920   10.9870   31.8240 C.3   145  LEU145      0.1596
     10  C         41.3800   10.0560   30.7720 C.2   145  LEU145      0.2287
     11  O         40.8550    9.9500   29.6570 O.2   145  LEU145     -0.2864
     12  CB        41.6940   12.2030   32.0240 C.3   145  LEU145      0.0297
     13  CG        42.0920   12.9300   30.7390 C.3   145  LEU145      0.0022
     14  CD1       40.8710   13.5510   30.0910 C.3   145  LEU145      0.0001
     15  CD2       43.1570   13.9800   31.0120 C.3   145  LEU145      0.0001
     16  N         38.9740    7.4220   29.6050 N.3   148  MET148     -0.1245
     17  CA        37.9550    8.0380   28.7620 C.3   148  MET148      0.1570
     18  C         38.4860    8.3000   27.3580 C.2   148  MET148      0.2261
     19  O         37.7830    8.0650   26.3680 O.2   148  MET148     -0.2867
     20  CB        37.4580    9.3330   29.3990 C.3   148  MET148      0.0387
     21  CG        36.5310   10.1550   28.5140 C.3   148  MET148      0.0595
     22  SD        35.0010    9.3000   28.0810 S.3   148  MET148     -0.1393
     23  CE        34.0970   10.6220   27.2790 C.3   148  MET148      0.0692
     24  N         35.5960    2.0200   29.1020 N.3   165  MET165     -0.1245
     25  CA        34.5570    2.7840   29.7820 C.3   165  MET165      0.1570
     26  C         34.3070    2.2640   31.1920 C.2   165  MET165      0.2261
     27  O         34.1950    3.0580   32.1340 O.2   165  MET165     -0.2867
     28  CB        33.2680    2.7750   28.9630 C.3   165  MET165      0.0387
     29  CG        33.2280    3.8710   27.9150 C.3   165  MET165      0.0595
     30  SD        33.7810    5.4550   28.5870 S.3   165  MET165     -0.1393
     31  CE        35.2940    5.7050   27.6640 C.3   165  MET165      0.0692
     32  N         37.0340    3.4540   33.1480 N.3   168  CYS168     -0.1221
     33  CA        36.8620    4.8550   33.5130 C.3   168  CYS168      0.1808
     34  C         35.9520    4.9970   34.7270 C.2   168  CYS168      0.2601
     35  O         36.3160    5.6460   35.7170 O.2   168  CYS168     -0.2717
     36  CB        36.3040    5.6300   32.3190 C.3   168  CYS168      0.0970
     37  SG        35.9290    7.3590   32.6390 S.3   168  CYS168     -0.0800
     38  N         34.7650    4.3840   34.6710 N.am  169  TRP169     -0.1976
     39  CA        33.8400    4.4540   35.7990 C.3   169  TRP169      0.1640
     40  C         34.4550    3.8600   37.0590 C.2   169  TRP169      0.2290
     41  O         34.2690    4.3910   38.1610 O.2   169  TRP169     -0.2864
     42  CB        32.5360    3.7410   35.4530 C.3   169  TRP169      0.0576
     43  CG        31.6750    4.5140   34.5160 C.ar  169  TRP169      0.0006
     44  CD1       31.6620    4.4320   33.1530 C.ar  169  TRP169      0.0946
     45  CD2       30.6850    5.4860   34.8680 C.ar  169  TRP169      0.0152
     46  NE1       30.7280    5.2950   32.6350 N.ar  169  TRP169     -0.2442
     47  CE2       30.1140    5.9550   33.6670 C.ar  169  TRP169      0.0810
     48  CE3       30.2250    6.0070   36.0820 C.ar  169  TRP169      0.0012
     49  CZ2       29.1120    6.9200   33.6450 C.ar  169  TRP169      0.0191
     50  CZ3       29.2300    6.9650   36.0570 C.ar  169  TRP169      0.0001
     51  CH2       28.6830    7.4110   34.8470 C.ar  169  TRP169      0.0015
     52  N         36.7010    6.3670   38.5290 N.3   172  MET172     -0.1245
     53  CA        35.9020    7.3550   39.2490 C.3   172  MET172      0.1570
     54  C         35.4770    6.8280   40.6120 C.2   172  MET172      0.2261
     55  O         35.4570    7.5760   41.5980 O.2   172  MET172     -0.2867
     56  CB        34.6810    7.7590   38.4220 C.3   172  MET172      0.0387
     57  CG        34.9850    8.7990   37.3550 C.3   172  MET172      0.0595
     58  SD        33.5100    9.4440   36.5470 S.3   172  MET172     -0.1393
     59  CE        33.0120    8.0180   35.5850 C.3   172  MET172      0.0692
     60  N         33.7480   12.2920   41.0110 N.3   184  ILE184     -0.1231
     61  CA        32.7080   12.2140   39.9960 C.3   184  ILE184      0.1692
     62  C         32.1610   13.5860   39.6200 C.2   184  ILE184      0.2591
     63  O         31.6470   13.7410   38.5010 O.2   184  ILE184     -0.2718
     64  CB        31.5610   11.2750   40.4300 C.3   184  ILE184      0.0266
     65  CG1       30.7050   10.8820   39.2180 C.3   184  ILE184      0.0019
     66  CG2       30.7160   11.9150   41.5180 C.3   184  ILE184      0.0020
     67  CD1       29.6520    9.8360   39.5070 C.3   184  ILE184      0.0001
     68  N         32.2920   14.5920   40.4870 N.am  185  ALA185     -0.1980
     69  CA        31.7560   15.9110   40.1660 C.3   185  ALA185      0.1597
     70  C         32.6090   16.6050   39.1130 C.2   185  ALA185      0.2287
     71  O         32.0850   17.1430   38.1300 O.2   185  ALA185     -0.2864
     72  CB        31.6580   16.7610   41.4310 C.3   185  ALA185      0.0319
     73  N         34.8070   15.2320   36.8170 N.3   187  PRO187     -0.2102
     74  CA        34.6370   14.6490   35.4730 C.3   187  PRO187      0.1504
     75  C         33.3350   15.0610   34.8120 C.2   187  PRO187      0.2576
     76  O         33.3550   15.6140   33.7030 O.2   187  PRO187     -0.2718
     77  CB        34.7020   13.1390   35.7410 C.3   187  PRO187      0.0282
     78  CG        35.5230   13.0200   36.9580 C.3   187  PRO187      0.0208
     79  CD        35.1360   14.1930   37.8090 C.3   187  PRO187      0.0893
     80  N         32.2010   14.8290   35.4810 N.am  188  GLY188     -0.1957
     81  CA        30.9170   15.2120   34.9120 C.3   188  GLY188      0.1869
     82  C         30.8840   16.6600   34.4720 C.2   188  GLY188      0.2309
     83  O         30.4480   16.9760   33.3620 O.2   188  GLY188     -0.2863
     84  N         33.5750   18.5470   33.6570 N.3   190  VAL190     -0.1231
     85  CA        34.3990   18.5330   32.4500 C.3   190  VAL190      0.1692
     86  C         33.6590   17.8700   31.2990 C.2   190  VAL190      0.2592
     87  O         33.8340   18.2460   30.1320 O.2   190  VAL190     -0.2718
     88  CB        35.7470   17.8380   32.7370 C.3   190  VAL190      0.0266
     89  CG1       36.5680   17.7160   31.4650 C.3   190  VAL190      0.0020
     90  CG2       36.5180   18.6070   33.7950 C.3   190  VAL190      0.0020
     91  N         32.7980   16.8990   31.6010 N.am  191  LEU191     -0.1966
     92  CA        32.0150   16.2720   30.5470 C.3   191  LEU191      0.1728
     93  C         31.0080   17.2550   29.9630 C.2   191  LEU191      0.2616
     94  O         31.0190   17.5240   28.7550 O.2   191  LEU191     -0.2715
     95  CB        31.3170   15.0220   31.0820 C.3   191  LEU191      0.0311
     96  CG        30.5250   14.2110   30.0550 C.3   191  LEU191      0.0022
     97  CD1       31.3480   13.9860   28.7960 C.3   191  LEU191      0.0001
     98  CD2       30.0970   12.8850   30.6590 C.3   191  LEU191      0.0001
     99  N         30.1460   17.8310   30.8110 N.am  192  VAL192     -0.1977
    100  CA        29.0550   18.6490   30.2810 C.3   192  VAL192      0.1596
    101  C         29.6130   19.8590   29.5460 C.2   192  VAL192      0.2287
    102  O         29.1860   20.1720   28.4270 O.2   192  VAL192     -0.2864
    103  CB        28.0620   19.0490   31.3930 C.3   192  VAL192      0.0276
    104  CG1       27.3130   17.8260   31.9010 C.3   192  VAL192      0.0022
    105  CG2       28.7530   19.7560   32.5440 C.3   192  VAL192      0.0022
    106  N         27.1700   10.8490   25.1150 N.3   204  TRP204     -0.1241
    107  CA        26.5730   10.2500   26.3030 C.3   204  TRP204      0.1605
    108  C         26.1220    8.8150   26.0620 C.2   204  TRP204      0.2264
    109  O         25.8670    8.0900   27.0300 O.2   204  TRP204     -0.2867
    110  CB        25.4030   11.1060   26.7910 C.3   204  TRP204      0.0550
    111  CG        25.8350   12.4640   27.2650 C.ar  204  TRP204      0.0003
    112  CD1       26.0360   13.5760   26.4960 C.ar  204  TRP204      0.0946
    113  CD2       26.1300   12.8520   28.6140 C.ar  204  TRP204      0.0152
    114  NE1       26.4320   14.6300   27.2820 N.ar  204  TRP204     -0.2442
    115  CE2       26.4980   14.2120   28.5860 C.ar  204  TRP204      0.0810
    116  CE3       26.1150   12.1830   29.8410 C.ar  204  TRP204      0.0012
    117  CZ2       26.8480   14.9150   29.7380 C.ar  204  TRP204      0.0191
    118  CZ3       26.4630   12.8820   30.9830 C.ar  204  TRP204      0.0001
    119  CH2       26.8240   14.2330   30.9240 C.ar  204  TRP204      0.0015
    120  N         29.2840    6.3240   26.7440 N.3   207  LEU207     -0.1245
    121  CA        29.8130    6.2560   28.1000 C.3   207  LEU207      0.1561
    122  C         29.5470    4.9260   28.7910 C.2   207  LEU207      0.2260
    123  O         30.1510    4.6690   29.8370 O.2   207  LEU207     -0.2867
    124  CB        29.2260    7.3840   28.9470 C.3   207  LEU207      0.0270
    125  CG        29.3370    8.7970   28.3780 C.3   207  LEU207      0.0019
    126  CD1       28.7220    9.8000   29.3370 C.3   207  LEU207      0.0001
    127  CD2       30.7860    9.1450   28.0820 C.3   207  LEU207      0.0001
    128  N         26.6010    4.1540   30.2630 N.3   209  LEU209     -0.1245
    129  CA        26.0990    4.8240   31.4600 C.3   209  LEU209      0.1561
    130  C         25.6230    3.8230   32.5080 C.2   209  LEU209      0.2260
    131  O         26.0420    3.8790   33.6690 O.2   209  LEU209     -0.2867
    132  CB        24.9730    5.7850   31.0680 C.3   209  LEU209      0.0270
    133  CG        24.6120    6.9480   31.9960 C.3   209  LEU209      0.0019
    134  CD1       23.6960    6.5120   33.1340 C.3   209  LEU209      0.0001
    135  CD2       25.8670    7.6160   32.5280 C.3   209  LEU209      0.0001
    136  N         27.7110    3.0660   35.8810 N.3   213  VAL213     -0.1245
    137  CA        27.1280    3.4630   37.1590 C.3   213  VAL213      0.1561
    138  C         27.0400    2.2660   38.0950 C.2   213  VAL213      0.2260
    139  O         27.3260    2.3770   39.2920 O.2   213  VAL213     -0.2867
    140  CB        25.7520    4.1200   36.9440 C.3   213  VAL213      0.0252
    141  CG1       24.9920    4.2020   38.2570 C.3   213  VAL213      0.0019
    142  CG2       25.9210    5.5060   36.3550 C.3   213  VAL213      0.0019
    143  N         39.4860   17.7730   24.9830 N.3   285  MET285     -0.1245
    144  CA        39.0220   17.1810   26.2330 C.3   285  MET285      0.1570
    145  C         40.0190   17.4200   27.3610 C.2   285  MET285      0.2261
    146  O         39.6240   17.7180   28.4950 O.2   285  MET285     -0.2867
    147  CB        38.7720   15.6850   26.0500 C.3   285  MET285      0.0387
    148  CG        38.3250   14.9760   27.3180 C.3   285  MET285      0.0595
    149  SD        36.6600   15.4510   27.8220 S.3   285  MET285     -0.1393
    150  CE        35.6800   14.6960   26.5260 C.3   285  MET285      0.0692
    151  N         39.4210   19.7270   30.5940 N.3   289  TRP289     -0.1241
    152  CA        39.7640   19.1570   31.8920 C.3   289  TRP289      0.1605
    153  C         40.5350   20.1650   32.7380 C.2   289  TRP289      0.2264
    154  O         40.0770   20.5850   33.8100 O.2   289  TRP289     -0.2867
    155  CB        40.5730   17.8750   31.6760 C.3   289  TRP289      0.0550
    156  CG        40.9500   17.1250   32.9120 C.ar  289  TRP289      0.0003
    157  CD1       42.0260   17.3570   33.7180 C.ar  289  TRP289      0.0946
    158  CD2       40.2700   15.9940   33.4650 C.ar  289  TRP289      0.0152
    159  NE1       42.0500   16.4470   34.7480 N.ar  289  TRP289     -0.2442
    160  CE2       40.9810   15.6000   34.6140 C.ar  289  TRP289      0.0810
    161  CE3       39.1220   15.2820   33.1070 C.ar  289  TRP289      0.0012
    162  CZ2       40.5820   14.5280   35.4050 C.ar  289  TRP289      0.0191
    163  CZ3       38.7310   14.2190   33.8940 C.ar  289  TRP289      0.0001
    164  CH2       39.4570   13.8520   35.0280 C.ar  289  TRP289      0.0015
@<TRIPOS>BOND
     1   143   144    1
     2   106   107    1
     3   147   144    1
     4   147   148    1
     5   108   107    1
     6   108   109    2
     7   144   145    1
     8   107   110    1
     9    19    18    2
    10   112   111   ar
    11   112   114   ar
    12   150   149    1
    13   120   121    1
    14   110   111    1
    15   111   113   ar
    16    23    22    1
    17   114   115   ar
    18   148   149    1
    19    18    17    1
    20   145   146    2
    21    31    30    1
    22    29    30    1
    23    29    28    1
    24    22    21    1
    25   127   125    1
    26   121   122    1
    27   121   124    1
    28   125   124    1
    29   125   126    1
    30   102   101    2
    31    21    20    1
    32   115   113   ar
    33   115   117   ar
    34   113   116   ar
    35    94    93    2
    36    17    20    1
    37    17    16    1
    38   122   123    2
    39    97    96    1
    40    28    25    1
    41    24    25    1
    42   101   100    1
    43    11    10    2
    44   117   119   ar
    45    25    26    1
    46   116   118   ar
    47    93    92    1
    48    93    99   am
    49    96    98    1
    50    96    95    1
    51    14    13    1
    52    87    86    2
    53   128   129    1
    54   100    99    1
    55   100   103    1
    56    92    95    1
    57    92    91    1
    58   151   152    1
    59    13    15    1
    60    13    12    1
    61    10     9    1
    62   119   118   ar
    63   132   129    1
    64   132   133    1
    65    26    27    2
    66    86    91   am
    67    86    85    1
    68   103   104    1
    69   103   105    1
    70   129   130    1
    71    89    88    1
    72   155   152    1
    73   155   156    1
    74     9    12    1
    75     9     8    1
    76   152   153    1
    77   133   135    1
    78   133   134    1
    79     4     3    2
    80    36    37    1
    81    36    33    1
    82    85    88    1
    83    85    84    1
    84   130   131    2
    85    46    44   ar
    86    46    47   ar
    87    88    90    1
    88   153   154    2
    89   156   158   ar
    90   156   157   ar
    91     8     3   am
    92   161   158   ar
    93   161   163   ar
    94    32    33    1
    95    44    43   ar
    96     3     2    1
    97    83    82    2
    98   158   160   ar
    99    33    34    1
   100    49    47   ar
   101    49    51   ar
   102    47    45   ar
   103    76    75    2
   104   157   159   ar
   105   163   164   ar
   106    82    81    1
   107    43    45   ar
   108    43    42    1
   109     2     1    1
   110     2     5    1
   111   160   159   ar
   112   160   162   ar
   113    38    34   am
   114    38    39    1
   115    34    35    2
   116    75    74    1
   117    75    80   am
   118    51    50   ar
   119    45    48   ar
   120    81    80    1
   121     6     5    1
   122   164   162   ar
   123    42    39    1
   124    74    77    1
   125    74    73    1
   126     5     7    1
   127    59    58    1
   128    77    78    1
   129    39    40    1
   130   136   137    1
   131    50    48   ar
   132   142   140    1
   133    58    57    1
   134    73    79    1
   135   140   137    1
   136   140   141    1
   137    78    79    1
   138    40    41    2
   139   137   138    1
   140    57    56    1
   141   138   139    2
   142    71    70    2
   143    56    53    1
   144    63    62    2
   145    52    53    1
   146    70    69    1
   147    65    67    1
   148    65    64    1
   149    53    54    1
   150    62    61    1
   151    62    68   am
   152    61    64    1
   153    61    60    1
   154    69    68    1
   155    69    72    1
   156    64    66    1
   157    54    55    2
