@<TRIPOS>MOLECULE
tmp/5ezmA11.pdb
 140 133 0 0 0
SMALL
GASTEIGER

@<TRIPOS>ATOM
      1  N         68.8710    3.1460   19.6260 N.3     3  ALA3       -0.1245
      2  CA        69.2640    3.8450   20.8400 C.3     3  ALA3        0.1562
      3  C         68.3880    3.4930   22.0370 C.2     3  ALA3        0.2260
      4  O         68.2810    4.2990   22.9690 O.2     3  ALA3       -0.2867
      5  CB        69.2470    5.3560   20.6040 C.3     3  ALA3        0.0290
      6  N         69.6520    3.9870   25.5120 N.3     6  TRP6       -0.1227
      7  CA        69.4920    5.2640   26.1970 C.3     6  TRP6        0.1737
      8  C         68.1900    5.2990   26.9870 C.2     6  TRP6        0.2595
      9  O         68.1880    5.6310   28.1790 O.2     6  TRP6       -0.2718
     10  CB        69.5410    6.4190   25.1940 C.3     6  TRP6        0.0564
     11  CG        70.8890    6.6200   24.5750 C.ar    6  TRP6        0.0003
     12  CD1       71.2290    6.4260   23.2670 C.ar    6  TRP6        0.0946
     13  CD2       72.0840    7.0440   25.2420 C.ar    6  TRP6        0.0152
     14  NE1       72.5600    6.7080   23.0780 N.ar    6  TRP6       -0.2442
     15  CE2       73.1080    7.0880   24.2750 C.ar    6  TRP6        0.0810
     16  CE3       72.3870    7.3930   26.5620 C.ar    6  TRP6        0.0012
     17  CZ2       74.4130    7.4670   24.5860 C.ar    6  TRP6        0.0191
     18  CZ3       73.6830    7.7680   26.8700 C.ar    6  TRP6        0.0001
     19  CH2       74.6790    7.8020   25.8860 C.ar    6  TRP6        0.0015
     20  N         67.0760    4.9440   26.3380 N.am    7  VAL7       -0.1980
     21  CA        65.7730    4.9450   27.0040 C.3     7  VAL7        0.1595
     22  C         65.8290    4.0970   28.2680 C.2     7  VAL7        0.2287
     23  O         65.5540    4.5770   29.3760 O.2     7  VAL7       -0.2864
     24  CB        64.6770    4.4480   26.0460 C.3     7  VAL7        0.0276
     25  CG1       63.3300    4.4110   26.7520 C.3     7  VAL7        0.0022
     26  CG2       64.6150    5.3310   24.8110 C.3     7  VAL7        0.0022
     27  N         67.7810    6.0120   30.6890 N.3    10  PHE10      -0.1227
     28  CA        67.0200    7.1580   31.1760 C.3    10  PHE10       0.1736
     29  C         66.0020    6.7330   32.2260 C.2    10  PHE10       0.2595
     30  O         66.0990    7.1160   33.4000 O.2    10  PHE10      -0.2718
     31  CB        66.3310    7.8440   29.9910 C.3    10  PHE10       0.0547
     32  CG        65.6040    9.1110   30.3490 C.ar   10  PHE10      -0.0202
     33  CD1       66.2320   10.3400   30.2290 C.ar   10  PHE10      -0.0042
     34  CD2       64.2870    9.0770   30.7850 C.ar   10  PHE10      -0.0042
     35  CE1       65.5660   11.5060   30.5480 C.ar   10  PHE10      -0.0003
     36  CE2       63.6180   10.2380   31.1080 C.ar   10  PHE10      -0.0003
     37  CZ        64.2580   11.4550   30.9910 C.ar   10  PHE10      -0.0000
     38  N         65.0430    5.8960   31.8180 N.am   11  VAL11      -0.1980
     39  CA        63.9960    5.4370   32.7270 C.3    11  VAL11       0.1595
     40  C         64.6080    4.8410   33.9870 C.2    11  VAL11       0.2287
     41  O         64.1790    5.1430   35.1090 O.2    11  VAL11      -0.2864
     42  CB        63.0740    4.4310   32.0180 C.3    11  VAL11       0.0276
     43  CG1       61.9670    3.9850   32.9550 C.3    11  VAL11       0.0022
     44  CG2       62.4940    5.0520   30.7610 C.3    11  VAL11       0.0022
     45  N         65.7520    7.4300   36.1610 N.3    14  ALA14      -0.1231
     46  CA        64.5840    8.0750   36.7420 C.3    14  ALA14       0.1694
     47  C         64.0560    7.2690   37.9230 C.2    14  ALA14       0.2591
     48  O         63.9210    7.7950   39.0380 O.2    14  ALA14      -0.2718
     49  CB        63.5040    8.2600   35.6750 C.3    14  ALA14       0.0304
     50  N         63.8150    5.9700   37.7080 N.am   15  LEU15      -0.1980
     51  CA        63.1020    5.1750   38.7030 C.3    15  LEU15       0.1596
     52  C         63.8800    5.0950   40.0060 C.2    15  LEU15       0.2287
     53  O         63.3060    5.2520   41.0900 O.2    15  LEU15      -0.2864
     54  CB        62.8180    3.7760   38.1560 C.3    15  LEU15       0.0297
     55  CG        61.6010    3.6480   37.2360 C.3    15  LEU15       0.0022
     56  CD1       61.4800    2.2350   36.6790 C.3    15  LEU15       0.0001
     57  CD2       60.3320    4.0430   37.9810 C.3    15  LEU15       0.0001
     58  N         63.4380    8.0960   41.6650 N.3    18  TRP18      -0.1241
     59  CA        62.0420    8.2290   42.0640 C.3    18  TRP18       0.1605
     60  C         61.7930    7.6200   43.4370 C.2    18  TRP18       0.2264
     61  O         61.0830    8.2060   44.2640 O.2    18  TRP18      -0.2867
     62  CB        61.1500    7.5750   41.0110 C.3    18  TRP18       0.0550
     63  CG        59.6870    7.8140   41.1960 C.ar   18  TRP18       0.0003
     64  CD1       58.8100    7.0360   41.8940 C.ar   18  TRP18       0.0946
     65  CD2       58.9220    8.8970   40.6550 C.ar   18  TRP18       0.0152
     66  NE1       57.5480    7.5730   41.8270 N.ar   18  TRP18      -0.2442
     67  CE2       57.5910    8.7160   41.0730 C.ar   18  TRP18       0.0810
     68  CE3       59.2350   10.0040   39.8610 C.ar   18  TRP18       0.0012
     69  CZ2       56.5740    9.6010   40.7230 C.ar   18  TRP18       0.0191
     70  CZ3       58.2250   10.8810   39.5160 C.ar   18  TRP18       0.0001
     71  CH2       56.9110   10.6740   39.9450 C.ar   18  TRP18       0.0015
     72  N         53.7050    7.6740   39.1960 N.3    92  LEU92      -0.1245
     73  CA        54.0570    6.7840   38.0940 C.3    92  LEU92       0.1561
     74  C         52.8270    6.4020   37.2820 C.2    92  LEU92       0.2260
     75  O         52.8820    6.3360   36.0490 O.2    92  LEU92      -0.2867
     76  CB        54.7510    5.5320   38.6250 C.3    92  LEU92       0.0270
     77  CG        56.1060    5.7380   39.2960 C.3    92  LEU92       0.0019
     78  CD1       56.6720    4.4040   39.7640 C.3    92  LEU92       0.0001
     79  CD2       57.0630    6.4340   38.3420 C.3    92  LEU92       0.0001
     80  N         51.8200    9.2840   34.9820 N.3    95  ILE95      -0.1245
     81  CA        52.7370    9.3090   33.8430 C.3    95  ILE95       0.1561
     82  C         52.3580    8.2280   32.8390 C.2    95  ILE95       0.2260
     83  O         52.1330    8.5030   31.6540 O.2    95  ILE95      -0.2867
     84  CB        54.1930    9.1440   34.3120 C.3    95  ILE95       0.0252
     85  CG1       54.6220   10.3320   35.1710 C.3    95  ILE95       0.0019
     86  CG2       55.1130    8.9830   33.1100 C.3    95  ILE95       0.0019
     87  CD1       56.0440   10.2220   35.6930 C.3    95  ILE95       0.0001
     88  N         50.7710    8.9550   29.0820 N.3    99  MET99      -0.1245
     89  CA        51.4310    8.7090   27.8100 C.3    99  MET99       0.1570
     90  C         50.8600    7.4990   27.0790 C.2    99  MET99       0.2261
     91  O         51.1640    7.3090   25.8950 O.2    99  MET99      -0.2867
     92  CB        52.9450    8.5710   28.0010 C.3    99  MET99       0.0387
     93  CG        53.4000    7.5620   29.0250 C.3    99  MET99       0.0595
     94  SD        55.1510    7.8170   29.4090 S.3    99  MET99      -0.1393
     95  CE        55.9060    7.5160   27.8130 C.3    99  MET99       0.0692
     96  N         56.1650   10.1580   24.3180 N.3   112  ALA112     -0.1245
     97  CA        57.4400   10.3940   24.9860 C.3   112  ALA112      0.1562
     98  C         57.5030   11.8130   25.5350 C.2   112  ALA112      0.2260
     99  O         57.8900   12.0300   26.6910 O.2   112  ALA112     -0.2867
    100  CB        58.5990   10.1320   24.0260 C.3   112  ALA112      0.0290
    101  N         55.4730   11.9000   28.7520 N.3   115  GLY115     -0.1210
    102  CA        56.1910   11.3590   29.8960 C.3   115  GLY115      0.1956
    103  C         57.2570   12.3090   30.4090 C.2   115  GLY115      0.2611
    104  O         57.3610   12.5560   31.6140 O.2   115  GLY115     -0.2717
    105  N         58.0590   12.8630   29.4960 N.am  116  LEU116     -0.1979
    106  CA        59.0640   13.8470   29.8920 C.3   116  LEU116      0.1596
    107  C         58.4160   15.0640   30.5400 C.2   116  LEU116      0.2287
    108  O         58.9110   15.5790   31.5510 O.2   116  LEU116     -0.2864
    109  CB        59.8870   14.2650   28.6760 C.3   116  LEU116      0.0297
    110  CG        60.5800   13.1100   27.9570 C.3   116  LEU116      0.0022
    111  CD1       61.1450   13.5650   26.6270 C.3   116  LEU116      0.0001
    112  CD2       61.6690   12.5370   28.8380 C.3   116  LEU116      0.0001
    113  N         57.3100   14.2350   34.0000 N.3   119  LEU119     -0.1245
    114  CA        58.4800   14.0100   34.8410 C.3   119  LEU119      0.1561
    115  C         59.0880   15.3310   35.2960 C.2   119  LEU119      0.2260
    116  O         59.3940   15.5100   36.4810 O.2   119  LEU119     -0.2867
    117  CB        59.5130   13.1690   34.0910 C.3   119  LEU119      0.0270
    118  CG        60.7910   12.8320   34.8650 C.3   119  LEU119      0.0019
    119  CD1       60.4890   11.9260   36.0510 C.3   119  LEU119      0.0001
    120  CD2       61.8290   12.1960   33.9540 C.3   119  LEU119      0.0001
    121  N         63.7770   15.6880   20.3880 N.3   395  LEU395     -0.1231
    122  CA        63.4230   14.7370   21.4410 C.3   395  LEU395      0.1678
    123  C         64.5660   14.4490   22.4080 C.2   395  LEU395      0.2434
    124  O         64.3270   14.4750   23.6280 O.2   395  LEU395     -0.2733
    125  CB        62.8850   13.4470   20.8120 C.3   395  LEU395      0.0284
    126  CG        62.5610   12.3080   21.7810 C.3   395  LEU395      0.0019
    127  CD1       61.6340   12.7760   22.8920 C.3   395  LEU395      0.0001
    128  CD2       61.9470   11.1400   21.0300 C.3   395  LEU395      0.0001
    129  N         65.8010   14.1610   21.9690 N.am  396  PRO396     -0.2729
    130  CA        66.8720   13.9580   22.9620 C.3   396  PRO396      0.1401
    131  C         67.1470   15.1940   23.8030 C.2   396  PRO396      0.2269
    132  O         67.3570   15.0800   25.0180 O.2   396  PRO396     -0.2865
    133  CB        68.0810   13.5680   22.0990 C.3   396  PRO396      0.0296
    134  CG        67.7840   14.1310   20.7540 C.3   396  PRO396      0.0237
    135  CD        66.3020   13.9770   20.5950 C.3   396  PRO396      0.0939
    136  N         64.5120   15.4400   26.3570 N.3   399  ALA399     -0.1245
    137  CA        64.6690   14.3850   27.3560 C.3   399  ALA399      0.1562
    138  C         65.7320   14.7520   28.3860 C.2   399  ALA399      0.2260
    139  O         65.5050   14.6400   29.5980 O.2   399  ALA399     -0.2867
    140  CB        65.0190   13.0630   26.6720 C.3   399  ALA399      0.0290
@<TRIPOS>BOND
     1     1     2    1
     2   121   122    1
     3   135   134    1
     4   135   129    1
     5     5     2    1
     6   134   133    1
     7   125   122    1
     8   125   126    1
     9     2     3    1
    10   128   126    1
    11   122   123    1
    12   126   127    1
    13   129   123   am
    14   129   130    1
    15     3     4    2
    16   133   130    1
    17   123   124    2
    18   130   131    1
    19    14    12   ar
    20    14    15   ar
    21    12    11   ar
    22   131   132    2
    23   100    97    1
    24    15    17   ar
    25    15    13   ar
    26    96    97    1
    27    11    10    1
    28    11    13   ar
    29    17    19   ar
    30    26    24    1
    31    97    98    1
    32    10     7    1
    33    13    16   ar
    34     6     7    1
    35    98    99    2
    36    19    18   ar
    37    91    90    2
    38    24    25    1
    39    24    21    1
    40     7     8    1
    41    20     8   am
    42    20    21    1
    43   136   137    1
    44    16    18   ar
    45   111   110    1
    46   140   137    1
    47     8     9    2
    48    21    22    1
    49    90    89    1
    50   137   138    1
    51    89    92    1
    52    89    88    1
    53    95    94    1
    54   110   109    1
    55   110   112    1
    56    92    93    1
    57    22    23    2
    58   138   139    2
    59   109   106    1
    60   101   102    1
    61    93    94    1
    62   105   106    1
    63   105   103   am
    64   106   107    1
    65   102   103    1
    66    31    32    1
    67    31    28    1
    68    33    32   ar
    69    33    35   ar
    70    32    34   ar
    71   103   104    2
    72   107   108    2
    73    35    37   ar
    74    27    28    1
    75    44    42    1
    76    34    36   ar
    77    37    36   ar
    78    28    29    1
    79    83    82    2
    80    38    29   am
    81    38    39    1
    82    42    39    1
    83    42    43    1
    84    29    30    2
    85    39    40    1
    86    82    81    1
    87    86    84    1
    88    81    84    1
    89    81    80    1
    90   120   118    1
    91    40    41    2
    92   113   114    1
    93   117   114    1
    94   117   118    1
    95    84    85    1
    96   114   115    1
    97   118   119    1
    98    85    87    1
    99   115   116    2
   100    49    46    1
   101    75    74    2
   102    45    46    1
   103    56    55    1
   104    46    47    1
   105    55    57    1
   106    55    54    1
   107    74    73    1
   108    50    47   am
   109    50    51    1
   110    47    48    2
   111    73    76    1
   112    73    72    1
   113    54    51    1
   114    79    77    1
   115    76    77    1
   116    51    52    1
   117    77    78    1
   118    70    68   ar
   119    70    71   ar
   120    68    65   ar
   121    71    69   ar
   122    52    53    2
   123    65    67   ar
   124    65    63   ar
   125    69    67   ar
   126    62    63    1
   127    62    59    1
   128    67    66   ar
   129    63    64   ar
   130    58    59    1
   131    66    64   ar
   132    59    60    1
   133    60    61    2
