@<TRIPOS>MOLECULE
tmp/5ezmA28.pdb
 93 89 0 0 0
SMALL
GASTEIGER

@<TRIPOS>ATOM
      1  N         36.3210    8.4720   44.2450 N.3   176  ILE176     -0.1245
      2  CA        35.3500    8.7800   45.2910 C.3   176  ILE176      0.1561
      3  C         35.7950    8.1750   46.6140 C.2   176  ILE176      0.2260
      4  O         35.7020    8.8140   47.6700 O.2   176  ILE176     -0.2867
      5  CB        33.9450    8.2950   44.8840 C.3   176  ILE176      0.0252
      6  CG1       33.4660    9.0400   43.6340 C.3   176  ILE176      0.0019
      7  CG2       32.9660    8.4780   46.0340 C.3   176  ILE176      0.0019
      8  CD1       32.0840    8.6280   43.1590 C.3   176  ILE176      0.0001
      9  N         33.0840   13.0440   46.6570 N.3   181  LEU181     -0.1245
     10  CA        32.3050   13.2440   45.4350 C.3   181  LEU181      0.1561
     11  C         33.0790   13.9670   44.3420 C.2   181  LEU181      0.2260
     12  O         32.6570   13.9330   43.1810 O.2   181  LEU181     -0.2867
     13  CB        31.0270   14.0210   45.7470 C.3   181  LEU181      0.0270
     14  CG        30.0190   13.3480   46.6790 C.3   181  LEU181      0.0019
     15  CD1       28.8200   14.2560   46.9130 C.3   181  LEU181      0.0001
     16  CD2       29.5800   12.0040   46.1170 C.3   181  LEU181      0.0001
     17  N         30.5570    1.3450   39.3270 N.3   216  MET216     -0.1230
     18  CA        31.0320    2.3770   40.2450 C.3   216  MET216      0.1702
     19  C         30.3510    2.2600   41.6040 C.2   216  MET216      0.2592
     20  O         31.0090    2.3630   42.6470 O.2   216  MET216     -0.2718
     21  CB        30.7970    3.7620   39.6450 C.3   216  MET216      0.0401
     22  CG        31.3880    4.8890   40.4680 C.3   216  MET216      0.0596
     23  SD        30.3510    6.3590   40.4510 S.3   216  MET216     -0.1393
     24  CE        28.9200    5.7700   41.3520 C.3   216  MET216      0.0692
     25  N         29.0330    2.0450   41.6120 N.am  217  LEU217     -0.1980
     26  CA        28.3250    1.8330   42.8700 C.3   217  LEU217      0.1596
     27  C         28.8500    0.6030   43.5970 C.2   217  LEU217      0.2287
     28  O         29.0020    0.6160   44.8230 O.2   217  LEU217     -0.2864
     29  CB        26.8210    1.7040   42.6190 C.3   217  LEU217      0.0297
     30  CG        26.0930    2.9710   42.1700 C.3   217  LEU217      0.0022
     31  CD1       24.6320    2.6720   41.8960 C.3   217  LEU217      0.0001
     32  CD2       26.2270    4.0730   43.2060 C.3   217  LEU217      0.0001
     33  N         32.1820    1.8060   45.2600 N.3   220  THR220     -0.1203
     34  CA        32.1630    2.7970   46.3330 C.3   220  THR220      0.1994
     35  C         31.2370    2.4310   47.4880 C.2   220  THR220      0.2617
     36  O         31.6000    2.6290   48.6530 O.2   220  THR220     -0.2717
     37  CB        31.7450    4.1650   45.7890 C.3   220  THR220      0.1784
     38  OG1       30.4050    4.0900   45.2860 O.3   220  THR220     -0.2211
     39  CG2       32.6770    4.6020   44.6830 C.3   220  THR220      0.0376
     40  N         30.0470    1.9060   47.1850 N.am  221  VAL221     -0.1979
     41  CA        29.0020    1.7850   48.2070 C.3   221  VAL221      0.1595
     42  C         29.4240    0.9530   49.4150 C.2   221  VAL221      0.2287
     43  O         29.1630    1.3860   50.5490 O.2   221  VAL221     -0.2864
     44  CB        27.6990    1.2690   47.5680 C.3   221  VAL221      0.0276
     45  CG1       26.7220    0.8340   48.6450 C.3   221  VAL221      0.0022
     46  CG2       27.0800    2.3510   46.7030 C.3   221  VAL221      0.0022
     47  N         30.9860    2.8460   52.3380 N.3   224  PHE224     -0.1227
     48  CA        30.1030    3.8790   52.8670 C.3   224  PHE224      0.1736
     49  C         28.9730    3.2680   53.6840 C.2   224  PHE224      0.2595
     50  O         28.6220    3.7780   54.7560 O.2   224  PHE224     -0.2718
     51  CB        29.5630    4.7400   51.7250 C.3   224  PHE224      0.0547
     52  CG        30.5560    5.7460   51.2120 C.ar  224  PHE224     -0.0202
     53  CD1       30.5640    7.0430   51.6990 C.ar  224  PHE224     -0.0042
     54  CD2       31.4980    5.3890   50.2610 C.ar  224  PHE224     -0.0042
     55  CE1       31.4860    7.9680   51.2370 C.ar  224  PHE224     -0.0003
     56  CE2       32.4220    6.3120   49.7950 C.ar  224  PHE224     -0.0003
     57  CZ        32.4150    7.6010   50.2840 C.ar  224  PHE224     -0.0000
     58  N         28.4090    2.1580   53.2070 N.am  225  TYR225     -0.1976
     59  CA        27.3910    1.4610   53.9820 C.3   225  TYR225      0.1639
     60  C         27.9650    0.9350   55.2890 C.2   225  TYR225      0.2290
     61  O         27.3420    1.0720   56.3460 O.2   225  TYR225     -0.2864
     62  CB        26.7880    0.3190   53.1650 C.3   225  TYR225      0.0560
     63  CG        25.7810   -0.5040   53.9370 C.ar  225  TYR225     -0.0198
     64  CD1       24.4630   -0.0870   54.0550 C.ar  225  TYR225     -0.0009
     65  CD2       26.1490   -1.6950   54.5510 C.ar  225  TYR225     -0.0009
     66  CE1       23.5380   -0.8320   54.7600 C.ar  225  TYR225      0.0417
     67  CE2       25.2310   -2.4470   55.2610 C.ar  225  TYR225      0.0417
     68  CZ        23.9260   -2.0110   55.3610 C.ar  225  TYR225      0.1957
     69  OH        23.0020   -2.7540   56.0640 O.3   225  TYR225     -0.2866
     70  N         28.7380    3.7890   57.6700 N.3   228  SER228     -0.1217
     71  CA        27.5080    4.4660   58.0730 C.3   228  SER228      0.1889
     72  C         26.7070    3.6190   59.0520 C.2   228  SER228      0.2288
     73  O         26.0800    4.1520   59.9740 O.2   228  SER228     -0.2866
     74  CB        26.6620    4.8020   56.8460 C.3   228  SER228      0.2089
     75  OG        27.3170    5.7300   56.0020 O.3   228  SER228     -0.2183
     76  N         27.4840    9.7230   57.8790 N.3   235  PRO235     -0.2116
     77  CA        27.0530   10.3910   56.6350 C.3   235  PRO235      0.1372
     78  C         26.7510   11.8700   56.8080 C.2   235  PRO235      0.2244
     79  O         27.1540   12.6790   55.9600 O.2   235  PRO235     -0.2868
     80  CB        25.8070    9.5940   56.2170 C.3   235  PRO235      0.0268
     81  CG        25.3350    8.9290   57.4530 C.3   235  PRO235      0.0207
     82  CD        26.5640    8.6330   58.2550 C.3   235  PRO235      0.0892
     83  N         29.1890   14.3060   54.6410 N.3   239  PHE239     -0.1241
     84  CA        28.5050   15.0060   53.5630 C.3   239  PHE239      0.1605
     85  C         28.0370   16.4030   53.9450 C.2   239  PHE239      0.2264
     86  O         27.6130   17.1530   53.0600 O.2   239  PHE239     -0.2867
     87  CB        27.3050   14.1860   53.0680 C.3   239  PHE239      0.0534
     88  CG        27.6880   12.9090   52.3750 C.ar  239  PHE239     -0.0203
     89  CD1       28.3580   12.9380   51.1630 C.ar  239  PHE239     -0.0042
     90  CD2       27.3770   11.6810   52.9330 C.ar  239  PHE239     -0.0042
     91  CE1       28.7160   11.7640   50.5230 C.ar  239  PHE239     -0.0003
     92  CE2       27.7310   10.5040   52.2970 C.ar  239  PHE239     -0.0003
     93  CZ        28.4010   10.5450   51.0910 C.ar  239  PHE239     -0.0000
@<TRIPOS>BOND
     1    17    18    1
     2    21    18    1
     3    21    22    1
     4    18    19    1
     5    23    22    1
     6    23    24    1
     7    19    25   am
     8    19    20    2
     9    25    26    1
    10    31    30    1
    11    30    29    1
    12    30    32    1
    13    29    26    1
    14    26    27    1
    15     8     6    1
    16    12    11    2
    17    27    28    2
    18     6     5    1
    19     1     2    1
    20    11    10    1
    21    39    37    1
    22     5     2    1
    23     5     7    1
    24    33    34    1
    25    38    37    1
    26     2     3    1
    27    10    13    1
    28    10     9    1
    29    13    14    1
    30    37    34    1
    31    16    14    1
    32    34    35    1
    33     3     4    2
    34    14    15    1
    35    46    44    1
    36    40    35   am
    37    40    41    1
    38    35    36    2
    39    44    41    1
    40    44    45    1
    41    41    42    1
    42    42    43    2
    43    56    54   ar
    44    56    57   ar
    45    54    52   ar
    46    57    55   ar
    47    91    93   ar
    48    91    89   ar
    49    93    92   ar
    50    89    88   ar
    51    52    53   ar
    52    52    51    1
    53    55    53   ar
    54    51    48    1
    55    92    90   ar
    56    47    48    1
    57    88    90   ar
    58    88    87    1
    59    48    49    1
    60    86    85    2
    61    87    84    1
    62    62    63    1
    63    62    59    1
    64    58    49   am
    65    58    59    1
    66    84    85    1
    67    84    83    1
    68    49    50    2
    69    63    64   ar
    70    63    65   ar
    71    59    60    1
    72    64    66   ar
    73    65    67   ar
    74    66    68   ar
    75    67    68   ar
    76    60    61    2
    77    68    69    1
    78    79    78    2
    79    75    74    1
    80    80    77    1
    81    80    81    1
    82    77    78    1
    83    77    76    1
    84    74    71    1
    85    81    82    1
    86    70    71    1
    87    76    82    1
    88    71    72    1
    89    72    73    2
