@<TRIPOS>MOLECULE
tmp/5ezpE00.pdb
 71 63 0 0 0
SMALL
GASTEIGER

@<TRIPOS>ATOM
      1  N         74.7380    8.3950   34.7600 N.3    10  LYS10      -0.1245
      2  CA        74.8870    7.2780   35.6790 C.3    10  LYS10       0.1561
      3  C         73.8290    6.2050   35.4450 C.2    10  LYS10       0.2260
      4  O         72.6620    6.5080   35.3270 O.2    10  LYS10      -0.2867
      5  CB        74.8120    7.7520   37.1180 C.3    10  LYS10       0.0271
      6  CG        74.9480    6.5810   38.1000 C.3    10  LYS10       0.0035
      7  CD        75.5030    6.9530   39.4620 C.3    10  LYS10       0.0206
      8  CE        76.1890    5.7710   40.1390 C.3    10  LYS10       0.1093
      9  NZ        77.0460    6.2600   41.2620 N.3    10  LYS10      -0.1314
     10  N         72.1890    2.2690   36.4170 N.3    12  LEU12      -0.1245
     11  CA        72.0980    1.2260   37.4240 C.3    12  LEU12       0.1561
     12  C         71.2590    0.0850   36.9350 C.2    12  LEU12       0.2260
     13  O         70.3420    0.2800   36.1570 O.2    12  LEU12      -0.2867
     14  CB        71.4790    1.7690   38.7230 C.3    12  LEU12       0.0270
     15  CG        72.2870    2.8430   39.4570 C.3    12  LEU12       0.0019
     16  CD1       71.5440    3.3140   40.6860 C.3    12  LEU12       0.0001
     17  CD2       73.6750    2.3460   39.8640 C.3    12  LEU12       0.0001
     18  N         79.2260    5.1630   35.8450 N.3    49  GLU49      -0.1245
     19  CA        79.2590    6.5740   35.5290 C.3    49  GLU49       0.1567
     20  C         80.0110    6.8650   34.2350 C.2    49  GLU49       0.2260
     21  O         80.9180    6.1180   33.8090 O.2    49  GLU49      -0.2867
     22  CB        79.9130    7.3100   36.6550 C.3    49  GLU49       0.0388
     23  CG        79.1180    7.2410   37.9260 C.3    49  GLU49       0.1160
     24  CD        79.8360    7.9390   39.0380 C.2    49  GLU49       0.3649
     25  OE1       79.4900    9.0800   39.3840 O.co2  49  GLU49      -0.2457
     26  OE2       80.7780    7.3620   39.5720 O.co2  49  GLU49      -0.2457
     27  N         73.0170   15.8440   35.6140 N.3   101  THR101     -0.1218
     28  CA        73.2710   14.4530   35.8160 C.3   101  THR101      0.1862
     29  C         72.0180   13.7990   35.3260 C.2   101  THR101      0.2287
     30  O         70.9410   14.0960   35.8400 O.2   101  THR101     -0.2866
     31  CB        73.5710   14.1090   37.3070 C.3   101  THR101      0.1770
     32  OG1       74.8010   14.7120   37.7090 O.3   101  THR101     -0.2211
     33  CG2       73.7610   12.6460   37.5230 C.3   101  THR101      0.0375
     34  N         70.3090   10.2020   35.2890 N.3   103  ALA103     -0.1231
     35  CA        70.4050    8.8690   35.9190 C.3   103  ALA103      0.1694
     36  C         69.3660    7.9630   35.3290 C.2   103  ALA103      0.2592
     37  O         68.2410    8.3720   35.0260 O.2   103  ALA103     -0.2718
     38  CB        70.1920    8.9610   37.3870 C.3   103  ALA103      0.0304
     39  N         69.7370    6.7170   35.1850 N.am  104  ALA104     -0.1966
     40  CA        68.8510    5.7580   34.6500 C.3   104  ALA104      0.1728
     41  C         68.9410    4.4850   35.4100 C.2   104  ALA104      0.2616
     42  O         70.0290    3.9810   35.7110 O.2   104  ALA104     -0.2715
     43  CB        69.1970    5.5150   33.1610 C.3   104  ALA104      0.0334
     44  N         67.7960    3.9040   35.6260 N.am  105  LEU105     -0.1977
     45  CA        67.7020    2.6650   36.3110 C.3   105  LEU105      0.1596
     46  C         67.0550    1.6540   35.3750 C.2   105  LEU105      0.2287
     47  O         65.9550    1.9410   34.8840 O.2   105  LEU105     -0.2864
     48  CB        66.8110    2.8560   37.5640 C.3   105  LEU105      0.0297
     49  CG        66.5440    1.5830   38.3520 C.3   105  LEU105      0.0022
     50  CD1       67.8320    1.0420   38.9690 C.3   105  LEU105      0.0001
     51  CD2       65.4880    1.8700   39.4220 C.3   105  LEU105      0.0001
     52  N         63.6370    3.7700   34.0950 N.3   112  SER112     -0.1217
     53  CA        63.2410    5.0610   34.6390 C.3   112  SER112      0.1889
     54  C         64.4250    5.9980   34.5890 C.2   112  SER112      0.2288
     55  O         65.5650    5.5700   34.6620 O.2   112  SER112     -0.2866
     56  CB        62.7600    4.9100   36.0910 C.3   112  SER112      0.2089
     57  OG        63.8110    5.2590   36.9610 O.3   112  SER112     -0.2183
     58  N         65.9130   10.0610   35.5450 N.3   114  THR114     -0.1218
     59  CA        65.7740   11.2570   36.3640 C.3   114  THR114      0.1862
     60  C         66.8610   12.2180   36.0280 C.2   114  THR114      0.2287
     61  O         67.9740   11.7960   35.7200 O.2   114  THR114     -0.2866
     62  CB        65.8800   10.9740   37.8820 C.3   114  THR114      0.1770
     63  OG1       64.9460    9.9450   38.1560 O.3   114  THR114     -0.2211
     64  CG2       65.4960   12.2070   38.6450 C.3   114  THR114      0.0375
     65  N         69.0480   15.4520   37.6050 N.3   116  VAL116     -0.1245
     66  CA        69.4990   16.3110   38.6890 C.3   116  VAL116      0.1561
     67  C         70.2840   17.4640   38.0860 C.2   116  VAL116      0.2260
     68  O         71.3500   17.2560   37.5570 O.2   116  VAL116     -0.2867
     69  CB        70.4130   15.5340   39.6860 C.3   116  VAL116      0.0252
     70  CG1       70.9940   16.4790   40.7190 C.3   116  VAL116      0.0019
     71  CG2       69.6180   14.4140   40.3570 C.3   116  VAL116      0.0019
@<TRIPOS>BOND
     1    43    40    1
     2    21    20    2
     3    52    53    1
     4    20    19    1
     5    54    53    1
     6    54    55    2
     7    53    56    1
     8    40    39    1
     9    40    41    1
    10     1     2    1
    11    47    46    2
    12    37    36    2
    13    39    36   am
    14    34    35    1
    15    29    28    1
    16    29    30    2
    17     4     3    2
    18    36    35    1
    19    46    45    1
    20    41    44   am
    21    41    42    2
    22     3     2    1
    23    19    18    1
    24    19    22    1
    25    58    59    1
    26    27    28    1
    27    44    45    1
    28     2     5    1
    29    61    60    2
    30    28    31    1
    31    35    38    1
    32    60    59    1
    33    56    57    1
    34    13    12    2
    35    45    48    1
    36    59    62    1
    37    10    11    1
    38    22    23    1
    39    12    11    1
    40     5     6    1
    41    31    33    1
    42    31    32    1
    43    11    14    1
    44    68    67    2
    45    48    49    1
    46    65    66    1
    47    62    63    1
    48    62    64    1
    49    23    24    1
    50    67    66    1
    51     6     7    1
    52    49    50    1
    53    49    51    1
    54    66    69    1
    55    14    15    1
    56    24    25   ar
    57    24    26   ar
    58    15    17    1
    59    15    16    1
    60     7     8    1
    61    69    71    1
    62    69    70    1
    63     8     9    1
