@<TRIPOS>MOLECULE
tmp/5ezrA00.pdb
 210 198 0 0 0
SMALL
GASTEIGER

@<TRIPOS>ATOM
      1  N        -23.7580   75.3180   36.5010 N.3   528  ILE528     -0.1231
      2  CA       -25.0280   74.5640   36.5730 C.3   528  ILE528      0.1692
      3  C        -24.8130   73.0400   36.6520 C.2   528  ILE528      0.2593
      4  O        -25.5710   72.2670   36.0570 O.2   528  ILE528     -0.2718
      5  CB       -25.9610   74.9250   35.3830 C.3   528  ILE528      0.0266
      6  CG1      -25.2580   74.7060   34.0340 C.3   528  ILE528      0.0019
      7  CG2      -26.4400   76.3700   35.4960 C.3   528  ILE528      0.0020
      8  CD1      -26.1600   74.9060   32.8340 C.3   528  ILE528      0.0001
      9  N        -23.7960   72.6220   37.4110 N.am  529  GLY529     -0.1942
     10  CA       -23.4250   71.2050   37.5560 C.3   529  GLY529      0.2014
     11  C        -21.9180   71.0100   37.6370 C.2   529  GLY529      0.2639
     12  O        -21.1700   71.6960   36.9400 O.2   529  GLY529     -0.2714
     13  N        -21.4850   70.0780   38.4920 N.am  530  ARG530     -0.1963
     14  CA       -20.0620   69.7250   38.6700 C.3   530  ARG530      0.1729
     15  C        -19.9290   68.2430   39.0450 C.2   530  ARG530      0.2616
     16  O        -19.8100   67.8980   40.2200 O.2   530  ARG530     -0.2715
     17  CB       -19.4030   70.6090   39.7470 C.3   530  ARG530      0.0348
     18  CG       -18.8420   71.9220   39.2300 C.3   530  ARG530      0.0492
     19  CD       -18.2310   72.7670   40.3380 C.3   530  ARG530      0.2205
     20  NE       -19.2590   73.3860   41.1840 N.pl3 530  ARG530     -0.0865
     21  CZ       -19.0900   74.4600   41.9620 C.cat 530  ARG530      0.5346
     22  NH1      -17.9190   75.0980   42.0340 N.pl3 530  ARG530      0.1354
     23  NH2      -20.1180   74.9130   42.6790 N.pl3 530  ARG530      0.1354
     24  N        -19.9320   67.3720   38.0390 N.am  531  GLY531     -0.1955
     25  CA       -19.9500   65.9250   38.2610 C.3   531  GLY531      0.1869
     26  C        -18.5840   65.2700   38.3550 C.2   531  GLY531      0.2309
     27  O        -18.3770   64.2080   37.7650 O.2   531  GLY531     -0.2863
     28  N        -20.0260   72.1140   34.2220 N.3   536  VAL536     -0.1245
     29  CA       -20.9850   72.6320   33.2340 C.3   536  VAL536      0.1561
     30  C        -21.3970   74.0720   33.5430 C.2   536  VAL536      0.2260
     31  O        -21.7840   74.3870   34.6700 O.2   536  VAL536     -0.2867
     32  CB       -22.2480   71.7480   33.1450 C.3   536  VAL536      0.0252
     33  CG1      -23.1490   72.2110   32.0020 C.3   536  VAL536      0.0019
     34  CG2      -21.8590   70.2870   32.9520 C.3   536  VAL536      0.0019
     35  N        -25.0800   75.7260   26.8420 N.3   549  ALA549     -0.1245
     36  CA       -24.4300   75.0800   27.9690 C.3   549  ALA549      0.1562
     37  C        -23.0970   74.5370   27.4800 C.2   549  ALA549      0.2260
     38  O        -23.0500   73.8250   26.4730 O.2   549  ALA549     -0.2867
     39  CB       -25.2990   73.9590   28.5110 C.3   549  ALA549      0.0290
     40  N        -19.9380   72.2500   28.6430 N.3   551  LYS551     -0.1245
     41  CA       -19.4290   71.2670   29.5930 C.3   551  LYS551      0.1561
     42  C        -17.9230   71.1860   29.3850 C.2   551  LYS551      0.2260
     43  O        -17.4680   70.9110   28.2760 O.2   551  LYS551     -0.2867
     44  CB       -20.0870   69.8990   29.3610 C.3   551  LYS551      0.0271
     45  CG       -19.4760   68.7420   30.1430 C.3   551  LYS551      0.0035
     46  CD       -20.0460   67.3960   29.7240 C.3   551  LYS551      0.0206
     47  CE       -19.1740   66.2580   30.2350 C.3   551  LYS551      0.1093
     48  NZ       -19.9000   64.9640   30.3480 N.3   551  LYS551     -0.1314
     49  N        -17.3310   58.7570   22.5450 N.3   570  GLU570     -0.1245
     50  CA       -18.4380   59.5310   23.1060 C.3   570  GLU570      0.1567
     51  C        -18.7640   60.7520   22.2490 C.2   570  GLU570      0.2260
     52  O        -19.9310   61.0910   22.0810 O.2   570  GLU570     -0.2867
     53  CB       -18.1340   59.9790   24.5380 C.3   570  GLU570      0.0388
     54  CG       -19.2890   60.7080   25.2300 C.3   570  GLU570      0.1160
     55  CD       -18.9380   61.2440   26.6090 C.2   570  GLU570      0.3649
     56  OE1      -17.9030   60.8370   27.1850 O.co2 570  GLU570     -0.2457
     57  OE2      -19.7100   62.0810   27.1200 O.co2 570  GLU570     -0.2457
     58  N        -22.5180   61.5040   20.7500 N.3   574  THR574     -0.1218
     59  CA       -23.0790   62.7980   21.1260 C.3   574  THR574      0.1862
     60  C        -23.3580   63.7320   19.9430 C.2   574  THR574      0.2287
     61  O        -24.3590   64.4430   19.9350 O.2   574  THR574     -0.2866
     62  CB       -22.1220   63.4820   22.1230 C.3   574  THR574      0.1770
     63  OG1      -22.1160   62.7330   23.3400 O.3   574  THR574     -0.2211
     64  CG2      -22.5370   64.8900   22.4440 C.3   574  THR574      0.0375
     65  N        -30.4380   65.3340   24.2150 N.3   583  ILE583     -0.1245
     66  CA       -29.6950   66.5900   24.1720 C.3   583  ILE583      0.1561
     67  C        -28.9840   66.7540   22.8240 C.2   583  ILE583      0.2260
     68  O        -28.4090   65.7970   22.2870 O.2   583  ILE583     -0.2867
     69  CB       -28.7010   66.6840   25.3570 C.3   583  ILE583      0.0252
     70  CG1      -28.1630   68.1060   25.5290 C.3   583  ILE583      0.0019
     71  CG2      -27.5640   65.6760   25.2140 C.3   583  ILE583      0.0019
     72  CD1      -29.1520   69.0570   26.1680 C.3   583  ILE583      0.0001
     73  N        -26.0850   68.3290   20.7310 N.3   585  LEU585     -0.1245
     74  CA       -24.7460   68.9120   20.6770 C.3   585  LEU585      0.1561
     75  C        -24.6680   69.8830   19.5100 C.2   585  LEU585      0.2260
     76  O        -25.2090   69.6210   18.4310 O.2   585  LEU585     -0.2867
     77  CB       -23.6850   67.8250   20.4840 C.3   585  LEU585      0.0270
     78  CG       -22.2060   68.2600   20.5290 C.3   585  LEU585      0.0019
     79  CD1      -21.7430   68.4490   21.9680 C.3   585  LEU585      0.0001
     80  CD2      -21.2930   67.2790   19.7960 C.3   585  LEU585      0.0001
     81  N        -17.7010   70.5260   25.4320 N.3   597  PHE597     -0.1241
     82  CA       -18.9050   70.1300   24.6870 C.3   597  PHE597      0.1605
     83  C        -19.9540   71.2300   24.7930 C.2   597  PHE597      0.2264
     84  O        -20.4310   71.5240   25.8870 O.2   597  PHE597     -0.2867
     85  CB       -19.4860   68.8310   25.2460 C.3   597  PHE597      0.0534
     86  CG       -18.6330   67.6240   24.9960 C.ar  597  PHE597     -0.0203
     87  CD1      -18.8040   66.8610   23.8450 C.ar  597  PHE597     -0.0042
     88  CD2      -17.6640   67.2380   25.9140 C.ar  597  PHE597     -0.0042
     89  CE1      -18.0200   65.7370   23.6100 C.ar  597  PHE597     -0.0003
     90  CE2      -16.8770   66.1170   25.6850 C.ar  597  PHE597     -0.0003
     91  CZ       -17.0530   65.3650   24.5310 C.ar  597  PHE597     -0.0000
     92  N        -23.6870   72.4750   24.0230 N.3   599  THR599     -0.1203
     93  CA       -25.0380   71.9570   23.7620 C.3   599  THR599      0.1994
     94  C        -26.0720   73.0420   23.9500 C.2   599  THR599      0.2618
     95  O        -25.7870   74.0810   24.5510 O.2   599  THR599     -0.2717
     96  CB       -25.4240   70.8110   24.7190 C.3   599  THR599      0.1784
     97  OG1      -25.7180   71.3360   26.0180 O.3   599  THR599     -0.2211
     98  CG2      -24.3110   69.7800   24.8180 C.3   599  THR599      0.0376
     99  N        -27.2830   72.7800   23.4600 N.am  600  GLU600     -0.1965
    100  CA       -28.4460   73.6030   23.7990 C.3   600  GLU600      0.1733
    101  C        -28.5550   73.7180   25.3150 C.2   600  GLU600      0.2616
    102  O        -28.1380   72.8080   26.0410 O.2   600  GLU600     -0.2715
    103  CB       -29.7320   72.9840   23.2490 C.3   600  GLU600      0.0429
    104  CG       -30.1220   71.6600   23.9000 C.3   600  GLU600      0.1163
    105  CD       -31.2320   70.9280   23.1680 C.2   600  GLU600      0.3649
    106  OE1      -32.2720   71.5590   22.8740 O.co2 600  GLU600     -0.2457
    107  OE2      -31.0650   69.7120   22.9190 O.co2 600  GLU600     -0.2457
    108  N        -29.0990   74.8340   25.7890 N.am  601  LEU601     -0.1963
    109  CA       -29.3970   74.9890   27.2070 C.3   601  LEU601      0.1728
    110  C        -30.8210   74.5150   27.4640 C.2   601  LEU601      0.2616
    111  O        -31.7510   74.9140   26.7580 O.2   601  LEU601     -0.2715
    112  CB       -29.2500   76.4440   27.6490 C.3   601  LEU601      0.0311
    113  CG       -29.4530   76.7050   29.1450 C.3   601  LEU601      0.0022
    114  CD1      -28.3420   76.0720   29.9670 C.3   601  LEU601      0.0001
    115  CD2      -29.5280   78.1980   29.4120 C.3   601  LEU601      0.0001
    116  N        -30.9750   73.6780   28.4840 N.am  602  VAL602     -0.1977
    117  CA       -32.2710   73.1690   28.9010 C.3   602  VAL602      0.1596
    118  C        -32.6550   73.9900   30.1360 C.2   602  VAL602      0.2287
    119  O        -31.8580   74.0990   31.0680 O.2   602  VAL602     -0.2864
    120  CB       -32.1820   71.6540   29.2120 C.3   602  VAL602      0.0276
    121  CG1      -33.5570   71.0740   29.4930 C.3   602  VAL602      0.0022
    122  CG2      -31.5330   70.9020   28.0560 C.3   602  VAL602      0.0022
    123  N        -35.7920   74.0040   32.1470 N.3   604  GLY604     -0.1210
    124  CA       -37.0020   73.5670   32.8650 C.3   604  GLY604      0.1956
    125  C        -36.7980   72.6050   34.0270 C.2   604  GLY604      0.2612
    126  O        -37.7760   72.0590   34.5370 O.2   604  GLY604     -0.2717
    127  N        -35.5470   72.3900   34.4430 N.am  605  GLY605     -0.1942
    128  CA       -35.2400   71.5900   35.6250 C.3   605  GLY605      0.2014
    129  C        -34.7950   70.1670   35.3520 C.2   605  GLY605      0.2638
    130  O        -34.4930   69.7980   34.2210 O.2   605  GLY605     -0.2714
    131  N        -34.7400   69.3830   36.4220 N.am  606  GLU606     -0.1977
    132  CA       -34.4360   67.9630   36.3700 C.3   606  GLU606      0.1602
    133  C        -35.7180   67.1590   36.5630 C.2   606  GLU606      0.2287
    134  O        -36.6790   67.6490   37.1600 O.2   606  GLU606     -0.2864
    135  CB       -33.4350   67.6160   37.4670 C.3   606  GLU606      0.0415
    136  CG       -32.1500   68.4320   37.3770 C.3   606  GLU606      0.1163
    137  CD       -31.0730   68.0180   38.3740 C.2   606  GLU606      0.3649
    138  OE1      -30.9770   66.8170   38.7320 O.co2 606  GLU606     -0.2457
    139  OE2      -30.2940   68.9110   38.7810 O.co2 606  GLU606     -0.2457
    140  N        -31.5240   60.7530   37.3570 N.3   649  GLU649     -0.1231
    141  CA       -30.4050   61.7260   37.4430 C.3   649  GLU649      0.1699
    142  C        -29.9630   62.2640   36.0670 C.2   649  GLU649      0.2592
    143  O        -29.5490   63.4160   35.9610 O.2   649  GLU649     -0.2718
    144  CB       -29.1690   61.1210   38.1260 C.3   649  GLU649      0.0402
    145  CG       -29.2760   60.8670   39.6210 C.3   649  GLU649      0.1161
    146  CD       -29.6530   59.4310   39.9740 C.2   649  GLU649      0.3649
    147  OE1      -30.6010   58.8870   39.3570 O.co2 649  GLU649     -0.2457
    148  OE2      -29.0140   58.8510   40.8850 O.co2 649  GLU649     -0.2457
    149  N        -30.0520   61.4280   35.0310 N.am  650  ASN650     -0.1974
    150  CA       -29.6300   61.7930   33.6760 C.3   650  ASN650      0.1688
    151  C        -30.7330   62.2830   32.7230 C.2   650  ASN650      0.2292
    152  O        -30.5740   62.1770   31.5050 O.2   650  ASN650     -0.2864
    153  CB       -28.8960   60.6020   33.0470 C.3   650  ASN650      0.1181
    154  CG       -27.6110   60.2610   33.7740 C.2   650  ASN650      0.2629
    155  OD1      -27.0670   61.0730   34.5250 O.2   650  ASN650     -0.2716
    156  ND2      -27.1090   59.0610   33.5400 N.am  650  ASN650     -0.0877
    157  N        -33.0800   65.7140   32.0700 N.3   652  LEU652     -0.1245
    158  CA       -33.5270   67.0860   32.2850 C.3   652  LEU652      0.1561
    159  C        -34.9310   67.2660   31.7240 C.2   652  LEU652      0.2260
    160  O        -35.4480   66.3760   31.0440 O.2   652  LEU652     -0.2867
    161  CB       -32.5690   68.0630   31.6070 C.3   652  LEU652      0.0270
    162  CG       -31.0750   67.8590   31.8800 C.3   652  LEU652      0.0019
    163  CD1      -30.2540   68.9350   31.1770 C.3   652  LEU652      0.0001
    164  CD2      -30.7840   67.8240   33.3770 C.3   652  LEU652      0.0001
    165  N        -29.4750   63.2680   28.9900 N.3   662  ILE662     -0.1231
    166  CA       -28.1010   63.7920   29.0030 C.3   662  ILE662      0.1692
    167  C        -27.1210   62.7190   29.4620 C.2   662  ILE662      0.2592
    168  O        -27.5340   61.6490   29.8960 O.2   662  ILE662     -0.2718
    169  CB       -27.9730   65.0450   29.9060 C.3   662  ILE662      0.0266
    170  CG1      -28.2490   64.7060   31.3870 C.3   662  ILE662      0.0019
    171  CG2      -28.9170   66.1380   29.4230 C.3   662  ILE662      0.0020
    172  CD1      -27.9490   65.8260   32.3650 C.3   662  ILE662      0.0001
    173  N        -25.8280   63.0230   29.3480 N.am  663  ASP663     -0.1960
    174  CA       -24.7450   62.2260   29.9390 C.3   663  ASP663      0.1840
    175  C        -24.5470   60.9120   29.2120 C.2   663  ASP663      0.2622
    176  O        -25.1070   59.8860   29.5950 O.2   663  ASP663     -0.2715
    177  CB       -24.9860   61.9950   31.4450 C.3   663  ASP663      0.1450
    178  CG       -23.7150   61.6280   32.1990 C.2   663  ASP663      0.3671
    179  OD1      -22.9680   60.7320   31.7370 O.co2 663  ASP663     -0.2456
    180  OD2      -23.4750   62.2390   33.2670 O.co2 663  ASP663     -0.2456
    181  N        -23.7170   60.9430   28.1770 N.am  664  PHE664     -0.1974
    182  CA       -23.4530   59.7510   27.3700 C.3   664  PHE664      0.1639
    183  C        -22.1100   59.0800   27.6870 C.2   664  PHE664      0.2290
    184  O        -21.5570   58.3750   26.8390 O.2   664  PHE664     -0.2864
    185  CB       -23.6220   60.0950   25.8750 C.3   664  PHE664      0.0560
    186  CG       -25.0650   60.1360   25.4400 C.ar  664  PHE664     -0.0200
    187  CD1      -25.8700   61.2170   25.7660 C.ar  664  PHE664     -0.0042
    188  CD2      -25.6330   59.0700   24.7540 C.ar  664  PHE664     -0.0042
    189  CE1      -27.2070   61.2470   25.3960 C.ar  664  PHE664     -0.0003
    190  CE2      -26.9700   59.0990   24.3790 C.ar  664  PHE664     -0.0003
    191  CZ       -27.7570   60.1850   24.7020 C.ar  664  PHE664     -0.0000
    192  N        -35.4770   77.1080   37.0910 N.3   802  THR802     -0.1203
    193  CA       -34.9050   76.5600   38.3230 C.3   802  THR802      0.1994
    194  C        -33.5870   75.8400   38.0190 C.2   802  THR802      0.2617
    195  O        -33.4530   75.1980   36.9700 O.2   802  THR802     -0.2717
    196  CB       -35.8830   75.5800   39.0030 C.3   802  THR802      0.1784
    197  OG1      -36.4030   74.6600   38.0330 O.3   802  THR802     -0.2211
    198  CG2      -37.0380   76.3360   39.6490 C.3   802  THR802      0.0376
    199  N        -32.6260   75.9540   38.9410 N.am  803  TYR803     -0.1975
    200  CA       -31.2930   75.3520   38.7930 C.3   803  TYR803      0.1639
    201  C        -30.8730   74.6360   40.0760 C.2   803  TYR803      0.2290
    202  O        -30.5720   75.2690   41.0870 O.2   803  TYR803     -0.2864
    203  CB       -30.2580   76.4230   38.4180 C.3   803  TYR803      0.0560
    204  CG       -30.4640   77.0190   37.0380 C.ar  803  TYR803     -0.0198
    205  CD1      -30.1580   76.2860   35.8890 C.ar  803  TYR803     -0.0009
    206  CD2      -30.9690   78.3120   36.8760 C.ar  803  TYR803     -0.0009
    207  CE1      -30.3500   76.8210   34.6190 C.ar  803  TYR803      0.0417
    208  CE2      -31.1640   78.8560   35.6100 C.ar  803  TYR803      0.0417
    209  CZ       -30.8530   78.1070   34.4840 C.ar  803  TYR803      0.1957
    210  OH       -31.0430   78.6380   33.2280 O.3   803  TYR803     -0.2866
@<TRIPOS>BOND
     1    76    75    2
     2    75    74    1
     3    80    78    1
     4    61    60    2
     5    60    59    1
     6    77    78    1
     7    77    74    1
     8    78    79    1
     9    74    73    1
    10    58    59    1
    11    59    62    1
    12    52    51    2
    13    62    64    1
    14    62    63    1
    15    51    50    1
    16    68    67    2
    17    49    50    1
    18    67    66    1
    19   106   105   ar
    20   107   105   ar
    21    50    53    1
    22   105   104    1
    23   103   100    1
    24   103   104    1
    25    99   100    1
    26    99    94   am
    27    89    87   ar
    28    89    91   ar
    29    93    94    1
    30    93    92    1
    31    93    96    1
    32   100   101    1
    33    87    86   ar
    34    94    95    2
    35    66    65    1
    36    66    69    1
    37   190   191   ar
    38   190   188   ar
    39    91    90   ar
    40    53    54    1
    41    82    83    1
    42    82    85    1
    43    82    81    1
    44   191   189   ar
    45    96    98    1
    46    96    97    1
    47   188   186   ar
    48    83    84    2
    49    86    85    1
    50    86    88   ar
    51    71    69    1
    52    54    55    1
    53   101   108   am
    54   101   102    2
    55    69    70    1
    56   189   187   ar
    57   186   187   ar
    58   186   185    1
    59    70    72    1
    60    90    88   ar
    61   108   109    1
    62   185   182    1
    63    38    37    2
    64    55    57   ar
    65    55    56   ar
    66   111   110    2
    67   184   183    2
    68    35    36    1
    69   109   110    1
    70   109   112    1
    71   182   183    1
    72   182   181    1
    73   110   116   am
    74    37    36    1
    75   112   113    1
    76    36    39    1
    77   122   120    1
    78   181   175   am
    79    43    42    2
    80   116   117    1
    81    40    41    1
    82   117   120    1
    83   117   118    1
    84   165   166    1
    85   166   167    1
    86   166   169    1
    87   113   115    1
    88   113   114    1
    89   120   121    1
    90   175   176    2
    91   175   174    1
    92   173   167   am
    93   173   174    1
    94    44    41    1
    95    44    45    1
    96    42    41    1
    97   171   169    1
    98   167   168    2
    99    46    45    1
   100    46    47    1
   101   169   170    1
   102   174   177    1
   103   118   119    2
   104    47    48    1
   105   160   159    2
   106   163   162    1
   107   170   172    1
   108   177   178    1
   109   152   151    2
   110   161   162    1
   111   161   158    1
   112   159   158    1
   113   179   178   ar
   114   162   164    1
   115    33    32    1
   116   157   158    1
   117   123   124    1
   118   178   180   ar
   119   151   150    1
   120     8     6    1
   121   124   125    1
   122    34    32    1
   123   153   150    1
   124   153   154    1
   125    32    29    1
   126   210   209    1
   127    29    30    1
   128    29    28    1
   129   156   154   am
   130    30    31    2
   131   150   149    1
   132   154   155    2
   133   125   127   am
   134   125   126    2
   135     6     5    1
   136   130   129    2
   137   127   128    1
   138   209   207   ar
   139   209   208   ar
   140   207   205   ar
   141   149   142   am
   142   129   128    1
   143   129   131   am
   144     5     7    1
   145     5     2    1
   146   208   206   ar
   147   205   204   ar
   148   143   142    2
   149     4     3    2
   150   142   141    1
   151   132   131    1
   152   132   133    1
   153   132   135    1
   154     1     2    1
   155   133   134    2
   156     2     3    1
   157     3     9   am
   158   206   204   ar
   159    12    11    2
   160   195   194    2
   161   204   203    1
   162   192   193    1
   163   140   141    1
   164   136   135    1
   165   136   137    1
   166     9    10    1
   167   141   144    1
   168    10    11    1
   169    11    13   am
   170    27    26    2
   171   194   193    1
   172   194   199   am
   173   197   196    1
   174    24    25    1
   175    24    15   am
   176   144   145    1
   177    25    26    1
   178   193   196    1
   179   137   138   ar
   180   137   139   ar
   181   203   200    1
   182    13    14    1
   183    14    15    1
   184    14    17    1
   185   200   199    1
   186   200   201    1
   187   196   198    1
   188    15    16    2
   189    18    17    1
   190    18    19    1
   191   147   146   ar
   192   145   146    1
   193   146   148   ar
   194   201   202    2
   195    19    20    1
   196    20    21    2
   197    21    22    1
   198    21    23    1
