@<TRIPOS>MOLECULE
tmp/5ezsA00.pdb
 158 155 0 0 0
SMALL
GASTEIGER

@<TRIPOS>ATOM
      1  N         22.8720   39.9560   -8.3700 N.3     7  ALA7       -0.1231
      2  CA        22.0060   41.0400   -7.8900 C.3     7  ALA7        0.1694
      3  C         22.0030   41.2370   -6.3640 C.2     7  ALA7        0.2592
      4  O         21.5900   42.2930   -5.8840 O.2     7  ALA7       -0.2718
      5  CB        20.5830   40.7970   -8.3740 C.3     7  ALA7        0.0304
      6  N         22.4570   40.2380   -5.6090 N.am    8  ASN8       -0.1960
      7  CA        22.2490   40.2200   -4.1590 C.3     8  ASN8        0.1819
      8  C         23.5230   40.1070   -3.3210 C.2     8  ASN8        0.2621
      9  O         23.4400   39.7710   -2.1380 O.2     8  ASN8       -0.2715
     10  CB        21.2810   39.0900   -3.7960 C.3     8  ASN8        0.1195
     11  CG        19.9570   39.1950   -4.5370 C.2     8  ASN8        0.2630
     12  OD1       19.3510   40.2610   -4.5980 O.2     8  ASN8       -0.2716
     13  ND2       19.5040   38.0840   -5.1020 N.am    8  ASN8       -0.0877
     14  N         24.6760   40.4440   -3.9130 N.am    9  VAL9       -0.1963
     15  CA        25.9930   40.2430   -3.2650 C.3     9  VAL9        0.1727
     16  C         26.7100   41.5400   -2.8420 C.2     9  VAL9        0.2616
     17  O         27.9440   41.6230   -2.9010 O.2     9  VAL9       -0.2715
     18  CB        26.9290   39.3360   -4.1180 C.3     9  VAL9        0.0290
     19  CG1       26.2730   37.9830   -4.3550 C.3     9  VAL9        0.0023
     20  CG2       27.3080   39.9810   -5.4490 C.3     9  VAL9        0.0023
     21  N         25.9190   42.5770   -2.5200 N.am   10  CYS10      -0.1954
     22  CA        26.3810   43.7490   -1.8170 C.3    10  CYS10       0.1843
     23  C         27.4390   43.4550   -0.7250 C.2    10  CYS10       0.2625
     24  O         28.4280   44.0930   -0.6820 O.2    10  CYS10      -0.2714
     25  CB        25.2500   44.6010   -1.2060 C.3    10  CYS10       0.0997
     26  SG        24.3120   43.8210    0.1800 S.3    10  CYS10      -0.0797
     27  N         27.1850   42.4570    0.1070 N.am   11  TRP11      -0.1974
     28  CA        28.1060   41.9580    1.1470 C.3    11  TRP11       0.1640
     29  C         29.5040   41.5930    0.6290 C.2    11  TRP11       0.2290
     30  O         30.4990   41.9280    1.2630 O.2    11  TRP11      -0.2864
     31  CB        27.4930   40.7610    1.8970 C.3    11  TRP11       0.0576
     32  CG        26.9160   39.6530    1.0350 C.ar   11  TRP11       0.0006
     33  CD1       25.6440   39.5750    0.5470 C.ar   11  TRP11       0.0946
     34  CD2       27.5830   38.4730    0.5850 C.ar   11  TRP11       0.0152
     35  NE1       25.4740   38.4290   -0.1830 N.ar   11  TRP11      -0.2442
     36  CE2       26.6490   37.7260   -0.1700 C.ar   11  TRP11       0.0810
     37  CE3       28.8780   37.9640    0.7530 C.ar   11  TRP11       0.0012
     38  CZ2       26.9700   36.5040   -0.7600 C.ar   11  TRP11       0.0191
     39  CZ3       29.1950   36.7440    0.1680 C.ar   11  TRP11       0.0001
     40  CH2       28.2420   36.0280   -0.5780 C.ar   11  TRP11       0.0015
     41  N         21.3220   37.2370   -0.2730 N.3    42  ALA42      -0.1231
     42  CA        21.6520   38.1790    0.7890 C.3    42  ALA42       0.1694
     43  C         22.3400   37.4410    1.9440 C.2    42  ALA42       0.2592
     44  O         21.9620   36.3180    2.2680 O.2    42  ALA42      -0.2718
     45  CB        20.3790   38.8530    1.2720 C.3    42  ALA42       0.0304
     46  N         23.3660   38.0720    2.4730 N.am   43  HIS43      -0.1962
     47  CA        24.1960   37.5260    3.5030 C.3    43  HIS43       0.1787
     48  C         24.7950   38.6160    4.3980 C.2    43  HIS43       0.2620
     49  O         24.7760   39.7440    4.0910 O.2    43  HIS43      -0.2715
     50  CB        25.3250   36.7190    2.8060 C.3    43  HIS43       0.0785
     51  CG        25.8990   35.5780    3.5950 C.ar   43  HIS43       0.0821
     52  ND1       25.7980   35.4790    4.9490 N.ar   43  HIS43      -0.2267
     53  CD2       26.6300   34.5190    3.2030 C.ar   43  HIS43       0.1154
     54  CE1       26.4010   34.3950    5.3520 C.ar   43  HIS43       0.1986
     55  NE2       26.9070   33.7900    4.3100 N.ar   43  HIS43      -0.2212
     56  N         25.3320   38.1800    5.5140 N.am   44  SER44      -0.1950
     57  CA        26.0790   38.9930    6.4090 C.3    44  SER44       0.1924
     58  C         27.5480   39.0070    5.9710 C.2    44  SER44       0.2314
     59  O         28.2290   37.9900    5.9770 O.2    44  SER44      -0.2863
     60  CB        26.0500   38.4660    7.8600 C.3    44  SER44       0.2116
     61  OG        26.9750   39.0830    8.6640 O.3    44  SER44      -0.2180
     62  N         29.7890   37.4610    8.8440 N.3    47  ILE47      -0.1245
     63  CA        29.8860   36.0040    8.8500 C.3    47  ILE47       0.1561
     64  C         30.8060   35.5360    7.7220 C.2    47  ILE47       0.2260
     65  O         31.6610   34.6750    7.9360 O.2    47  ILE47      -0.2867
     66  CB        28.4920   35.3360    8.7460 C.3    47  ILE47       0.0252
     67  CG1       27.6970   35.6190   10.0290 C.3    47  ILE47       0.0019
     68  CG2       28.6170   33.8270    8.4960 C.3    47  ILE47       0.0019
     69  CD1       26.2450   35.1880    9.9990 C.3    47  ILE47       0.0001
     70  N         25.3200   48.7640    7.2780 N.3    75  ILE75      -0.1245
     71  CA        24.0470   48.4560    6.6470 C.3    75  ILE75       0.1561
     72  C         23.2280   49.7390    6.5360 C.2    75  ILE75       0.2260
     73  O         22.9150   50.3600    7.5520 O.2    75  ILE75      -0.2867
     74  CB        23.2550   47.4340    7.4730 C.3    75  ILE75       0.0252
     75  CG1       24.0630   46.1320    7.6070 C.3    75  ILE75       0.0019
     76  CG2       21.8620   47.2290    6.8710 C.3    75  ILE75       0.0019
     77  CD1       23.5710   45.2340    8.7210 C.3    75  ILE75       0.0001
     78  N         18.9990   48.0280    4.1250 N.3    78  ASN78      -0.1225
     79  CA        19.1990   46.5850    3.9430 C.3    78  ASN78       0.1785
     80  C         20.1770   46.2610    2.7890 C.2    78  ASN78       0.2597
     81  O         20.0110   45.2740    2.0690 O.2    78  ASN78      -0.2718
     82  CB        17.8420   45.8950    3.7590 C.3    78  ASN78       0.1169
     83  CG        16.8320   46.3190    4.8160 C.2    78  ASN78       0.2627
     84  OD1       16.8730   45.8430    5.9520 O.2    78  ASN78      -0.2716
     85  ND2       15.9370   47.2330    4.4570 N.am   78  ASN78      -0.0877
     86  N         21.2080   47.0700    2.7000 N.am   79  HIS79      -0.1961
     87  CA        22.2770   46.9340    1.7900 C.3    79  HIS79       0.1787
     88  C         23.6100   47.1540    2.5600 C.2    79  HIS79       0.2620
     89  O         23.7980   48.0910    3.2630 O.2    79  HIS79      -0.2715
     90  CB        22.0930   47.9650    0.7130 C.3    79  HIS79       0.0785
     91  CG        23.3350   48.3280   -0.0350 C.ar   79  HIS79       0.0821
     92  ND1       23.9290   49.5580    0.0750 N.ar   79  HIS79      -0.2267
     93  CD2       24.0590   47.6530   -0.9600 C.ar   79  HIS79       0.1154
     94  CE1       24.9320   49.6370   -0.7700 C.ar   79  HIS79       0.1986
     95  NE2       25.0380   48.4950   -1.4100 N.ar   79  HIS79      -0.2212
     96  N         24.5400   46.2170    2.3570 N.am   80  TRP80      -0.1974
     97  CA        25.8720   46.3470    2.9880 C.3    80  TRP80       0.1640
     98  C         26.6560   47.3450    2.1630 C.2    80  TRP80       0.2290
     99  O         26.5760   47.3210    0.9370 O.2    80  TRP80      -0.2864
    100  CB        26.6950   45.0410    3.0560 C.3    80  TRP80       0.0576
    101  CG        26.2800   44.0740    4.1160 C.ar   80  TRP80       0.0006
    102  CD1       25.5540   42.9490    3.9330 C.ar   80  TRP80       0.0946
    103  CD2       26.5810   44.1290    5.5190 C.ar   80  TRP80       0.0152
    104  NE1       25.3470   42.3100    5.1220 N.ar   80  TRP80      -0.2442
    105  CE2       25.9690   43.0070    6.1160 C.ar   80  TRP80       0.0810
    106  CE3       27.2970   45.0180    6.3280 C.ar   80  TRP80       0.0012
    107  CZ2       26.0630   42.7340    7.4840 C.ar   80  TRP80       0.0191
    108  CZ3       27.3860   44.7530    7.6970 C.ar   80  TRP80       0.0001
    109  CH2       26.7720   43.6180    8.2590 C.ar   80  TRP80       0.0015
    110  N         11.2080   35.8700   -0.4470 N.3   195  ARG195     -0.1245
    111  CA        12.6070   35.4720   -0.4560 C.3   195  ARG195      0.1563
    112  C         13.0880   35.2020    0.9660 C.2   195  ARG195      0.2260
    113  O         13.1930   36.1280    1.7700 O.2   195  ARG195     -0.2867
    114  CB        13.4540   36.5860   -1.0530 C.3   195  ARG195      0.0307
    115  CG        13.4070   36.6770   -2.5690 C.3   195  ARG195      0.0489
    116  CD        14.2190   37.8740   -3.0440 C.3   195  ARG195      0.2205
    117  NE        15.5830   37.8660   -2.4990 N.pl3 195  ARG195     -0.0865
    118  CZ        16.4210   38.9020   -2.4860 C.cat 195  ARG195      0.5346
    119  NH1       16.0680   40.0850   -2.9860 N.pl3 195  ARG195      0.1354
    120  NH2       17.6290   38.7550   -1.9510 N.pl3 195  ARG195      0.1354
    121  N         16.0310   34.4150    2.1680 N.3   197  ASP197     -0.1225
    122  CA        17.2860   35.1130    2.5230 C.3   197  ASP197      0.1805
    123  C         17.0870   36.5450    3.0780 C.2   197  ASP197      0.2597
    124  O         18.0080   37.1030    3.6610 O.2   197  ASP197     -0.2718
    125  CB        18.2850   35.1200    1.3560 C.3   197  ASP197      0.1424
    126  CG        17.7630   35.8370    0.1310 C.2   197  ASP197      0.3668
    127  OD1       16.5490   35.7460   -0.1360 O.co2 197  ASP197     -0.2456
    128  OD2       18.5640   36.4770   -0.5800 O.co2 197  ASP197     -0.2456
    129  N         15.9020   37.1310    2.8840 N.am  198  LEU198     -0.1979
    130  CA        15.5340   38.4140    3.5110 C.3   198  LEU198      0.1596
    131  C         14.8200   38.2540    4.8570 C.2   198  LEU198      0.2287
    132  O         14.5020   39.2470    5.5110 O.2   198  LEU198     -0.2864
    133  CB        14.6800   39.2650    2.5590 C.3   198  LEU198      0.0297
    134  CG        15.2990   39.6280    1.2020 C.3   198  LEU198      0.0022
    135  CD1       14.3390   40.4960    0.3970 C.3   198  LEU198      0.0001
    136  CD2       16.6440   40.3340    1.3450 C.3   198  LEU198      0.0001
    137  N         23.5610   32.1850    9.0920 N.3   231  ILE231     -0.1245
    138  CA        22.7280   33.2750    8.5700 C.3   231  ILE231      0.1561
    139  C         21.2290   32.9240    8.5460 C.2   231  ILE231      0.2260
    140  O         20.3840   33.7880    8.7780 O.2   231  ILE231     -0.2867
    141  CB        23.2170   33.7510    7.1730 C.3   231  ILE231      0.0252
    142  CG1       22.5070   35.0400    6.7310 C.3   231  ILE231      0.0019
    143  CG2       23.0220   32.6790    6.1060 C.3   231  ILE231      0.0019
    144  CD1       22.6370   36.2040    7.6920 C.3   231  ILE231      0.0001
    145  N         19.8070   33.2350   12.0020 N.3   234  SER234     -0.1202
    146  CA        19.5930   34.6570   12.2690 C.3   234  SER234      0.2020
    147  C         18.3360   35.1590   11.5690 C.2   234  SER234      0.2618
    148  O         17.4460   35.7200   12.2010 O.2   234  SER234     -0.2717
    149  CB        20.7940   35.4770   11.7990 C.3   234  SER234      0.2103
    150  OG        20.6260   36.8480   12.1210 O.3   234  SER234     -0.2182
    151  N         18.2690   34.9370   10.2610 N.am  235  MET235     -0.1979
    152  CA        17.1830   35.4770    9.4430 C.3   235  MET235      0.1605
    153  C         15.8340   34.7890    9.6320 C.2   235  MET235      0.2287
    154  O         14.7960   35.4430    9.5000 O.2   235  MET235     -0.2864
    155  CB        17.5850   35.4800    7.9660 C.3   235  MET235      0.0413
    156  CG        18.7380   36.4290    7.6550 C.3   235  MET235      0.0598
    157  SD        18.4780   38.1330    8.1910 S.3   235  MET235     -0.1393
    158  CE        17.2440   38.6130    7.0030 C.3   235  MET235      0.0692
@<TRIPOS>BOND
     1     5     2    1
     2     1     2    1
     3     2     3    1
     4     3     4    2
     5     3     6   am
     6     6     7    1
     7    20    18    1
     8    13    11   am
     9    12    11    2
    10    11    10    1
    11    19    18    1
    12     7    10    1
    13     7     8    1
    14    18    15    1
    15    14     8   am
    16    14    15    1
    17     8     9    2
    18    15    16    1
    19   116   115    1
    20   116   117    1
    21   119   118    1
    22    17    16    2
    23    16    21   am
    24   115   114    1
    25    21    22    1
    26   117   118    2
    27   118   120    1
    28    22    25    1
    29    22    23    1
    30    95    93   ar
    31    95    94   ar
    32    25    26    1
    33   114   111    1
    34    93    91   ar
    35    94    92   ar
    36    38    40   ar
    37    38    36   ar
    38    23    24    2
    39    23    27   am
    40   128   126   ar
    41    40    39   ar
    42   111   110    1
    43   111   112    1
    44    41    42    1
    45    35    36   ar
    46    35    33   ar
    47    36    34   ar
    48   127   126   ar
    49    91    92   ar
    50    91    90    1
    51    27    28    1
    52   126   125    1
    53    39    37   ar
    54   135   134    1
    55    33    32   ar
    56    34    37   ar
    57    34    32   ar
    58    29    28    1
    59    29    30    2
    60    90    87    1
    61    42    45    1
    62    42    43    1
    63    99    98    2
    64   112   113    2
    65    32    31    1
    66    28    31    1
    67   134   136    1
    68   134   133    1
    69   125   122    1
    70    87    88    1
    71    87    86    1
    72    43    44    2
    73    43    46   am
    74    81    80    2
    75    98    97    1
    76   121   122    1
    77    96    88   am
    78    96    97    1
    79    46    47    1
    80   122   123    1
    81   133   130    1
    82    88    89    2
    83    86    80   am
    84    80    79    1
    85    50    47    1
    86    50    51    1
    87   129   123   am
    88   129   130    1
    89    97   100    1
    90   100   101    1
    91   123   124    2
    92    53    51   ar
    93    53    55   ar
    94    47    48    1
    95   130   131    1
    96    51    52   ar
    97    82    79    1
    98    82    83    1
    99   102   101   ar
   100   102   104   ar
   101    79    78    1
   102    49    48    2
   103   101   103   ar
   104    55    54   ar
   105    48    56   am
   106    85    83   am
   107    83    84    2
   108   131   132    2
   109    52    54   ar
   110   104   105   ar
   111    56    57    1
   112   103   105   ar
   113   103   106   ar
   114    58    59    2
   115    58    57    1
   116   143   141    1
   117   105   107   ar
   118   106   108   ar
   119    57    60    1
   120    72    71    1
   121    72    73    2
   122    71    70    1
   123    71    74    1
   124   142   141    1
   125   142   144    1
   126    76    74    1
   127   158   157    1
   128   141   138    1
   129    74    75    1
   130   107   109   ar
   131    75    77    1
   132   156   155    1
   133   156   157    1
   134   108   109   ar
   135    64    65    2
   136    64    63    1
   137    60    61    1
   138   155   152    1
   139    68    66    1
   140   139   138    1
   141   139   140    2
   142   138   137    1
   143    66    63    1
   144    66    67    1
   145    62    63    1
   146   152   153    1
   147   152   151    1
   148   154   153    2
   149    69    67    1
   150   151   147   am
   151   147   148    2
   152   147   146    1
   153   149   150    1
   154   149   146    1
   155   145   146    1
