@<TRIPOS>MOLECULE
tmp/5ezuA00.pdb
 128 116 0 0 0
SMALL
GASTEIGER

@<TRIPOS>ATOM
      1  N        -18.4990  -12.0070   46.4550 N.3     3  PHE3       -0.1227
      2  CA       -17.6060  -11.6460   45.3600 C.3     3  PHE3        0.1736
      3  C        -16.4120  -12.5740   45.3330 C.2     3  PHE3        0.2595
      4  O        -16.0570  -13.1800   46.3430 O.2     3  PHE3       -0.2718
      5  CB       -17.1460  -10.1810   45.4640 C.3     3  PHE3        0.0547
      6  CG       -16.1250   -9.9250   46.5370 C.ar    3  PHE3       -0.0202
      7  CD1      -14.7680  -10.0330   46.2620 C.ar    3  PHE3       -0.0042
      8  CD2      -16.5150   -9.5500   47.8130 C.ar    3  PHE3       -0.0042
      9  CE1      -13.8190   -9.8010   47.2370 C.ar    3  PHE3       -0.0003
     10  CE2      -15.5740   -9.3100   48.7960 C.ar    3  PHE3       -0.0003
     11  CZ       -14.2190   -9.4430   48.5100 C.ar    3  PHE3       -0.0000
     12  N        -15.7930  -12.6670   44.1620 N.am    4  ASP4       -0.1960
     13  CA       -14.5780  -13.4460   43.9860 C.3     4  ASP4        0.1840
     14  C        -13.7220  -12.8440   42.8800 C.2     4  ASP4        0.2621
     15  O        -14.1150  -12.8520   41.7140 O.2     4  ASP4       -0.2715
     16  CB       -14.9190  -14.9040   43.6660 C.3     4  ASP4        0.1450
     17  CG       -13.6860  -15.7970   43.6400 C.2     4  ASP4        0.3671
     18  OD1      -12.5940  -15.4500   44.2150 O.co2   4  ASP4       -0.2456
     19  OD2      -13.8160  -16.9330   43.1640 O.co2   4  ASP4       -0.2456
     20  N        -12.5550  -12.3200   43.2480 N.am    5  ILE5       -0.1977
     21  CA       -11.6400  -11.7440   42.2650 C.3     5  ILE5        0.1596
     22  C        -10.3210  -12.4870   42.3140 C.2     5  ILE5        0.2287
     23  O        -10.0090  -13.1220   43.3150 O.2     5  ILE5       -0.2864
     24  CB       -11.4310  -10.2320   42.4910 C.3     5  ILE5        0.0276
     25  CG1      -10.8500   -9.9630   43.8750 C.3     5  ILE5        0.0022
     26  CG2      -12.7480   -9.4730   42.2470 C.3     5  ILE5        0.0022
     27  CD1      -10.5730   -8.4920   44.1470 C.3     5  ILE5        0.0001
     28  N         -2.5960   -7.0090   44.0300 N.3    13  ILE13      -0.1245
     29  CA        -3.8790   -6.3200   44.2360 C.3    13  ILE13       0.1561
     30  C         -3.6430   -5.1190   45.1410 C.2    13  ILE13       0.2260
     31  O         -3.0750   -5.2500   46.2220 O.2    13  ILE13      -0.2867
     32  CB        -4.9210   -7.2670   44.8310 C.3    13  ILE13       0.0252
     33  CG1       -5.1520   -8.4470   43.8760 C.3    13  ILE13       0.0019
     34  CG2       -6.2250   -6.5430   45.1010 C.3    13  ILE13       0.0019
     35  CD1       -5.9900   -9.5500   44.4830 C.3    13  ILE13       0.0001
     36  N         -5.3790   -2.1590   47.2290 N.3    15  ALA15      -0.1245
     37  CA        -6.6390   -1.6460   47.7900 C.3    15  ALA15       0.1562
     38  C         -6.3930   -0.4510   48.7020 C.2    15  ALA15       0.2260
     39  O         -5.6360   -0.5400   49.6600 O.2    15  ALA15      -0.2867
     40  CB        -7.3700   -2.7440   48.5680 C.3    15  ALA15       0.0290
     41  N         -8.0700    2.1680   51.3110 N.3    17  VAL17      -0.1245
     42  CA        -9.1800    2.1270   52.2570 C.3    17  VAL17       0.1561
     43  C         -9.2650    3.3990   53.0850 C.2    17  VAL17       0.2260
     44  O         -8.2580    3.8650   53.6020 O.2    17  VAL17      -0.2867
     45  CB        -9.0510    0.9080   53.1890 C.3    17  VAL17       0.0252
     46  CG1      -10.3250    0.7580   54.0080 C.3    17  VAL17       0.0019
     47  CG2       -8.7650   -0.3540   52.3750 C.3    17  VAL17       0.0019
     48  N        -13.5150    1.7140   49.5690 N.3    28  ILE28      -0.1245
     49  CA       -12.3770    0.8960   49.1720 C.3    28  ILE28       0.1561
     50  C        -12.1910    1.0430   47.6680 C.2    28  ILE28       0.2260
     51  O        -13.1010    0.7400   46.8990 O.2    28  ILE28      -0.2867
     52  CB       -12.5720   -0.5830   49.5340 C.3    28  ILE28       0.0252
     53  CG1      -12.7510   -0.7670   51.0400 C.3    28  ILE28       0.0019
     54  CG2      -11.3890   -1.3970   49.0480 C.3    28  ILE28       0.0019
     55  CD1      -13.0780   -2.2020   51.4180 C.3    28  ILE28       0.0001
     56  N        -10.0070   -0.3580   44.6790 N.3    30  ASN30      -0.1240
     57  CA        -9.1790   -1.5260   44.3680 C.3    30  ASN30       0.1653
     58  C         -8.7090   -1.5210   42.9190 C.2    30  ASN30       0.2266
     59  O         -9.5040   -1.3210   42.0040 O.2    30  ASN30      -0.2867
     60  CB        -9.9430   -2.8240   44.6100 C.3    30  ASN30       0.1155
     61  CG       -10.6690   -2.8410   45.9170 C.2    30  ASN30       0.2627
     62  OD1      -10.1520   -3.3490   46.9110 O.2    30  ASN30      -0.2716
     63  ND2      -11.8890   -2.3140   45.9280 N.am   30  ASN30      -0.0877
     64  N        -12.1040   -1.1320   40.8510 N.3    37  TYR37      -0.1241
     65  CA       -13.3940   -1.2470   41.5250 C.3    37  TYR37       0.1605
     66  C        -13.4670   -0.2000   42.6170 C.2    37  TYR37       0.2264
     67  O        -12.5490   -0.0950   43.4310 O.2    37  TYR37      -0.2867
     68  CB       -13.5930   -2.6330   42.1410 C.3    37  TYR37       0.0534
     69  CG       -13.5460   -3.7530   41.1400 C.ar   37  TYR37      -0.0201
     70  CD1      -14.5820   -3.9430   40.2290 C.ar   37  TYR37      -0.0009
     71  CD2      -12.4600   -4.6100   41.0860 C.ar   37  TYR37      -0.0009
     72  CE1      -14.5340   -4.9660   39.3090 C.ar   37  TYR37       0.0417
     73  CE2      -12.4050   -5.6370   40.1670 C.ar   37  TYR37       0.0417
     74  CZ       -13.4430   -5.8110   39.2820 C.ar   37  TYR37       0.1957
     75  OH       -13.3880   -6.8350   38.3640 O.3    37  TYR37      -0.2866
     76  N        -15.7000    0.6000   45.8120 N.3    39  VAL39      -0.1245
     77  CA       -16.7000   -0.0160   46.6750 C.3    39  VAL39       0.1561
     78  C        -17.0280    0.9190   47.8360 C.2    39  VAL39       0.2260
     79  O        -16.1090    1.4000   48.4940 O.2    39  VAL39      -0.2867
     80  CB       -16.1750   -1.3540   47.1940 C.3    39  VAL39       0.0252
     81  CG1      -17.1960   -2.0290   48.0890 C.3    39  VAL39       0.0019
     82  CG2      -15.7580   -2.2320   46.0280 C.3    39  VAL39       0.0019
     83  N        -16.8000   -5.5900   55.5590 N.3    47  VAL47      -0.1245
     84  CA       -16.4470   -6.3820   54.3940 C.3    47  VAL47       0.1561
     85  C        -15.5400   -7.4950   54.9010 C.2    47  VAL47       0.2260
     86  O        -14.5190   -7.2470   55.5480 O.2    47  VAL47      -0.2867
     87  CB       -15.7880   -5.5490   53.2750 C.3    47  VAL47       0.0252
     88  CG1      -14.6330   -4.7280   53.7990 C.3    47  VAL47       0.0019
     89  CG2      -15.3380   -6.4460   52.1450 C.3    47  VAL47       0.0019
     90  N        -13.3240  -10.7140   53.9980 N.3    49  THR49      -0.1218
     91  CA       -12.6460  -11.2770   52.8380 C.3    49  THR49       0.1862
     92  C        -11.6840  -12.3870   53.2360 C.2    49  THR49       0.2287
     93  O        -11.2350  -12.4650   54.3760 O.2    49  THR49      -0.2866
     94  CB       -11.8540  -10.2090   52.0480 C.3    49  THR49       0.1770
     95  OG1      -10.6290   -9.9120   52.7270 O.3    49  THR49      -0.2211
     96  CG2      -12.6640   -8.9320   51.8770 C.3    49  THR49       0.0375
     97  N         -8.2160  -14.1030   51.6590 N.3    51  ILE51      -0.1245
     98  CA        -7.1240  -13.9110   50.7130 C.3    51  ILE51       0.1561
     99  C         -6.3010  -15.1820   50.6860 C.2    51  ILE51       0.2260
    100  O         -5.8460  -15.6340   51.7490 O.2    51  ILE51      -0.2867
    101  CB        -6.2400  -12.7290   51.1310 C.3    51  ILE51       0.0252
    102  CG1       -7.0780  -11.4520   51.1980 C.3    51  ILE51       0.0019
    103  CG2       -5.0550  -12.6020   50.1780 C.3    51  ILE51       0.0019
    104  CD1       -6.4180  -10.3840   52.0820 C.3    51  ILE51       0.0001
    105  N         -9.0970  -13.3170   46.1200 N.3    62  ILE62      -0.1245
    106  CA        -9.8310  -12.7220   47.2190 C.3    62  ILE62       0.1561
    107  C        -11.2940  -13.0340   47.0300 C.2    62  ILE62       0.2260
    108  O        -11.9010  -12.6800   46.0030 O.2    62  ILE62      -0.2867
    109  CB        -9.6250  -11.2170   47.3210 C.3    62  ILE62       0.0252
    110  CG1       -8.1330  -10.8930   47.4050 C.3    62  ILE62       0.0019
    111  CG2      -10.3380  -10.6900   48.5550 C.3    62  ILE62       0.0019
    112  CD1       -7.8660   -9.4290   47.6250 C.3    62  ILE62       0.0001
    113  N        -19.8660   -8.6900   50.7760 N.3    66  LEU66      -0.1245
    114  CA       -20.0870   -7.2610   50.9440 C.3    66  LEU66       0.1561
    115  C        -21.4040   -7.0050   51.6660 C.2    66  LEU66       0.2260
    116  O        -22.3110   -7.8310   51.6120 O.2    66  LEU66      -0.2867
    117  CB       -20.0820   -6.5700   49.5760 C.3    66  LEU66       0.0270
    118  CG       -18.7040   -6.5410   48.9190 C.3    66  LEU66       0.0019
    119  CD1      -18.8040   -6.1670   47.4600 C.3    66  LEU66       0.0001
    120  CD2      -17.8240   -5.5520   49.6570 C.3    66  LEU66       0.0001
    121  N        -21.0070   -0.1970   43.9350 N.3    72  ILE72      -0.1245
    122  CA       -19.8130   -0.6690   43.2490 C.3    72  ILE72       0.1561
    123  C        -19.6600    0.0190   41.8960 C.2    72  ILE72       0.2260
    124  O        -20.5880    0.0550   41.0920 O.2    72  ILE72      -0.2867
    125  CB       -19.8280   -2.1950   43.0670 C.3    72  ILE72       0.0252
    126  CG1      -20.0040   -2.8930   44.4160 C.3    72  ILE72       0.0019
    127  CG2      -18.5390   -2.6490   42.4020 C.3    72  ILE72       0.0019
    128  CD1      -19.8160   -4.3960   44.3520 C.3    72  ILE72       0.0001
@<TRIPOS>BOND
     1    75    74    1
     2    74    72   ar
     3    74    73   ar
     4    72    70   ar
     5    73    71   ar
     6    70    69   ar
     7    64    65    1
     8    71    69   ar
     9   124   123    2
    10    69    68    1
    11    65    68    1
    12    65    66    1
    13    15    14    2
    14   123   122    1
    15    59    58    2
    16    26    24    1
    17    21    22    1
    18    21    24    1
    19    21    20    1
    20    22    23    2
    21   127   125    1
    22    24    25    1
    23    66    67    2
    24    14    20   am
    25    14    13    1
    26    58    57    1
    27   125   122    1
    28   125   126    1
    29    19    17   ar
    30   122   121    1
    31    17    16    1
    32    17    18   ar
    33    16    13    1
    34    25    27    1
    35    33    35    1
    36    33    32    1
    37    13    12    1
    38    28    29    1
    39    12     3   am
    40    29    32    1
    41    29    30    1
    42   128   126    1
    43    57    60    1
    44    57    56    1
    45    60    61    1
    46    32    34    1
    47    30    31    2
    48     3     2    1
    49     3     4    2
    50     2     5    1
    51     2     1    1
    52     5     6    1
    53    76    77    1
    54    61    63   am
    55    61    62    2
    56   108   107    2
    57    82    80    1
    58   105   106    1
    59     7     6   ar
    60     7     9   ar
    61     6     8   ar
    62    77    80    1
    63    77    78    1
    64    51    50    2
    65   107   106    1
    66    80    81    1
    67   106   109    1
    68    36    37    1
    69     9    11   ar
    70   109   110    1
    71   109   111    1
    72   110   112    1
    73   119   118    1
    74    50    49    1
    75    37    40    1
    76    37    38    1
    77     8    10   ar
    78    78    79    2
    79    11    10   ar
    80    38    39    2
    81   118   117    1
    82   118   120    1
    83    54    52    1
    84    49    52    1
    85    49    48    1
    86    52    53    1
    87   117   114    1
    88   103   101    1
    89    99    98    1
    90    99   100    2
    91    98   101    1
    92    98    97    1
    93   113   114    1
    94   114   115    1
    95    53    55    1
    96   101   102    1
    97   102   104    1
    98    41    42    1
    99   116   115    2
   100    96    94    1
   101    94    95    1
   102    94    91    1
   103    89    87    1
   104    42    43    1
   105    42    45    1
   106    47    45    1
   107    91    92    1
   108    91    90    1
   109    43    44    2
   110    45    46    1
   111    92    93    2
   112    87    88    1
   113    87    84    1
   114    84    85    1
   115    84    83    1
   116    85    86    2
