@<TRIPOS>MOLECULE
tmp/5ezvC01.pdb
 92 84 0 0 0
SMALL
GASTEIGER

@<TRIPOS>ATOM
      1  N        162.0670  -34.6660   80.9490 N.3     2  ARG2       -0.1231
      2  CA       162.1080  -35.8010   80.0210 C.3     2  ARG2        0.1694
      3  C        160.9350  -35.7910   79.0380 C.2     2  ARG2        0.2591
      4  O        159.8390  -35.3460   79.3880 O.2     2  ARG2       -0.2718
      5  CB       162.1480  -37.1280   80.7940 C.3     2  ARG2        0.0321
      6  CG       163.4180  -37.2900   81.6250 C.3     2  ARG2        0.0489
      7  CD       164.7130  -37.3220   80.8190 C.3     2  ARG2        0.2205
      8  NE       164.6440  -38.3710   79.7900 N.pl3   2  ARG2       -0.0865
      9  CZ       164.9220  -39.6310   79.9920 C.cat   2  ARG2        0.5346
     10  NH1      165.3740  -40.0600   81.1660 N.pl3   2  ARG2        0.1354
     11  NH2      164.7730  -40.5270   79.0430 N.pl3   2  ARG2        0.1354
     12  N        161.1740  -36.2810   77.8080 N.am    3  VAL3       -0.1980
     13  CA       160.1650  -36.3520   76.7460 C.3     3  VAL3        0.1595
     14  C        159.2040  -37.5340   76.9630 C.2     3  VAL3        0.2287
     15  O        159.6330  -38.6910   76.9620 O.2     3  VAL3       -0.2864
     16  CB       160.7660  -36.2550   75.3090 C.3     3  VAL3        0.0276
     17  CG1      161.8870  -37.2690   75.0780 C.3     3  VAL3        0.0022
     18  CG2      159.6890  -36.3730   74.2370 C.3     3  VAL3        0.0022
     19  N        160.0780  -41.4180   76.0650 N.3    10  LEU10      -0.1231
     20  CA       160.8080  -41.7310   74.8350 C.3    10  LEU10       0.1693
     21  C        162.3170  -41.7130   75.0750 C.2    10  LEU10       0.2592
     22  O        162.8600  -40.6990   75.5200 O.2    10  LEU10      -0.2718
     23  CB       160.4100  -40.7780   73.6880 C.3    10  LEU10       0.0284
     24  CG       158.9550  -40.8520   73.2020 C.3    10  LEU10       0.0019
     25  CD1      158.5610  -39.5880   72.4710 C.3    10  LEU10       0.0001
     26  CD2      158.7250  -42.0560   72.3100 C.3    10  LEU10       0.0001
     27  N        162.9640  -42.8470   74.8070 N.am   11  GLY11      -0.1957
     28  CA       164.4000  -43.0290   74.9950 C.3    11  GLY11       0.1869
     29  C        165.1850  -43.1830   73.7090 C.2    11  GLY11       0.2309
     30  O        164.9370  -42.4640   72.7380 O.2    11  GLY11      -0.2863
     31  N        160.4920  -43.0290   62.3360 N.3    21  LYS21      -0.1245
     32  CA       161.5730  -43.3470   63.2710 C.3    21  LYS21       0.1561
     33  C        161.0050  -44.1330   64.4550 C.2    21  LYS21       0.2260
     34  O        159.9780  -43.7420   65.0180 O.2    21  LYS21      -0.2867
     35  CB       162.2690  -42.0620   63.7520 C.3    21  LYS21       0.0271
     36  CG       163.6470  -42.2980   64.3580 C.3    21  LYS21       0.0035
     37  CD       164.1750  -41.0590   65.0660 C.3    21  LYS21       0.0206
     38  CE       165.2520  -40.3500   64.2820 C.3    21  LYS21       0.1093
     39  NZ       165.6050  -39.0450   64.9000 N.3    21  LYS21      -0.1314
     40  N        161.4910  -45.4230   68.2550 N.3    23  LYS23      -0.1245
     41  CA       162.1440  -45.1400   69.5350 C.3    23  LYS23       0.1561
     42  C        161.5420  -45.9740   70.6630 C.2    23  LYS23       0.2260
     43  O        160.3500  -46.2870   70.6270 O.2    23  LYS23      -0.2867
     44  CB       162.0240  -43.6470   69.8770 C.3    23  LYS23       0.0271
     45  CG       162.9290  -42.7440   69.0530 C.3    23  LYS23       0.0035
     46  CD       162.6600  -41.2800   69.3560 C.3    23  LYS23       0.0206
     47  CE       163.6880  -40.3580   68.7520 C.3    23  LYS23       0.1093
     48  NZ       164.9740  -40.3810   69.5030 N.3    23  LYS23      -0.1314
     49  N        157.2600  -43.0140   65.2190 N.3    38  ILE38      -0.1245
     50  CA       156.8160  -41.6340   65.0120 C.3    38  ILE38       0.1561
     51  C        156.6350  -41.3180   63.5280 C.2    38  ILE38       0.2260
     52  O        157.5840  -41.4210   62.7500 O.2    38  ILE38      -0.2867
     53  CB       157.6780  -40.5790   65.7610 C.3    38  ILE38       0.0252
     54  CG1      158.0630  -41.0600   67.1840 C.3    38  ILE38       0.0019
     55  CG2      156.9370  -39.2370   65.8120 C.3    38  ILE38       0.0019
     56  CD1      159.3270  -40.4380   67.7710 C.3    38  ILE38       0.0001
     57  N        155.5720  -38.3700   60.9170 N.3    40  ASN40      -0.1240
     58  CA       155.4410  -36.9260   60.7180 C.3    40  ASN40       0.1653
     59  C        154.2670  -36.5960   59.7970 C.2    40  ASN40       0.2266
     60  O        154.1780  -37.1420   58.6940 O.2    40  ASN40      -0.2867
     61  CB       156.7460  -36.3280   60.1880 C.3    40  ASN40       0.1155
     62  CG       156.8720  -34.8470   60.4330 C.2    40  ASN40       0.2627
     63  OD1      156.2510  -34.0210   59.7560 O.2    40  ASN40      -0.2716
     64  ND2      157.6920  -34.4770   61.4040 N.am   40  ASN40      -0.0877
     65  N        155.4680  -34.7740   56.4850 N.3    43  LYS43      -0.1245
     66  CA       156.1530  -35.7210   55.5990 C.3    43  LYS43       0.1561
     67  C        155.1580  -36.6020   54.8270 C.2    43  LYS43       0.2260
     68  O        155.3880  -36.8840   53.6490 O.2    43  LYS43      -0.2867
     69  CB       157.1490  -36.5810   56.3910 C.3    43  LYS43       0.0271
     70  CG       158.2610  -37.1270   55.5060 C.3    43  LYS43       0.0035
     71  CD       159.1970  -37.9730   56.3660 C.3    43  LYS43       0.0206
     72  CE       158.8130  -39.4360   56.5110 C.3    43  LYS43       0.1093
     73  NZ       157.5390  -39.6630   57.2590 N.3    43  LYS43      -0.1314
     74  N        152.7050  -34.6890   64.7610 N.3    80  ASP80      -0.1239
     75  CA       153.1140  -36.0810   64.5160 C.3    80  ASP80       0.1674
     76  C        152.1130  -37.1440   65.0060 C.2    80  ASP80       0.2266
     77  O        151.1920  -36.8310   65.7630 O.2    80  ASP80      -0.2867
     78  CB       154.4960  -36.3460   65.1500 C.3    80  ASP80       0.1410
     79  CG       155.5910  -35.3980   64.7060 C.2    80  ASP80       0.3668
     80  OD1      156.3060  -35.7310   63.7410 O.co2  80  ASP80      -0.2456
     81  OD2      155.7340  -34.3240   65.3290 O.co2  80  ASP80      -0.2456
     82  N        152.0320  -40.9420   66.9370 N.3    82  PHE82      -0.1241
     83  CA       152.8150  -41.8390   67.7870 C.3    82  PHE82       0.1605
     84  C        152.1890  -43.2300   67.8700 C.2    82  PHE82       0.2264
     85  O        151.2230  -43.4310   68.6080 O.2    82  PHE82      -0.2867
     86  CB       153.0310  -41.2200   69.1830 C.3    82  PHE82       0.0534
     87  CG       153.9000  -39.9840   69.1870 C.ar   82  PHE82      -0.0203
     88  CD1      153.3530  -38.7270   68.9520 C.ar   82  PHE82      -0.0042
     89  CD2      155.2640  -40.0740   69.4340 C.ar   82  PHE82      -0.0042
     90  CE1      154.1590  -37.5850   68.9510 C.ar   82  PHE82      -0.0003
     91  CE2      156.0680  -38.9300   69.4410 C.ar   82  PHE82      -0.0003
     92  CZ       155.5100  -37.6940   69.1960 C.ar   82  PHE82      -0.0000
@<TRIPOS>BOND
     1    68    67    2
     2    67    66    1
     3    70    71    1
     4    70    69    1
     5    66    69    1
     6    66    65    1
     7    71    72    1
     8    72    73    1
     9    60    59    2
    10    63    62    2
    11    59    58    1
    12    61    62    1
    13    61    58    1
    14    62    64   am
    15    58    57    1
    16    31    32    1
    17    52    51    2
    18    32    35    1
    19    32    33    1
    20    51    50    1
    21    80    79   ar
    22    35    36    1
    23    38    39    1
    24    38    37    1
    25    36    37    1
    26    33    34    2
    27    75    74    1
    28    75    76    1
    29    75    78    1
    30    79    78    1
    31    79    81   ar
    32    76    77    2
    33    50    49    1
    34    50    53    1
    35    53    55    1
    36    53    54    1
    37    82    83    1
    38    54    56    1
    39    83    84    1
    40    83    86    1
    41    84    85    2
    42    40    41    1
    43    47    46    1
    44    47    48    1
    45    90    88   ar
    46    90    92   ar
    47    88    87   ar
    48    45    46    1
    49    45    44    1
    50    86    87    1
    51    87    89   ar
    52    92    91   ar
    53    89    91   ar
    54    41    44    1
    55    41    42    1
    56    43    42    2
    57    26    24    1
    58    25    24    1
    59    30    29    2
    60    24    23    1
    61    23    20    1
    62    29    28    1
    63    18    16    1
    64    27    28    1
    65    27    21   am
    66    20    21    1
    67    20    19    1
    68    21    22    2
    69    17    16    1
    70    16    13    1
    71    13    14    1
    72    13    12    1
    73    15    14    2
    74    12     3   am
    75     3     4    2
    76     3     2    1
    77    11     9    1
    78     8     9    2
    79     8     7    1
    80     9    10    1
    81     2     5    1
    82     2     1    1
    83     5     6    1
    84     7     6    1
