@<TRIPOS>MOLECULE
tmp/5ezvE00.pdb
 118 115 0 0 0
SMALL
GASTEIGER

@<TRIPOS>ATOM
      1  N         83.5080    7.7660   37.9390 N.3    47  ARG47      -0.1245
      2  CA        82.1890    8.3860   38.0890 C.3    47  ARG47       0.1563
      3  C         81.0460    7.3690   38.0090 C.2    47  ARG47       0.2260
      4  O         79.9380    7.6580   38.4670 O.2    47  ARG47      -0.2867
      5  CB        82.0100    9.5310   37.0800 C.3    47  ARG47       0.0307
      6  CG        82.8630   10.7470   37.4230 C.3    47  ARG47       0.0489
      7  CD        83.1500   11.6310   36.2270 C.3    47  ARG47       0.2205
      8  NE        82.0340   12.5260   35.9160 N.pl3  47  ARG47      -0.0865
      9  CZ        82.1700   13.7460   35.4060 C.cat  47  ARG47       0.5346
     10  NH1       81.1000   14.4870   35.1510 N.pl3  47  ARG47       0.1354
     11  NH2       83.3760   14.2380   35.1510 N.pl3  47  ARG47       0.1354
     12  N         74.4140    8.6110   30.0970 N.3   127  HIS127     -0.1226
     13  CA        75.7160    9.2460   29.8820 C.3   127  HIS127      0.1752
     14  C         76.8780    8.2560   30.0120 C.2   127  HIS127      0.2595
     15  O         78.0060    8.5780   29.6280 O.2   127  HIS127     -0.2718
     16  CB        75.8950   10.4380   30.8360 C.3   127  HIS127      0.0759
     17  CG        74.7640   11.4190   30.7890 C.ar  127  HIS127      0.0818
     18  ND1       73.9260   11.6040   31.8730 N.ar  127  HIS127     -0.2268
     19  CD2       74.3470   12.2120   29.7740 C.ar  127  HIS127      0.1154
     20  CE1       73.0450   12.5140   31.4940 C.ar  127  HIS127      0.1986
     21  NE2       73.2620   12.9130   30.2410 N.ar  127  HIS127     -0.2212
     22  N         76.5950    7.0510   30.5460 N.am  128  ARG128     -0.1980
     23  CA        77.5720    5.9790   30.7520 C.3   128  ARG128      0.1597
     24  C         77.0660    4.6950   30.0870 C.2   128  ARG128      0.2287
     25  O         76.0210    4.1690   30.4800 O.2   128  ARG128     -0.2864
     26  CB        77.8340    5.7590   32.2610 C.3   128  ARG128      0.0334
     27  CG        78.2450    7.0140   33.0360 C.3   128  ARG128      0.0492
     28  CD        79.7230    7.3320   32.9100 C.3   128  ARG128      0.2205
     29  NE        79.9900    8.7490   33.1520 N.pl3 128  ARG128     -0.0865
     30  CZ        81.2020    9.2710   33.3070 C.cat 128  ARG128      0.5346
     31  NH1       81.3480   10.5720   33.5110 N.pl3 128  ARG128      0.1354
     32  NH2       82.2780    8.4960   33.2590 N.pl3 128  ARG128      0.1354
     33  N         81.3650    7.2850   26.9160 N.3   144  THR144     -0.1203
     34  CA        80.7840    8.5800   27.2770 C.3   144  THR144      0.1994
     35  C         80.7210    9.4790   26.0390 C.2   144  THR144      0.2618
     36  O         81.3780    9.1860   25.0370 O.2   144  THR144     -0.2717
     37  CB        81.6020    9.2550   28.3960 C.3   144  THR144      0.1784
     38  OG1       82.9760    9.3310   28.0090 O.3   144  THR144     -0.2211
     39  CG2       81.4670    8.5520   29.7370 C.3   144  THR144      0.0376
     40  N         79.9460   10.5810   26.1190 N.am  145  HIS145     -0.1961
     41  CA        79.8060   11.5700   25.0460 C.3   145  HIS145      0.1787
     42  C         81.1390   12.2940   24.7870 C.2   145  HIS145      0.2620
     43  O         81.4460   12.6130   23.6360 O.2   145  HIS145     -0.2715
     44  CB        78.7080   12.5900   25.3890 C.3   145  HIS145      0.0785
     45  CG        77.3160   12.0410   25.3320 C.ar  145  HIS145      0.0821
     46  ND1       76.7020   11.7550   24.1270 N.ar  145  HIS145     -0.2267
     47  CD2       76.4460   11.7840   26.3370 C.ar  145  HIS145      0.1154
     48  CE1       75.4940   11.3140   24.4340 C.ar  145  HIS145      0.1986
     49  NE2       75.2930   11.3140   25.7520 N.ar  145  HIS145     -0.2212
     50  N         81.9240   12.5320   25.8650 N.am  146  LYS146     -0.1977
     51  CA        83.2280   13.2000   25.8490 C.3   146  LYS146      0.1596
     52  C         84.2680   12.4210   25.0360 C.2   146  LYS146      0.2287
     53  O         84.9790   13.0270   24.2350 O.2   146  LYS146     -0.2864
     54  CB        83.7250   13.4380   27.2860 C.3   146  LYS146      0.0298
     55  CG        84.8080   14.5130   27.4030 C.3   146  LYS146      0.0038
     56  CD        85.1690   14.8330   28.8550 C.3   146  LYS146      0.0206
     57  CE        86.2350   13.9260   29.4260 C.3   146  LYS146      0.1093
     58  NZ        86.5550   14.2740   30.8350 N.3   146  LYS146     -0.1314
     59  N         71.3520   17.2340   34.5300 N.3   202  SER202     -0.1202
     60  CA        72.7190   16.9070   34.9380 C.3   202  SER202      0.2020
     61  C         73.4520   18.0380   35.6620 C.2   202  SER202      0.2618
     62  O         74.3140   17.7580   36.4970 O.2   202  SER202     -0.2717
     63  CB        73.5280   16.4240   33.7420 C.3   202  SER202      0.2103
     64  OG        73.0200   15.1900   33.2650 O.3   202  SER202     -0.2182
     65  N         73.1280   19.3060   35.3410 N.am  203  ALA203     -0.1979
     66  CA        73.7700   20.4690   35.9580 C.3   203  ALA203      0.1597
     67  C         72.8020   21.6030   36.2800 C.2   203  ALA203      0.2287
     68  O         71.7770   21.7520   35.6110 O.2   203  ALA203     -0.2864
     69  CB        74.8940   20.9770   35.0740 C.3   203  ALA203      0.0319
     70  N         81.8170   19.1910   30.4200 N.3   274  HIS274     -0.1226
     71  CA        80.6040   18.5990   29.8530 C.3   274  HIS274      0.1752
     72  C         79.6680   19.5770   29.1390 C.2   274  HIS274      0.2595
     73  O         78.9520   19.1600   28.2260 O.2   274  HIS274     -0.2718
     74  CB        79.8560   17.7620   30.8990 C.3   274  HIS274      0.0759
     75  CG        80.6270   16.5630   31.3530 C.ar  274  HIS274      0.0818
     76  ND1       80.6300   15.3900   30.6210 N.ar  274  HIS274     -0.2268
     77  CD2       81.4110   16.4010   32.4430 C.ar  274  HIS274      0.1154
     78  CE1       81.4080   14.5530   31.2880 C.ar  274  HIS274      0.1986
     79  NE2       81.9000   15.1160   32.3910 N.ar  274  HIS274     -0.2212
     80  N         79.6630   20.8640   29.5450 N.am  275  ARG275     -0.1980
     81  CA        78.8010   21.8890   28.9410 C.3   275  ARG275      0.1597
     82  C         79.3450   23.3160   29.0150 C.2   275  ARG275      0.2287
     83  O         80.1250   23.6400   29.9130 O.2   275  ARG275     -0.2864
     84  CB        77.3570   21.8170   29.4860 C.3   275  ARG275      0.0334
     85  CG        77.2370   21.9320   31.0040 C.3   275  ARG275      0.0492
     86  CD        75.9810   21.2620   31.5360 C.3   275  ARG275      0.2205
     87  NE        75.9710   19.8100   31.3220 N.pl3 275  ARG275     -0.0865
     88  CZ        76.5720   18.9210   32.1100 C.cat 275  ARG275      0.5346
     89  NH1       77.2600   19.3210   33.1730 N.pl3 275  ARG275      0.1354
     90  NH2       76.5000   17.6260   31.8330 N.pl3 275  ARG275      0.1354
     91  N         75.6310   21.3700   25.6190 N.3   290  SER290     -0.1202
     92  CA        76.3700   20.2280   26.1660 C.3   290  SER290      0.2020
     93  C         76.9130   19.2930   25.0780 C.2   290  SER290      0.2619
     94  O         76.6140   19.4890   23.8990 O.2   290  SER290     -0.2717
     95  CB        75.4890   19.4550   27.1430 C.3   290  SER290      0.2103
     96  OG        74.3270   18.9560   26.5000 O.3   290  SER290     -0.2182
     97  N         77.7050   18.2730   25.4850 N.am  291  LEU291     -0.1965
     98  CA        78.3070   17.2710   24.5950 C.3   291  LEU291      0.1728
     99  C         77.2490   16.4320   23.8740 C.2   291  LEU291      0.2617
    100  O         77.4750   16.0280   22.7330 O.2   291  LEU291     -0.2715
    101  CB        79.2570   16.3340   25.3650 C.3   291  LEU291      0.0311
    102  CG        80.4260   16.9520   26.1360 C.3   291  LEU291      0.0022
    103  CD1       80.9350   15.9920   27.1800 C.3   291  LEU291      0.0001
    104  CD2       81.5640   17.3560   25.2130 C.3   291  LEU291      0.0001
    105  N         76.1080   16.1620   24.5470 N.am  292  SER292     -0.1936
    106  CA        74.9920   15.3810   24.0080 C.3   292  SER292      0.2055
    107  C         74.2850   16.1200   22.8700 C.2   292  SER292      0.2643
    108  O         73.9950   15.5030   21.8460 O.2   292  SER292     -0.2714
    109  CB        74.0020   15.0210   25.1120 C.3   292  SER292      0.2130
    110  OG        73.3490   16.1760   25.6110 O.3   292  SER292     -0.2179
    111  N         74.0280   17.4400   23.0460 N.am  293  ASP293     -0.1971
    112  CA        73.3860   18.3100   22.0510 C.3   293  ASP293      0.1709
    113  C         74.2480   18.4160   20.7900 C.2   293  ASP293      0.2293
    114  O         73.7160   18.3950   19.6790 O.2   293  ASP293     -0.2864
    115  CB        73.1260   19.7150   22.6320 C.3   293  ASP293      0.1436
    116  CG        72.2020   19.7680   23.8370 C.2   293  ASP293      0.3671
    117  OD1       71.1290   19.1240   23.7950 O.co2 293  ASP293     -0.2456
    118  OD2       72.5140   20.5140   24.7890 O.co2 293  ASP293     -0.2456
@<TRIPOS>BOND
     1   114   113    2
     2   113   112    1
     3   108   107    2
     4   112   115    1
     5   112   111    1
     6   115   116    1
     7   100    99    2
     8   107   111   am
     9   107   106    1
    10    43    42    2
    11   117   116   ar
    12   116   118   ar
    13    99   105   am
    14    99    98    1
    15    94    93    2
    16   106   105    1
    17   106   109    1
    18    46    48   ar
    19    46    45   ar
    20    53    52    2
    21    48    49   ar
    22    98   101    1
    23    98    97    1
    24    42    41    1
    25    42    50   am
    26    52    51    1
    27    36    35    2
    28    41    44    1
    29    41    40    1
    30    93    97   am
    31    93    92    1
    32   109   110    1
    33   104   102    1
    34    45    44    1
    35    45    47   ar
    36   101   102    1
    37    91    92    1
    38    49    47   ar
    39    51    50    1
    40    51    54    1
    41    35    40   am
    42    35    34    1
    43   102   103    1
    44    92    95    1
    45    96    95    1
    46    33    34    1
    47    34    37    1
    48    54    55    1
    49    55    56    1
    50    38    37    1
    51    73    72    2
    52    37    39    1
    53    56    57    1
    54    81    82    1
    55    81    84    1
    56    81    80    1
    57    82    83    2
    58    72    80   am
    59    72    71    1
    60    57    58    1
    61    84    85    1
    62    15    14    2
    63    19    21   ar
    64    19    17   ar
    65    71    70    1
    66    71    74    1
    67    13    14    1
    68    13    12    1
    69    13    16    1
    70    14    22   am
    71    24    25    2
    72    24    23    1
    73    21    20   ar
    74    22    23    1
    75    76    78   ar
    76    76    75   ar
    77    23    26    1
    78    17    16    1
    79    17    18   ar
    80    74    75    1
    81    85    86    1
    82    78    79   ar
    83    87    86    1
    84    87    88    2
    85    75    77   ar
    86    20    18   ar
    87    90    88    1
    88    88    89    1
    89    26    27    1
    90    79    77   ar
    91    28    27    1
    92    28    29    1
    93    29    30    2
    94    32    30    1
    95    64    63    1
    96    30    31    1
    97    63    60    1
    98    59    60    1
    99    60    61    1
   100    69    66    1
   101    10     9    1
   102    11     9    1
   103    65    61   am
   104    65    66    1
   105     9     8    2
   106    68    67    2
   107    61    62    2
   108     8     7    1
   109    66    67    1
   110     7     6    1
   111     5     6    1
   112     5     2    1
   113     1     2    1
   114     3     2    1
   115     3     4    2
