@<TRIPOS>MOLECULE
tmp/5ezyB03.pdb
 146 138 0 0 0
SMALL
GASTEIGER

@<TRIPOS>ATOM
      1  N        -11.5640  -63.2300   18.5730 N.3    18  LYS18      -0.1245
      2  CA       -10.3630  -63.5900   19.3170 C.3    18  LYS18       0.1561
      3  C        -10.7130  -64.4810   20.5100 C.2    18  LYS18       0.2260
      4  O        -10.0130  -65.4510   20.7920 O.2    18  LYS18      -0.2867
      5  CB        -9.6350  -62.3320   19.7920 C.3    18  LYS18       0.0271
      6  CG        -8.1270  -62.3590   19.5920 C.3    18  LYS18       0.0035
      7  CD        -7.7580  -62.3070   18.1160 C.3    18  LYS18       0.0206
      8  CE        -6.3000  -61.9230   17.9160 C.3    18  LYS18       0.1093
      9  NZ        -6.0460  -60.4940   18.2570 N.3    18  LYS18      -0.1314
     10  N          0.3260  -52.0940   26.9590 N.3   210  CYS210     -0.1235
     11  CA         1.1200  -52.3900   25.7760 C.3   210  CYS210      0.1677
     12  C          2.3580  -51.5000   25.7090 C.2   210  CYS210      0.2270
     13  O          3.4410  -51.9600   25.3520 O.2   210  CYS210     -0.2867
     14  CB         0.2790  -52.2200   24.5100 C.3   210  CYS210      0.0956
     15  SG        -0.8680  -53.5810   24.1940 S.3   210  CYS210     -0.0801
     16  N          4.5470  -53.8780   28.3870 N.3   214  LEU214     -0.1245
     17  CA         4.9400  -54.7870   27.3110 C.3   214  LEU214      0.1561
     18  C          5.8900  -54.1400   26.3010 C.2   214  LEU214      0.2260
     19  O          6.2910  -54.7760   25.3270 O.2   214  LEU214     -0.2867
     20  CB         3.6980  -55.3130   26.5900 C.3   214  LEU214      0.0270
     21  CG         2.7350  -56.1340   27.4520 C.3   214  LEU214      0.0019
     22  CD1        1.4790  -56.4700   26.6690 C.3   214  LEU214      0.0001
     23  CD2        3.3970  -57.4080   27.9600 C.3   214  LEU214      0.0001
     24  N          5.7080  -52.0920   23.9170 N.3   216  LEU216     -0.1245
     25  CA         5.3060  -51.8750   22.5260 C.3   216  LEU216      0.1561
     26  C          5.1230  -50.3880   22.2340 C.2   216  LEU216      0.2260
     27  O          4.2030  -49.7570   22.7520 O.2   216  LEU216     -0.2867
     28  CB         4.0060  -52.6150   22.2110 C.3   216  LEU216      0.0270
     29  CG         3.9630  -54.1240   22.4480 C.3   216  LEU216      0.0019
     30  CD1        2.5850  -54.6380   22.0830 C.3   216  LEU216      0.0001
     31  CD2        5.0370  -54.8510   21.6530 C.3   216  LEU216      0.0001
     32  N         -1.2710  -51.9290   17.9720 N.3   220  THR220     -0.1218
     33  CA        -2.4500  -51.9560   17.1150 C.3   220  THR220      0.1862
     34  C         -3.6610  -52.4100   17.9250 C.2   220  THR220      0.2287
     35  O         -3.5180  -52.8640   19.0610 O.2   220  THR220     -0.2866
     36  CB        -2.2650  -52.9050   15.9210 C.3   220  THR220      0.1770
     37  OG1       -2.0540  -54.2390   16.3990 O.3   220  THR220     -0.2211
     38  CG2       -1.0780  -52.4770   15.0710 C.3   220  THR220      0.0375
     39  N         -5.2880  -54.9740   17.2910 N.3   222  GLY222     -0.1210
     40  CA        -5.0710  -56.4040   17.4100 C.3   222  GLY222      0.1956
     41  C         -4.2650  -56.7610   18.6390 C.2   222  GLY222      0.2611
     42  O         -4.5310  -57.7680   19.2940 O.2   222  GLY222     -0.2717
     43  N         -3.2770  -55.9380   18.9630 N.am  223  ASP223     -0.1973
     44  CA        -2.4700  -56.1910   20.1430 C.3   223  ASP223      0.1709
     45  C         -3.2530  -55.8630   21.4150 C.2   223  ASP223      0.2293
     46  O         -3.0970  -56.5370   22.4350 O.2   223  ASP223     -0.2864
     47  CB        -1.1660  -55.4000   20.0600 C.3   223  ASP223      0.1436
     48  CG        -0.2440  -55.9460   18.9950 C.2   223  ASP223      0.3671
     49  OD1       -0.2870  -57.1760   18.7720 O.co2 223  ASP223     -0.2456
     50  OD2        0.5010  -55.1570   18.3760 O.co2 223  ASP223     -0.2456
     51  N         -5.4790  -58.9370   22.1670 N.3   226  HIS226     -0.1226
     52  CA        -4.8530  -60.1100   22.7480 C.3   226  HIS226      0.1752
     53  C         -5.0140  -60.0620   24.2620 C.2   226  HIS226      0.2595
     54  O         -5.2690  -61.0820   24.8990 O.2   226  HIS226     -0.2718
     55  CB        -3.3760  -60.1970   22.3710 C.3   226  HIS226      0.0759
     56  CG        -2.7290  -61.4740   22.8020 C.ar  226  HIS226      0.0818
     57  ND1       -2.7100  -62.6020   22.0100 N.ar  226  HIS226     -0.2268
     58  CD2       -2.1000  -61.8120   23.9530 C.ar  226  HIS226      0.1154
     59  CE1       -2.0850  -63.5750   22.6480 C.ar  226  HIS226      0.1986
     60  NE2       -1.7060  -63.1220   23.8300 N.ar  226  HIS226     -0.2212
     61  N         -4.8740  -58.8670   24.8290 N.am  227  LEU227     -0.1980
     62  CA        -5.0440  -58.6780   26.2640 C.3   227  LEU227      0.1596
     63  C         -6.4830  -58.9610   26.6770 C.2   227  LEU227      0.2287
     64  O         -6.7320  -59.5740   27.7140 O.2   227  LEU227     -0.2864
     65  CB        -4.6570  -57.2550   26.6760 C.3   227  LEU227      0.0297
     66  CG        -3.1980  -56.8360   26.4910 C.3   227  LEU227      0.0022
     67  CD1       -3.0060  -55.4120   26.9840 C.3   227  LEU227      0.0001
     68  CD2       -2.2450  -57.7810   27.2130 C.3   227  LEU227      0.0001
     69  N         -7.4330  -62.7790   26.3230 N.3   230  ALA230     -0.1245
     70  CA        -6.7630  -63.5130   27.3870 C.3   230  ALA230      0.1562
     71  C         -7.5200  -63.3130   28.6940 C.2   230  ALA230      0.2260
     72  O         -7.7440  -64.2600   29.4490 O.2   230  ALA230     -0.2867
     73  CB        -5.3210  -63.0590   27.5280 C.3   230  ALA230      0.0290
     74  N         -5.1160  -59.1410   34.7730 N.3   269  PHE269     -0.1241
     75  CA        -4.4720  -60.3510   34.2760 C.3   269  PHE269      0.1605
     76  C         -2.9880  -60.3760   34.6350 C.2   269  PHE269      0.2264
     77  O         -2.3350  -59.3350   34.7060 O.2   269  PHE269     -0.2867
     78  CB        -4.6600  -60.4660   32.7600 C.3   269  PHE269      0.0534
     79  CG        -4.1340  -61.7470   32.1780 C.ar  269  PHE269     -0.0203
     80  CD1       -2.8750  -61.7930   31.6080 C.ar  269  PHE269     -0.0042
     81  CD2       -4.8950  -62.9070   32.2060 C.ar  269  PHE269     -0.0042
     82  CE1       -2.3820  -62.9670   31.0730 C.ar  269  PHE269     -0.0003
     83  CE2       -4.4050  -64.0880   31.6720 C.ar  269  PHE269     -0.0003
     84  CZ        -3.1470  -64.1150   31.1040 C.ar  269  PHE269     -0.0000
     85  N          0.5770  -63.3890   34.2560 N.3   271  PRO271     -0.2102
     86  CA         1.6290  -62.3760   34.1180 C.3   271  PRO271      0.1504
     87  C          1.5140  -61.5560   32.8340 C.2   271  PRO271      0.2576
     88  O          0.9560  -62.0320   31.8460 O.2   271  PRO271     -0.2718
     89  CB         2.9070  -63.2140   34.1060 C.3   271  PRO271      0.0282
     90  CG         2.4930  -64.4840   33.4470 C.3   271  PRO271      0.0208
     91  CD         1.0560  -64.7240   33.8540 C.3   271  PRO271      0.0893
     92  N          2.0350  -60.3330   32.8700 N.am  272  LEU272     -0.1966
     93  CA         2.2020  -59.5100   31.6760 C.3   272  LEU272      0.1728
     94  C          3.6860  -59.2060   31.4980 C.2   272  LEU272      0.2617
     95  O          4.2060  -58.2510   32.0760 O.2   272  LEU272     -0.2715
     96  CB         1.3980  -58.2150   31.7850 C.3   272  LEU272      0.0311
     97  CG        -0.1240  -58.3640   31.8110 C.3   272  LEU272      0.0022
     98  CD1       -0.7730  -57.0550   32.2310 C.3   272  LEU272      0.0001
     99  CD2       -0.6410  -58.8070   30.4520 C.3   272  LEU272      0.0001
    100  N          4.3610  -60.0270   30.6990 N.am  273  THR273     -0.1937
    101  CA         5.8170  -59.9790   30.5940 C.3   273  THR273      0.2028
    102  C          6.2840  -59.5030   29.2240 C.2   273  THR273      0.2643
    103  O          5.9010  -60.0630   28.1960 O.2   273  THR273     -0.2714
    104  CB         6.4350  -61.3650   30.8690 C.3   273  THR273      0.1808
    105  OG1        5.7740  -61.9730   31.9850 O.3   273  THR273     -0.2208
    106  CG2        7.9220  -61.2410   31.1640 C.3   273  THR273      0.0379
    107  N          7.1170  -58.4680   29.2180 N.am  274  SER274     -0.1935
    108  CA         7.7310  -57.9860   27.9870 C.3   274  SER274      0.2055
    109  C          8.6640  -59.0510   27.4210 C.2   274  SER274      0.2642
    110  O          9.2270  -59.8500   28.1700 O.2   274  SER274     -0.2714
    111  CB         8.5000  -56.6880   28.2370 C.3   274  SER274      0.2130
    112  OG         9.4700  -56.8600   29.2550 O.3   274  SER274     -0.2179
    113  N          8.8250  -59.0640   26.1020 N.am  275  ARG275     -0.1977
    114  CA         9.6850  -60.0500   25.4570 C.3   275  ARG275      0.1597
    115  C         11.1470  -59.8120   25.8220 C.2   275  ARG275      0.2287
    116  O         11.5440  -58.6870   26.1310 O.2   275  ARG275     -0.2864
    117  CB         9.5100  -60.0150   23.9370 C.3   275  ARG275      0.0334
    118  CG         8.9490  -61.3030   23.3440 C.3   275  ARG275      0.0492
    119  CD         7.4490  -61.4240   23.5630 C.3   275  ARG275      0.2205
    120  NE         7.0750  -61.4670   24.9780 N.pl3 275  ARG275     -0.0865
    121  CZ         6.8260  -62.5790   25.6700 C.cat 275  ARG275      0.5346
    122  NH1        6.9060  -63.7750   25.0960 N.pl3 275  ARG275      0.1354
    123  NH2        6.4910  -62.4950   26.9510 N.pl3 275  ARG275      0.1354
    124  N         -2.8800  -71.0360   26.8940 N.3   358  ARG358     -0.1231
    125  CA        -1.7980  -71.2650   25.9430 C.3   358  ARG358      0.1694
    126  C         -0.6140  -70.3440   26.2200 C.2   358  ARG358      0.2593
    127  O         -0.7870  -69.1460   26.4420 O.2   358  ARG358     -0.2718
    128  CB        -2.2890  -71.0600   24.5040 C.3   358  ARG358      0.0321
    129  CG        -1.1650  -70.9430   23.4680 C.3   358  ARG358      0.0489
    130  CD        -1.6970  -70.6640   22.0740 C.3   358  ARG358      0.2205
    131  NE        -1.9310  -71.8840   21.3080 N.pl3 358  ARG358     -0.0865
    132  CZ        -2.2390  -71.9050   20.0140 C.cat 358  ARG358      0.5346
    133  NH1       -2.3520  -70.7720   19.3340 N.pl3 358  ARG358      0.1354
    134  NH2       -2.4330  -73.0620   19.3970 N.pl3 358  ARG358      0.1354
    135  N          0.5870  -70.9130   26.2000 N.am  359  GLY359     -0.1942
    136  CA         1.8100  -70.1300   26.2490 C.3   359  GLY359      0.2014
    137  C          2.2410  -69.7050   27.6380 C.2   359  GLY359      0.2638
    138  O          3.2220  -68.9750   27.7890 O.2   359  GLY359     -0.2714
    139  N          1.5090  -70.1550   28.6520 N.am  360  LEU360     -0.1977
    140  CA         1.8590  -69.8790   30.0410 C.3   360  LEU360      0.1596
    141  C          1.6840  -71.1440   30.8700 C.2   360  LEU360      0.2287
    142  O          0.7300  -71.8960   30.6710 O.2   360  LEU360     -0.2864
    143  CB         0.9950  -68.7510   30.6110 C.3   360  LEU360      0.0297
    144  CG         1.0810  -67.3870   29.9240 C.3   360  LEU360      0.0022
    145  CD1       -0.1020  -66.5240   30.3280 C.3   360  LEU360      0.0001
    146  CD2        2.3890  -66.6870   30.2600 C.3   360  LEU360      0.0001
@<TRIPOS>BOND
     1    38    36    1
     2    36    37    1
     3    36    33    1
     4    33    34    1
     5    33    32    1
     6    39    40    1
     7    40    41    1
     8     8     7    1
     9     8     9    1
    10    34    35    2
    11     7     6    1
    12    50    48   ar
    13     1     2    1
    14    41    43   am
    15    41    42    2
    16    49    48   ar
    17    43    44    1
    18    48    47    1
    19     2     5    1
    20     2     3    1
    21   133   132    1
    22   134   132    1
    23     6     5    1
    24   132   131    2
    25    47    44    1
    26    44    45    1
    27     3     4    2
    28   131   130    1
    29    45    46    2
    30    31    29    1
    31    57    59   ar
    32    57    56   ar
    33   130   129    1
    34    30    29    1
    35    51    52    1
    36    28    29    1
    37    28    25    1
    38    26    25    1
    39    26    27    2
    40    55    52    1
    41    55    56    1
    42    25    24    1
    43    59    60   ar
    44    52    53    1
    45    56    58   ar
    46   118   119    1
    47   118   117    1
    48   129   128    1
    49   119   120    1
    50    60    58   ar
    51   117   114    1
    52    15    14    1
    53    53    61   am
    54    53    54    2
    55   128   125    1
    56    14    11    1
    57    61    62    1
    58   120   121    2
    59   122   121    1
    60    19    18    2
    61    13    12    2
    62   114   115    1
    63   114   113    1
    64   121   123    1
    65    12    11    1
    66    11    10    1
    67   115   116    2
    68   125   126    1
    69   125   124    1
    70   113   109   am
    71   135   126   am
    72   135   136    1
    73   126   127    2
    74   136   137    1
    75    62    65    1
    76    62    63    1
    77    18    17    1
    78    69    70    1
    79    66    65    1
    80    66    67    1
    81    66    68    1
    82    20    17    1
    83    20    21    1
    84    22    21    1
    85    63    64    2
    86    17    16    1
    87    70    73    1
    88    70    71    1
    89   109   108    1
    90   109   110    2
    91    21    23    1
    92   137   138    2
    93   137   139   am
    94   108   111    1
    95   108   107    1
    96   103   102    2
    97   111   112    1
    98   139   140    1
    99    71    72    2
   100   107   102   am
   101   102   101    1
   102   144   146    1
   103   144   145    1
   104   144   143    1
   105   140   143    1
   106   140   141    1
   107    99    97    1
   108   101   100    1
   109   101   104    1
   110   142   141    2
   111   100    94   am
   112   104   106    1
   113   104   105    1
   114    82    84   ar
   115    82    80   ar
   116    84    83   ar
   117    94    93    1
   118    94    95    2
   119    80    79   ar
   120    83    81   ar
   121    93    96    1
   122    93    92    1
   123    96    97    1
   124    97    98    1
   125    88    87    2
   126    79    81   ar
   127    79    78    1
   128    78    75    1
   129    87    92   am
   130    87    86    1
   131    90    91    1
   132    90    89    1
   133    91    85    1
   134    89    86    1
   135    86    85    1
   136    75    76    1
   137    75    74    1
   138    76    77    2
