@<TRIPOS>MOLECULE
tmp/5ezzA00.pdb
 208 200 0 0 0
SMALL
GASTEIGER

@<TRIPOS>ATOM
      1  N        -24.8270   46.2350   84.4640 N.3    16  GLY16      -0.1210
      2  CA       -24.5300   46.4320   85.8820 C.3    16  GLY16       0.1956
      3  C        -24.6880   45.1820   86.7200 C.2    16  GLY16       0.2612
      4  O        -24.4500   45.2110   87.9300 O.2    16  GLY16      -0.2717
      5  N        -25.0780   44.0740   86.0900 N.am   17  GLN17      -0.1965
      6  CA       -25.2450   42.8040   86.8080 C.3    17  GLN17       0.1733
      7  C        -24.3500   41.6730   86.2700 C.2    17  GLN17       0.2616
      8  O        -24.6140   40.4990   86.5310 O.2    17  GLN17      -0.2715
      9  CB       -26.6980   42.3580   86.7590 C.3    17  GLN17       0.0408
     10  CG       -27.6750   43.2410   87.5110 C.3    17  GLN17       0.0908
     11  CD       -29.0990   42.7000   87.4630 C.2    17  GLN17       0.2608
     12  OE1      -29.3790   41.6880   86.8200 O.2    17  GLN17      -0.2717
     13  NE2      -30.0060   43.3740   88.1560 N.am   17  GLN17      -0.0878
     14  N        -23.3050   42.0270   85.5230 N.am   18  GLY18      -0.1955
     15  CA       -22.3430   41.0490   85.0090 C.3    18  GLY18       0.1869
     16  C        -22.8200   40.1350   83.8880 C.2    18  GLY18       0.2309
     17  O        -23.9790   40.1650   83.4790 O.2    18  GLY18      -0.2863
     18  N        -22.2880   33.3580   86.7520 N.3    35  LEU35      -0.1245
     19  CA       -21.5250   34.5790   86.5050 C.3    35  LEU35       0.1561
     20  C        -20.0640   34.2690   86.1530 C.2    35  LEU35       0.2260
     21  O        -19.3740   33.5700   86.9030 O.2    35  LEU35      -0.2867
     22  CB       -21.5700   35.5080   87.7230 C.3    35  LEU35       0.0270
     23  CG       -20.7340   36.7860   87.6250 C.3    35  LEU35       0.0019
     24  CD1      -21.5300   37.8710   86.9260 C.3    35  LEU35       0.0001
     25  CD2      -20.2990   37.2950   88.9860 C.3    35  LEU35       0.0001
     26  N        -16.4370   35.3060   86.2100 N.3    37  ASP37      -0.1239
     27  CA       -15.7480   36.2130   87.1420 C.3    37  ASP37       0.1674
     28  C        -14.2260   36.0410   87.1720 C.2    37  ASP37       0.2266
     29  O        -13.7020   35.1630   87.8810 O.2    37  ASP37      -0.2867
     30  CB       -16.3200   35.9870   88.5540 C.3    37  ASP37       0.1410
     31  CG       -15.8470   37.0170   89.5690 C.2    37  ASP37       0.3668
     32  OD1      -15.2850   38.0700   89.1880 O.co2  37  ASP37      -0.2456
     33  OD2      -16.0690   36.7680   90.7690 O.co2  37  ASP37      -0.2456
     34  N        -12.2530   37.9150   88.5780 N.3    39  GLY39      -0.1210
     35  CA       -11.7570   38.4810   89.8320 C.3    39  GLY39       0.1956
     36  C        -11.8960   37.6180   91.0830 C.2    39  GLY39       0.2613
     37  O        -11.7400   38.1170   92.1910 O.2    39  GLY39      -0.2717
     38  N        -12.1650   36.3260   90.9240 N.am   40  SER40      -0.1938
     39  CA       -12.1990   35.4210   92.0750 C.3    40  SER40       0.2055
     40  C        -11.9040   34.0140   91.5670 C.2    40  SER40       0.2644
     41  O        -11.7400   33.8270   90.3670 O.2    40  SER40      -0.2714
     42  CB       -13.5580   35.4950   92.7890 C.3    40  SER40       0.2130
     43  OG       -14.6380   35.0890   91.9400 O.3    40  SER40      -0.2179
     44  N        -11.8720   33.0320   92.4650 N.am   41  SER41      -0.1935
     45  CA       -11.3350   31.7110   92.1360 C.3    41  SER41       0.2055
     46  C        -12.1510   30.5080   92.6380 C.2    41  SER41       0.2643
     47  O        -11.7010   29.3660   92.5580 O.2    41  SER41      -0.2714
     48  CB        -9.8990   31.6140   92.6410 C.3    41  SER41       0.2130
     49  OG        -9.1260   32.6880   92.1240 O.3    41  SER41      -0.2179
     50  N        -13.3670   30.7610   93.1040 N.am   42  ASN42      -0.1971
     51  CA       -14.2590   29.6930   93.5410 C.3    42  ASN42       0.1688
     52  C        -15.3820   29.5050   92.5450 C.2    42  ASN42       0.2292
     53  O        -15.9210   30.4930   92.0110 O.2    42  ASN42      -0.2864
     54  CB       -14.8740   30.0200   94.9120 C.3    42  ASN42       0.1181
     55  CG       -13.8860   29.8500   96.0610 C.2    42  ASN42       0.2629
     56  OD1      -13.0680   30.7280   96.3340 O.2    42  ASN42      -0.2716
     57  ND2      -13.9850   28.7200   96.7580 N.am   42  ASN42      -0.0877
     58  N        -18.8250   28.7090   93.0390 N.3    44  ALA44      -0.1245
     59  CA       -19.7740   28.7250   94.1550 C.3    44  ALA44       0.1562
     60  C        -21.1850   28.9190   93.5970 C.2    44  ALA44       0.2260
     61  O        -21.4320   29.8710   92.8380 O.2    44  ALA44      -0.2867
     62  CB       -19.4030   29.8330   95.1390 C.3    44  ALA44       0.0290
     63  N        -17.2910   32.9320  103.9970 N.3    74  VAL74      -0.1231
     64  CA       -16.6730   34.0340  103.2490 C.3    74  VAL74       0.1678
     65  C        -17.3360   35.3860  103.5070 C.2    74  VAL74       0.2434
     66  O        -18.3360   35.7170  102.8840 O.2    74  VAL74      -0.2733
     67  CB       -16.5890   33.7500  101.7170 C.3    74  VAL74       0.0265
     68  CG1      -15.7260   34.8130  101.0190 C.3    74  VAL74       0.0020
     69  CG2      -16.0270   32.3520  101.4470 C.3    74  VAL74       0.0020
     70  N        -16.7610   36.1800  104.4270 N.am   75  PRO75      -0.2718
     71  CA       -17.2640   37.5140  104.7050 C.3    75  PRO75       0.1535
     72  C        -16.6700   38.5480  103.7510 C.2    75  PRO75       0.2598
     73  O        -15.6180   38.3140  103.1740 O.2    75  PRO75      -0.2715
     74  CB       -16.7670   37.7670  106.1260 C.3    75  PRO75       0.0310
     75  CG       -15.4780   37.0120  106.2050 C.3    75  PRO75       0.0237
     76  CD       -15.5990   35.8400  105.2700 C.3    75  PRO75       0.0939
     77  N        -17.3630   39.6680  103.5810 N.am   76  TYR76      -0.1974
     78  CA       -16.8640   40.8390  102.8370 C.3    76  TYR76       0.1639
     79  C        -17.5620   42.0740  103.4100 C.2    76  TYR76       0.2290
     80  O        -18.1810   41.9980  104.4790 O.2    76  TYR76      -0.2864
     81  CB       -17.1340   40.7030  101.3250 C.3    76  TYR76       0.0560
     82  CG       -18.5060   40.1420  101.0000 C.ar   76  TYR76      -0.0198
     83  CD1      -18.6730   38.7740  100.7540 C.ar   76  TYR76      -0.0009
     84  CD2      -19.6360   40.9670  100.9590 C.ar   76  TYR76      -0.0009
     85  CE1      -19.9250   38.2380  100.4680 C.ar   76  TYR76       0.0417
     86  CE2      -20.8980   40.4430  100.6780 C.ar   76  TYR76       0.0417
     87  CZ       -21.0330   39.0730  100.4330 C.ar   76  TYR76       0.1957
     88  OH       -22.2670   38.5260  100.1530 O.3    76  TYR76      -0.2866
     89  N        -21.1530   35.0530  102.4000 N.3    81  TRP81      -0.1241
     90  CA       -21.7780   33.8190  101.9830 C.3    81  TRP81       0.1605
     91  C        -21.1500   32.6580  102.7300 C.2    81  TRP81       0.2264
     92  O        -20.0140   32.7360  103.1950 O.2    81  TRP81      -0.2867
     93  CB       -21.7860   33.6310  100.4570 C.3    81  TRP81       0.0550
     94  CG       -20.4580   33.3760   99.8030 C.ar   81  TRP81       0.0003
     95  CD1      -19.6280   34.3050   99.2170 C.ar   81  TRP81       0.0946
     96  CD2      -19.8300   32.1070   99.6150 C.ar   81  TRP81       0.0152
     97  NE1      -18.5090   33.6840   98.6930 N.ar   81  TRP81      -0.2442
     98  CE2      -18.6070   32.3370   98.9250 C.ar   81  TRP81       0.0810
     99  CE3      -20.1750   30.7900   99.9660 C.ar   81  TRP81       0.0012
    100  CZ2      -17.7270   31.2960   98.5870 C.ar   81  TRP81       0.0191
    101  CZ3      -19.3070   29.7620   99.6260 C.ar   81  TRP81       0.0001
    102  CH2      -18.0920   30.0210   98.9450 C.ar   81  TRP81       0.0015
    103  N        -26.4670   39.7980  100.8570 N.3   112  LYS112     -0.1231
    104  CA       -25.9970   40.7290   99.8220 C.3   112  LYS112      0.1693
    105  C        -25.0350   40.1590   98.7750 C.2   112  LYS112      0.2592
    106  O        -24.1650   40.8710   98.2560 O.2   112  LYS112     -0.2718
    107  CB       -25.4330   41.9960  100.4610 C.3   112  LYS112      0.0285
    108  CG       -26.5580   42.9060  100.9260 C.3   112  LYS112      0.0035
    109  CD       -26.0650   44.0310  101.7880 C.3   112  LYS112      0.0206
    110  CE       -27.2510   44.7240  102.4140 C.3   112  LYS112      0.1093
    111  NZ       -26.7790   45.3750  103.6420 N.3   112  LYS112     -0.1314
    112  N        -25.2320   38.8870   98.4410 N.am  113  PHE113     -0.1976
    113  CA       -24.4510   38.2020   97.4070 C.3   113  PHE113      0.1639
    114  C        -25.2460   38.1110   96.0960 C.2   113  PHE113      0.2290
    115  O        -24.7980   38.5930   95.0520 O.2   113  PHE113     -0.2864
    116  CB       -24.0920   36.8180   97.9320 C.3   113  PHE113      0.0560
    117  CG       -23.1530   36.0440   97.0620 C.ar  113  PHE113     -0.0200
    118  CD1      -21.7960   36.3490   97.0350 C.ar  113  PHE113     -0.0042
    119  CD2      -23.6250   34.9660   96.3040 C.ar  113  PHE113     -0.0042
    120  CE1      -20.9130   35.5960   96.2580 C.ar  113  PHE113     -0.0003
    121  CE2      -22.7550   34.2100   95.5240 C.ar  113  PHE113     -0.0003
    122  CZ       -21.3890   34.5260   95.5040 C.ar  113  PHE113     -0.0000
    123  N        -28.4550   38.8280   93.4330 N.3   115  ILE115     -0.1245
    124  CA       -29.1770   40.0450   93.0710 C.3   115  ILE115      0.1561
    125  C        -30.6510   39.7480   92.8020 C.2   115  ILE115      0.2260
    126  O        -30.9900   38.8550   92.0210 O.2   115  ILE115     -0.2867
    127  CB       -28.5290   40.7870   91.8760 C.3   115  ILE115      0.0252
    128  CG1      -27.0560   41.1110   92.1800 C.3   115  ILE115      0.0019
    129  CG2      -29.3190   42.0650   91.5330 C.3   115  ILE115      0.0019
    130  CD1      -26.2360   41.3930   90.9280 C.3   115  ILE115      0.0001
    131  N        -28.8440   34.9180   87.1560 N.3   120  TRP120     -0.1241
    132  CA       -27.7790   33.9700   87.4890 C.3   120  TRP120      0.1605
    133  C        -27.8370   33.4700   88.9420 C.2   120  TRP120      0.2264
    134  O        -28.4020   34.1420   89.8130 O.2   120  TRP120     -0.2867
    135  CB       -26.3760   34.4860   87.0960 C.3   120  TRP120      0.0550
    136  CG       -25.9550   35.7810   87.7090 C.ar  120  TRP120      0.0003
    137  CD1      -25.9560   37.0080   87.1020 C.ar  120  TRP120      0.0946
    138  CD2      -25.4200   35.9870   89.0280 C.ar  120  TRP120      0.0152
    139  NE1      -25.4820   37.9670   87.9630 N.ar  120  TRP120     -0.2442
    140  CE2      -25.1550   37.3740   89.1560 C.ar  120  TRP120      0.0810
    141  CE3      -25.1690   35.1420   90.1240 C.ar  120  TRP120      0.0012
    142  CZ2      -24.6220   37.9350   90.3310 C.ar  120  TRP120      0.0191
    143  CZ3      -24.6420   35.6990   91.2920 C.ar  120  TRP120      0.0001
    144  CH2      -24.3810   37.0830   91.3850 C.ar  120  TRP120      0.0015
    145  N        -21.3780   31.5890   90.6680 N.3   123  ILE123     -0.1245
    146  CA       -20.2340   32.3610   90.2010 C.3   123  ILE123      0.1561
    147  C        -19.1220   31.4240   89.7820 C.2   123  ILE123      0.2260
    148  O        -18.7850   30.4850   90.5090 O.2   123  ILE123     -0.2867
    149  CB       -19.7200   33.3270   91.2890 C.3   123  ILE123      0.0252
    150  CG1      -20.8080   34.3630   91.6090 C.3   123  ILE123      0.0019
    151  CG2      -18.4340   34.0360   90.8200 C.3   123  ILE123      0.0019
    152  CD1      -20.3170   35.6380   92.2690 C.3   123  ILE123      0.0001
    153  N         -6.0490   32.8330   95.6740 N.3   131  ILE131     -0.1245
    154  CA        -7.1530   33.6000   96.2690 C.3   131  ILE131      0.1561
    155  C         -8.4430   32.7770   96.4590 C.2   131  ILE131      0.2260
    156  O         -9.5050   33.3290   96.7490 O.2   131  ILE131     -0.2867
    157  CB        -7.4510   34.9380   95.4970 C.3   131  ILE131      0.0252
    158  CG1       -7.8620   34.6700   94.0420 C.3   131  ILE131      0.0019
    159  CG2       -6.2670   35.8910   95.5790 C.3   131  ILE131      0.0019
    160  CD1       -8.5720   35.8430   93.3720 C.3   131  ILE131      0.0001
    161  N        -11.0110   30.2040   98.3640 N.3   133  ARG133     -0.1245
    162  CA       -11.4210   30.0320   99.7530 C.3   133  ARG133      0.1563
    163  C        -11.8090   28.5690   99.9530 C.2   133  ARG133      0.2260
    164  O        -12.3420   27.9360   99.0360 O.2   133  ARG133     -0.2867
    165  CB       -12.5910   30.9460  100.1260 C.3   133  ARG133      0.0307
    166  CG       -12.4330   32.3860   99.7350 C.3   133  ARG133      0.0489
    167  CD       -11.5150   33.1610  100.6520 C.3   133  ARG133      0.2205
    168  NE       -11.3850   34.5150  100.1230 N.pl3 133  ARG133     -0.0865
    169  CZ       -11.9040   35.6080  100.6760 C.cat 133  ARG133      0.5346
    170  NH1      -12.5670   35.5280  101.8280 N.pl3 133  ARG133      0.1354
    171  NH2      -11.7410   36.7920  100.0830 N.pl3 133  ARG133      0.1354
    172  N        -10.8660   42.4220   85.7980 N.3   223  ASP223     -0.1225
    173  CA       -11.9510   41.7520   86.5400 C.3   223  ASP223      0.1805
    174  C        -13.3270   41.8530   85.8670 C.2   223  ASP223      0.2598
    175  O        -13.9970   42.8820   85.9640 O.2   223  ASP223     -0.2718
    176  CB       -12.0270   42.2790   87.9920 C.3   223  ASP223      0.1424
    177  CG       -13.1570   41.6350   88.7960 C.2   223  ASP223      0.3668
    178  OD1      -13.7380   40.6320   88.3260 O.co2 223  ASP223     -0.2456
    179  OD2      -13.4620   42.1390   89.9020 O.co2 223  ASP223     -0.2456
    180  N        -13.7490   40.7670   85.2190 N.am  224  SER224     -0.1938
    181  CA       -15.0550   40.7050   84.5500 C.3   224  SER224      0.2055
    182  C        -16.2530   40.7600   85.5310 C.2   224  SER224      0.2644
    183  O        -17.3900   40.9780   85.1220 O.2   224  SER224     -0.2714
    184  CB       -15.1470   39.4510   83.6770 C.3   224  SER224      0.2130
    185  OG       -15.1450   38.2820   84.4740 O.3   224  SER224     -0.2179
    186  N        -15.9810   40.5540   86.8170 N.am  225  GLY225     -0.1939
    187  CA       -17.0170   40.5890   87.8410 C.3   225  GLY225      0.2014
    188  C        -17.1250   41.9140   88.5840 C.2   225  GLY225      0.2640
    189  O        -17.7280   41.9740   89.6450 O.2   225  GLY225     -0.2714
    190  N        -16.5280   42.9650   88.0320 N.am  226  THR226     -0.1936
    191  CA       -16.7180   44.3380   88.5020 C.3   226  THR226      0.2028
    192  C        -17.2750   45.1030   87.3250 C.2   226  THR226      0.2642
    193  O        -16.8370   44.8960   86.1930 O.2   226  THR226     -0.2714
    194  CB       -15.3960   44.9620   88.9450 C.3   226  THR226      0.1808
    195  OG1      -14.9360   44.2880   90.1160 O.3   226  THR226     -0.2208
    196  CG2      -15.5450   46.4440   89.2710 C.3   226  THR226      0.0379
    197  N        -18.2570   45.9630   87.5850 N.am  227  THR227     -0.1950
    198  CA       -18.8970   46.7550   86.5340 C.3   227  THR227      0.1897
    199  C        -18.0060   47.9000   86.0660 C.2   227  THR227      0.2313
    200  O        -17.8520   48.1400   84.8630 O.2   227  THR227     -0.2863
    201  CB       -20.2280   47.3620   87.0340 C.3   227  THR227      0.1794
    202  OG1      -21.1470   46.3050   87.3370 O.3   227  THR227     -0.2208
    203  CG2      -20.8390   48.2870   85.9710 C.3   227  THR227      0.0378
    204  N        -15.9640   45.7580   83.5360 N.3   330  ALA330     -0.1245
    205  CA       -16.6440   45.7580   82.2330 C.3   330  ALA330      0.1562
    206  C        -16.4730   47.0500   81.4570 C.2   330  ALA330      0.2260
    207  O        -16.3990   47.0130   80.2410 O.2   330  ALA330     -0.2867
    208  CB       -18.1200   45.4260   82.3770 C.3   330  ALA330      0.0290
@<TRIPOS>BOND
     1   207   206    2
     2   206   205    1
     3   205   208    1
     4   205   204    1
     5    17    16    2
     6   184   185    1
     7   184   181    1
     8    16    15    1
     9     1     2    1
    10   181   180    1
    11   181   182    1
    12   200   199    2
    13    15    14    1
    14   183   182    2
    15   180   174   am
    16    14     7   am
    17   182   186   am
    18   172   173    1
    19   174   175    2
    20   174   173    1
    21     2     3    1
    22   203   201    1
    23   199   198    1
    24     5     3   am
    25     5     6    1
    26    20    19    1
    27    20    21    2
    28   193   192    2
    29    26    27    1
    30     7     8    2
    31     7     6    1
    32    19    18    1
    33    19    22    1
    34   198   201    1
    35   198   197    1
    36   173   176    1
    37     3     4    2
    38     9     6    1
    39     9    10    1
    40   186   187    1
    41    12    11    2
    42    24    23    1
    43   201   202    1
    44   135   132    1
    45   135   136    1
    46   137   136   ar
    47   137   139   ar
    48    27    28    1
    49    27    30    1
    50   131   132    1
    51    28    29    2
    52   192   197   am
    53   192   191    1
    54    11    10    1
    55    11    13   am
    56   132   133    1
    57    23    22    1
    58    23    25    1
    59   136   138   ar
    60   187   188    1
    61   139   140   ar
    62   176   177    1
    63   190   191    1
    64   190   188   am
    65   178   177   ar
    66   191   194    1
    67    30    31    1
    68    34    35    1
    69   188   189    2
    70   177   179   ar
    71   133   134    2
    72   194   196    1
    73   194   195    1
    74   138   140   ar
    75   138   141   ar
    76   140   142   ar
    77    32    31   ar
    78    31    33   ar
    79   147   146    1
    80   147   148    2
    81    35    36    1
    82   141   143   ar
    83   146   145    1
    84   146   149    1
    85   142   144   ar
    86    41    40    2
    87   151   149    1
    88    38    36   am
    89    38    39    1
    90   130   128    1
    91    36    37    2
    92   149   150    1
    93   143   144   ar
    94   129   127    1
    95    40    39    1
    96    40    44   am
    97   150   152    1
    98   127   128    1
    99   127   124    1
   100    43    42    1
   101    53    52    2
   102   126   125    2
   103    39    42    1
   104    49    48    1
   105    45    44    1
   106    45    46    1
   107    45    48    1
   108    52    51    1
   109    47    46    2
   110    46    50   am
   111   125   124    1
   112    61    60    2
   113    58    59    1
   114   124   123    1
   115    50    51    1
   116   160   158    1
   117    51    54    1
   118    60    59    1
   119   158   157    1
   120    59    62    1
   121    54    55    1
   122   115   114    2
   123   157   159    1
   124   157   154    1
   125   122   121   ar
   126   122   120   ar
   127   121   119   ar
   128   153   154    1
   129    55    56    2
   130    55    57   am
   131   114   113    1
   132   120   118   ar
   133   154   155    1
   134   119   117   ar
   135   155   156    2
   136   118   117   ar
   137   117   116    1
   138   113   116    1
   139   113   112    1
   140   106   105    2
   141   161   162    1
   142   112   105   am
   143   100    98   ar
   144   100   102   ar
   145    97    98   ar
   146    97    95   ar
   147   105   104    1
   148    98    96   ar
   149   102   101   ar
   150   164   163    2
   151    95    94   ar
   152    96    94   ar
   153    96    99   ar
   154   101    99   ar
   155   166   165    1
   156   166   167    1
   157   162   163    1
   158   162   165    1
   159    94    93    1
   160   104   107    1
   161   104   103    1
   162   171   169    1
   163   168   167    1
   164   168   169    2
   165    88    87    1
   166    87    85   ar
   167    87    86   ar
   168    93    90    1
   169   107   108    1
   170    85    83   ar
   171   169   170    1
   172    86    84   ar
   173    83    82   ar
   174   108   109    1
   175    84    82   ar
   176    82    81    1
   177    68    67    1
   178    81    78    1
   179    69    67    1
   180    67    64    1
   181   109   110    1
   182    90    89    1
   183    90    91    1
   184   110   111    1
   185    91    92    2
   186    78    79    1
   187    78    77    1
   188    66    65    2
   189    73    72    2
   190    64    65    1
   191    64    63    1
   192    79    80    2
   193    65    70   am
   194    77    72   am
   195    72    71    1
   196    70    71    1
   197    70    76    1
   198    71    74    1
   199    76    75    1
   200    74    75    1
