@<TRIPOS>MOLECULE
tmp/5f00A00.pdb
 156 149 0 0 0
SMALL
GASTEIGER

@<TRIPOS>ATOM
      1  N        -25.0590   46.5330   -0.7450 N.3    16  GLY16      -0.1210
      2  CA       -24.9410   46.8220    0.6710 C.3    16  GLY16       0.1956
      3  C        -25.0130   45.5790    1.5380 C.2    16  GLY16       0.2612
      4  O        -24.9330   45.6880    2.7590 O.2    16  GLY16      -0.2717
      5  N        -25.1670   44.4000    0.9210 N.am   17  GLN17      -0.1965
      6  CA       -25.3060   43.1540    1.6840 C.3    17  GLN17       0.1733
      7  C        -24.2750   42.0810    1.3370 C.2    17  GLN17       0.2617
      8  O        -24.4050   40.9500    1.7860 O.2    17  GLN17      -0.2715
      9  CB       -26.7280   42.5760    1.5500 C.3    17  GLN17       0.0408
     10  CG       -27.7870   43.3150    2.3690 C.3    17  GLN17       0.0908
     11  CD       -29.1840   42.8140    2.0850 C.2    17  GLN17       0.2608
     12  OE1      -29.3560   41.8140    1.3890 O.2    17  GLN17      -0.2717
     13  NE2      -30.2030   43.5090    2.6210 N.am   17  GLN17      -0.0878
     14  N        -23.2620   42.4390    0.5350 N.am   18  GLY18      -0.1940
     15  CA       -22.1350   41.5540    0.2710 C.3    18  GLY18       0.2014
     16  C        -22.3490   40.6180   -0.9050 C.2    18  GLY18       0.2638
     17  O        -23.4280   40.6210   -1.5420 O.2    18  GLY18      -0.2714
     18  N        -21.3310   39.8030   -1.1780 N.am   19  TYR19      -0.1973
     19  CA       -21.3590   38.8690   -2.2920 C.3    19  TYR19       0.1639
     20  C        -21.3170   37.4490   -1.7630 C.2    19  TYR19       0.2290
     21  O        -20.4320   37.1110   -0.9740 O.2    19  TYR19      -0.2864
     22  CB       -20.1640   39.1260   -3.2160 C.3    19  TYR19       0.0560
     23  CG       -20.1760   40.4970   -3.8920 C.ar   19  TYR19      -0.0198
     24  CD1      -19.7930   41.6470   -3.2060 C.ar   19  TYR19      -0.0009
     25  CD2      -20.5830   40.6300   -5.2270 C.ar   19  TYR19      -0.0009
     26  CE1      -19.8100   42.9180   -3.8370 C.ar   19  TYR19       0.0417
     27  CE2      -20.6030   41.8910   -5.8620 C.ar   19  TYR19       0.0417
     28  CZ       -20.2150   43.0180   -5.1630 C.ar   19  TYR19       0.1957
     29  OH       -20.2360   44.2530   -5.7870 O.3    19  TYR19      -0.2866
     30  N        -21.4690   34.0600    2.2310 N.3    35  LEU35      -0.1245
     31  CA       -20.7200   35.2980    1.9720 C.3    35  LEU35       0.1561
     32  C        -19.2200   35.0140    1.8000 C.2    35  LEU35       0.2260
     33  O        -18.5930   34.3350    2.6370 O.2    35  LEU35      -0.2867
     34  CB       -20.9310   36.3100    3.1080 C.3    35  LEU35       0.0270
     35  CG       -20.1370   37.6060    2.9780 C.3    35  LEU35       0.0019
     36  CD1      -20.9940   38.5670    2.2050 C.3    35  LEU35       0.0001
     37  CD2      -19.7810   38.1720    4.3160 C.3    35  LEU35       0.0001
     38  N        -15.4750   36.0270    1.9240 N.3    37  ASP37      -0.1239
     39  CA       -14.7740   36.9680    2.7890 C.3    37  ASP37       0.1674
     40  C        -13.2560   36.7380    2.8170 C.2    37  ASP37       0.2266
     41  O        -12.7610   35.8510    3.5330 O.2    37  ASP37      -0.2867
     42  CB       -15.3370   36.8790    4.2190 C.3    37  ASP37       0.1410
     43  CG       -14.7070   37.8910    5.1760 C.2    37  ASP37       0.3668
     44  OD1      -14.0770   38.8930    4.7280 O.co2  37  ASP37      -0.2456
     45  OD2      -14.8820   37.7050    6.4020 O.co2  37  ASP37      -0.2456
     46  N        -11.2670   38.6490    4.2120 N.3    39  GLY39      -0.1210
     47  CA       -10.7810   39.2560    5.4530 C.3    39  GLY39       0.1956
     48  C        -10.9630   38.4910    6.7750 C.2    39  GLY39       0.2612
     49  O        -10.7740   39.0740    7.8440 O.2    39  GLY39      -0.2717
     50  N        -11.2840   37.2010    6.7060 N.am   40  SER40      -0.1952
     51  CA       -11.3020   36.3060    7.8850 C.3    40  SER40       0.1924
     52  C        -11.0250   34.8970    7.3850 C.2    40  SER40       0.2314
     53  O        -10.8980   34.6930    6.1670 O.2    40  SER40      -0.2863
     54  CB       -12.6770   36.3490    8.5690 C.3    40  SER40       0.2116
     55  OG       -13.6900   35.8700    7.6970 O.3    40  SER40      -0.2180
     56  N        -16.6990   40.6070   17.1600 N.3    76  TYR76      -0.1241
     57  CA       -16.1290   41.5780   16.2240 C.3    76  TYR76       0.1605
     58  C        -16.3080   42.9440   16.8520 C.2    76  TYR76       0.2264
     59  O        -16.9470   43.0580   17.9000 O.2    76  TYR76      -0.2867
     60  CB       -16.8560   41.5700   14.8770 C.3    76  TYR76       0.0534
     61  CG       -16.9050   40.2440   14.1820 C.ar   76  TYR76      -0.0201
     62  CD1      -15.7380   39.6220   13.7100 C.ar   76  TYR76      -0.0009
     63  CD2      -18.1270   39.6110   13.9760 C.ar   76  TYR76      -0.0009
     64  CE1      -15.7990   38.3850   13.0690 C.ar   76  TYR76       0.0417
     65  CE2      -18.2010   38.3970   13.3480 C.ar   76  TYR76       0.0417
     66  CZ       -17.0470   37.7800   12.8920 C.ar   76  TYR76       0.1957
     67  OH       -17.1690   36.5560   12.2510 O.3    76  TYR76      -0.2866
     68  N        -25.0010   39.9030   13.3440 N.3   113  PHE113     -0.1241
     69  CA       -24.2040   39.1680   12.3810 C.3   113  PHE113      0.1605
     70  C        -25.0200   38.9480   11.1110 C.2   113  PHE113      0.2264
     71  O        -24.6540   39.4510   10.0560 O.2   113  PHE113     -0.2867
     72  CB       -23.7340   37.8520   12.9980 C.3   113  PHE113      0.0534
     73  CG       -22.8780   37.0270   12.0880 C.ar  113  PHE113     -0.0203
     74  CD1      -21.5460   37.3480   11.8860 C.ar  113  PHE113     -0.0042
     75  CD2      -23.3970   35.9100   11.4470 C.ar  113  PHE113     -0.0042
     76  CE1      -20.7580   36.5680   11.0520 C.ar  113  PHE113     -0.0003
     77  CE2      -22.6080   35.1560   10.6120 C.ar  113  PHE113     -0.0003
     78  CZ       -21.2820   35.4950   10.4270 C.ar  113  PHE113     -0.0000
     79  N        -28.0860   39.5540    8.5300 N.3   115  ILE115     -0.1245
     80  CA       -28.7580   40.7750    8.0880 C.3   115  ILE115      0.1561
     81  C        -30.2120   40.4420    7.7890 C.2   115  ILE115      0.2260
     82  O        -30.4980   39.4900    7.0480 O.2   115  ILE115     -0.2867
     83  CB       -28.1350   41.3660    6.7910 C.3   115  ILE115      0.0252
     84  CG1      -26.6710   41.7400    6.9910 C.3   115  ILE115      0.0019
     85  CG2      -28.9690   42.5840    6.2960 C.3   115  ILE115      0.0019
     86  CD1      -25.9320   42.0050    5.6580 C.3   115  ILE115      0.0001
     87  N        -28.0790   35.3670    2.4040 N.3   120  TRP120     -0.1241
     88  CA       -27.0020   34.4840    2.8150 C.3   120  TRP120      0.1605
     89  C        -27.0640   34.0820    4.2820 C.2   120  TRP120      0.2264
     90  O        -27.6150   34.8260    5.0910 O.2   120  TRP120     -0.2867
     91  CB       -25.6290   35.0780    2.4820 C.3   120  TRP120      0.0550
     92  CG       -25.3420   36.4590    3.0710 C.ar  120  TRP120      0.0003
     93  CD1      -25.4390   37.6710    2.4360 C.ar  120  TRP120      0.0946
     94  CD2      -24.8280   36.7350    4.3820 C.ar  120  TRP120      0.0152
     95  NE1      -25.0500   38.6880    3.3010 N.ar  120  TRP120     -0.2442
     96  CE2      -24.6680   38.1330    4.4890 C.ar  120  TRP120      0.0810
     97  CE3      -24.4930   35.9290    5.4830 C.ar  120  TRP120      0.0012
     98  CZ2      -24.1960   38.7420    5.6540 C.ar  120  TRP120      0.0191
     99  CZ3      -24.0010   36.5430    6.6310 C.ar  120  TRP120      0.0001
    100  CH2      -23.8690   37.9270    6.7030 C.ar  120  TRP120      0.0015
    101  N        -20.6610   32.4880    6.3290 N.3   123  ILE123     -0.1245
    102  CA       -19.5180   33.2130    5.8290 C.3   123  ILE123      0.1561
    103  C        -18.3920   32.2220    5.5000 C.2   123  ILE123      0.2260
    104  O        -18.1900   31.2240    6.2090 O.2   123  ILE123     -0.2867
    105  CB       -19.1080   34.3250    6.8410 C.3   123  ILE123      0.0252
    106  CG1      -18.0710   35.2730    6.2320 C.3   123  ILE123      0.0019
    107  CG2      -18.6370   33.7160    8.2210 C.3   123  ILE123      0.0019
    108  CD1      -17.7960   36.5030    7.0840 C.3   123  ILE123      0.0001
    109  N         -9.8660   42.9570    1.1120 N.3   221  ASP221     -0.1225
    110  CA       -10.9670   42.3480    1.9290 C.3   221  ASP221      0.1805
    111  C        -12.3530   42.3820    1.2680 C.2   221  ASP221      0.2598
    112  O        -13.0410   43.3820    1.3510 O.2   221  ASP221     -0.2718
    113  CB       -11.0220   43.0600    3.2960 C.3   221  ASP221      0.1424
    114  CG       -12.0400   42.4440    4.2510 C.2   221  ASP221      0.3668
    115  OD1      -12.6350   41.4080    3.9170 O.co2 221  ASP221     -0.2456
    116  OD2      -12.2440   43.0060    5.3510 O.co2 221  ASP221     -0.2456
    117  N        -12.7810   41.2880    0.6530 N.am  222  SER222     -0.1938
    118  CA       -14.1130   41.2080    0.0260 C.3   222  SER222      0.2055
    119  C        -15.2960   41.2570    1.0360 C.2   222  SER222      0.2644
    120  O        -16.4430   41.4440    0.6380 O.2   222  SER222     -0.2714
    121  CB       -14.2160   39.9460   -0.8390 C.3   222  SER222      0.2130
    122  OG       -14.1580   38.8080    0.0110 O.3   222  SER222     -0.2179
    123  N        -15.0140   41.1110    2.3240 N.am  223  GLY223     -0.1939
    124  CA       -16.0680   41.1570    3.3560 C.3   223  GLY223      0.2014
    125  C        -16.2420   42.5240    4.0140 C.2   223  GLY223      0.2640
    126  O        -16.8650   42.6250    5.0760 O.2   223  GLY223     -0.2714
    127  N        -15.6710   43.5620    3.3970 N.am  224  THR224     -0.1936
    128  CA       -15.8630   44.9610    3.8220 C.3   224  THR224      0.2028
    129  C        -16.3370   45.7700    2.6270 C.2   224  THR224      0.2642
    130  O        -15.8150   45.6180    1.5210 O.2   224  THR224     -0.2714
    131  CB       -14.5400   45.5840    4.3450 C.3   224  THR224      0.1808
    132  OG1      -14.1170   44.8900    5.5190 O.3   224  THR224     -0.2208
    133  CG2      -14.7100   47.0620    4.6850 C.3   224  THR224      0.0379
    134  N        -17.3190   46.6390    2.8370 N.am  225  THR225     -0.1950
    135  CA       -17.8080   47.5080    1.7790 C.3   225  THR225      0.1897
    136  C        -16.7920   48.6070    1.3980 C.2   225  THR225      0.2313
    137  O        -16.3910   48.7290    0.2270 O.2   225  THR225     -0.2863
    138  CB       -19.1280   48.1880    2.1880 C.3   225  THR225      0.1794
    139  OG1      -20.1160   47.1860    2.4490 O.3   225  THR225     -0.2208
    140  CG2      -19.6200   49.0980    1.0750 C.3   225  THR225      0.0378
    141  N        -21.6460   55.0860   -2.9900 N.3   300  ARG300     -0.1245
    142  CA       -22.4420   53.8770   -3.1550 C.3   300  ARG300      0.1563
    143  C        -23.9380   54.1550   -3.0780 C.2   300  ARG300      0.2260
    144  O        -24.3870   54.8610   -2.1700 O.2   300  ARG300     -0.2867
    145  CB       -21.9980   52.8120   -2.1580 C.3   300  ARG300      0.0307
    146  CG       -20.5310   52.4330   -2.3770 C.3   300  ARG300      0.0489
    147  CD       -20.0810   51.2980   -1.4990 C.3   300  ARG300      0.2205
    148  NE       -20.5620   50.0040   -1.9740 N.pl3 300  ARG300     -0.0865
    149  CZ       -20.0020   49.3160   -2.9630 C.cat 300  ARG300      0.5346
    150  NH1      -18.9370   49.7970   -3.6080 N.pl3 300  ARG300      0.1354
    151  NH2      -20.5070   48.1440   -3.3070 N.pl3 300  ARG300      0.1354
    152  N        -14.9170   46.2240   -0.9980 N.3   321  ALA321     -0.1245
    153  CA       -15.6660   46.2270   -2.2370 C.3   321  ALA321      0.1562
    154  C        -15.4860   47.5130   -3.0690 C.2   321  ALA321      0.2260
    155  O        -15.4680   47.4380   -4.2760 O.2   321  ALA321     -0.2867
    156  CB       -17.1450   45.9420   -1.9690 C.3   321  ALA321      0.0290
@<TRIPOS>BOND
     1    27    25   ar
     2    27    28   ar
     3    29    28    1
     4    25    23   ar
     5    28    26   ar
     6   155   154    2
     7    23    22    1
     8    23    24   ar
     9    26    24   ar
    10   150   149    1
    11   151   149    1
    12    22    19    1
    13   142   143    1
    14   142   141    1
    15   142   145    1
    16   143   144    2
    17   154   153    1
    18   149   148    2
    19   146   145    1
    20   146   147    1
    21    19    20    1
    22    19    18    1
    23   153   156    1
    24   153   152    1
    25   148   147    1
    26    20    21    2
    27    17    16    2
    28    18    16   am
    29    16    15    1
    30   121   122    1
    31   121   118    1
    32     1     2    1
    33   118   117    1
    34   118   119    1
    35   137   136    2
    36    15    14    1
    37    14     7   am
    38   120   119    2
    39   117   111   am
    40     2     3    1
    41     5     3   am
    42     5     6    1
    43   119   123   am
    44   140   138    1
    45   109   110    1
    46   111   112    2
    47   111   110    1
    48     7     6    1
    49     7     8    2
    50    12    11    2
    51   136   135    1
    52   130   129    2
    53     3     4    2
    54     9     6    1
    55     9    10    1
    56   135   138    1
    57   135   134    1
    58    32    31    1
    59    32    33    2
    60    38    39    1
    61   110   113    1
    62    31    30    1
    63    31    34    1
    64    11    10    1
    65    11    13   am
    66   138   139    1
    67    36    35    1
    68   123   124    1
    69    87    88    1
    70    93    92   ar
    71    93    95   ar
    72    91    88    1
    73    91    92    1
    74   129   134   am
    75   129   128    1
    76    39    40    1
    77    39    42    1
    78    88    89    1
    79    40    41    2
    80    35    34    1
    81    35    37    1
    82    92    94   ar
    83   113   114    1
    84    95    96   ar
    85   124   125    1
    86   127   128    1
    87   127   125   am
    88   128   131    1
    89   115   114   ar
    90   125   126    2
    91    46    47    1
    92    42    43    1
    93   114   116   ar
    94    89    90    2
    95   131   133    1
    96   131   132    1
    97    94    96   ar
    98    94    97   ar
    99    96    98   ar
   100    44    43   ar
   101    43    45   ar
   102    47    48    1
   103    97    99   ar
   104   103   102    1
   105   103   104    2
   106    98   100   ar
   107    86    84    1
   108   102   101    1
   109   102   105    1
   110    53    52    2
   111   106   105    1
   112   106   108    1
   113    85    83    1
   114    99   100   ar
   115    50    48   am
   116    50    51    1
   117    48    49    2
   118    83    84    1
   119    83    80    1
   120   105   107    1
   121    82    81    2
   122    52    51    1
   123    55    54    1
   124    81    80    1
   125    51    54    1
   126    80    79    1
   127    71    70    2
   128    78    77   ar
   129    78    76   ar
   130    77    75   ar
   131    76    74   ar
   132    70    69    1
   133    75    73   ar
   134    74    73   ar
   135    73    72    1
   136    67    66    1
   137    69    72    1
   138    69    68    1
   139    66    64   ar
   140    66    65   ar
   141    64    62   ar
   142    65    63   ar
   143    62    61   ar
   144    63    61   ar
   145    61    60    1
   146    60    57    1
   147    57    58    1
   148    57    56    1
   149    58    59    2
