@<TRIPOS>MOLECULE
tmp/5f01A00.pdb
 165 157 0 0 0
SMALL
GASTEIGER

@<TRIPOS>ATOM
      1  N        -25.7960   46.2460   -0.6590 N.3    16  GLY16      -0.1210
      2  CA       -25.7140   46.4500    0.7750 C.3    16  GLY16       0.1956
      3  C        -25.6940   45.1670    1.5880 C.2    16  GLY16       0.2612
      4  O        -25.6050   45.2190    2.8090 O.2    16  GLY16      -0.2717
      5  N        -25.7790   44.0190    0.9180 N.am   17  GLN17      -0.1965
      6  CA       -25.8690   42.7440    1.6260 C.3    17  GLN17       0.1733
      7  C        -24.8070   41.7400    1.2260 C.2    17  GLN17       0.2617
      8  O        -24.7940   40.6340    1.7500 O.2    17  GLN17      -0.2715
      9  CB       -27.2520   42.1250    1.4590 C.3    17  GLN17       0.0408
     10  CG       -28.3590   43.0070    2.0130 C.3    17  GLN17       0.0908
     11  CD       -29.7110   42.3480    1.9180 C.2    17  GLN17       0.2608
     12  OE1      -29.8880   41.3640    1.2110 O.2    17  GLN17      -0.2717
     13  NE2      -30.6800   42.9000    2.6230 N.am   17  GLN17      -0.0878
     14  N        -23.9080   42.1280    0.3260 N.am   18  GLY18      -0.1940
     15  CA       -22.7460   41.2650   -0.0100 C.3    18  GLY18       0.2014
     16  C        -22.9820   40.2630   -1.1210 C.2    18  GLY18       0.2638
     17  O        -24.0460   40.2370   -1.7350 O.2    18  GLY18      -0.2714
     18  N        -21.9710   39.4250   -1.3760 N.am   19  TYR19      -0.1973
     19  CA       -21.9510   38.5230   -2.5180 C.3    19  TYR19       0.1639
     20  C        -21.8540   37.0970   -2.0090 C.2    19  TYR19       0.2290
     21  O        -20.9830   36.7860   -1.1880 O.2    19  TYR19      -0.2864
     22  CB       -20.7170   38.8190   -3.4060 C.3    19  TYR19       0.0560
     23  CG       -20.7520   40.1930   -4.0570 C.ar   19  TYR19      -0.0198
     24  CD1      -20.3460   41.3280   -3.3540 C.ar   19  TYR19      -0.0009
     25  CD2      -21.1840   40.3350   -5.3720 C.ar   19  TYR19      -0.0009
     26  CE1      -20.3720   42.5880   -3.9610 C.ar   19  TYR19       0.0417
     27  CE2      -21.2400   41.5840   -5.9730 C.ar   19  TYR19       0.0417
     28  CZ       -20.8470   42.6910   -5.2660 C.ar   19  TYR19       0.1957
     29  OH       -20.9120   43.9150   -5.8880 O.3    19  TYR19      -0.2866
     30  N        -21.9570   33.6640    2.0110 N.3    35  LEU35      -0.1245
     31  CA       -21.2260   34.9040    1.7380 C.3    35  LEU35       0.1561
     32  C        -19.7480   34.6120    1.4860 C.2    35  LEU35       0.2260
     33  O        -19.1050   33.8980    2.2490 O.2    35  LEU35      -0.2867
     34  CB       -21.3680   35.8340    2.9350 C.3    35  LEU35       0.0270
     35  CG       -20.7010   37.1870    2.7010 C.3    35  LEU35       0.0019
     36  CD1      -21.6890   38.1130    1.9810 C.3    35  LEU35       0.0001
     37  CD2      -20.2710   37.8160    4.0300 C.3    35  LEU35       0.0001
     38  N        -16.0890   35.5330    1.7010 N.3    37  ASP37      -0.1239
     39  CA       -15.3900   36.4200    2.6150 C.3    37  ASP37       0.1674
     40  C        -13.8750   36.1900    2.6100 C.2    37  ASP37       0.2266
     41  O        -13.3650   35.3390    3.3400 O.2    37  ASP37      -0.2867
     42  CB       -15.9370   36.2320    4.0470 C.3    37  ASP37       0.1410
     43  CG       -15.3800   37.2220    5.0200 C.2    37  ASP37       0.3668
     44  OD1      -14.6670   38.1730    4.6180 O.co2  37  ASP37      -0.2456
     45  OD2      -15.6710   37.0630    6.2250 O.co2  37  ASP37      -0.2456
     46  N        -11.8350   38.0580    4.0060 N.3    39  GLY39      -0.1210
     47  CA       -11.3410   38.7020    5.2310 C.3    39  GLY39       0.1956
     48  C        -11.4330   37.8420    6.4830 C.2    39  GLY39       0.2612
     49  O        -11.1650   38.3450    7.5790 O.2    39  GLY39      -0.2717
     50  N        -11.7820   36.5600    6.3280 N.am   40  SER40      -0.1952
     51  CA       -11.8290   35.6220    7.4740 C.3    40  SER40       0.1924
     52  C        -11.5440   34.2070    6.9880 C.2    40  SER40       0.2314
     53  O        -11.3960   33.9910    5.7790 O.2    40  SER40      -0.2863
     54  CB       -13.1910   35.7180    8.1810 C.3    40  SER40       0.2116
     55  OG       -14.2180   35.1860    7.3680 O.3    40  SER40      -0.2180
     56  N        -16.9610   39.6740   17.0490 N.3    76  TYR76      -0.1241
     57  CA       -16.4030   40.6650   16.1240 C.3    76  TYR76       0.1605
     58  C        -16.5000   42.0440   16.7960 C.2    76  TYR76       0.2264
     59  O        -16.9380   42.1300   17.9440 O.2    76  TYR76      -0.2867
     60  CB       -17.1610   40.6220   14.8010 C.3    76  TYR76       0.0534
     61  CG       -17.1580   39.2850   14.0940 C.ar   76  TYR76      -0.0201
     62  CD1      -15.9700   38.6860   13.6710 C.ar   76  TYR76      -0.0009
     63  CD2      -18.3620   38.6320   13.8250 C.ar   76  TYR76      -0.0009
     64  CE1      -15.9820   37.4470   13.0120 C.ar   76  TYR76       0.0417
     65  CE2      -18.3850   37.4270   13.1590 C.ar   76  TYR76       0.0417
     66  CZ       -17.2020   36.8330   12.7710 C.ar   76  TYR76       0.1957
     67  OH       -17.2750   35.6460   12.0880 O.3    76  TYR76      -0.2866
     68  N        -18.5640   44.5360   16.1760 N.3    78  GLN78      -0.1245
     69  CA       -19.9690   44.4990   16.5340 C.3    78  GLN78       0.1566
     70  C        -20.4700   43.1120   16.1730 C.2    78  GLN78       0.2260
     71  O        -20.1360   42.5830   15.1080 O.2    78  GLN78      -0.2867
     72  CB       -20.7730   45.5510   15.7740 C.3    78  GLN78       0.0367
     73  CG       -22.1690   45.7820   16.3540 C.3    78  GLN78       0.0905
     74  CD       -23.1300   46.4070   15.3590 C.2    78  GLN78       0.2608
     75  OE1      -23.2380   45.9550   14.2180 O.2    78  GLN78      -0.2717
     76  NE2      -23.8460   47.4430   15.7910 N.am   78  GLN78      -0.0878
     77  N        -25.2650   39.4460   13.3140 N.3   113  PHE113     -0.1241
     78  CA       -24.4280   38.7050   12.3600 C.3   113  PHE113      0.1605
     79  C        -25.2250   38.4740   11.0840 C.2   113  PHE113      0.2264
     80  O        -24.8340   38.9580   10.0190 O.2   113  PHE113     -0.2867
     81  CB       -23.8940   37.4070   12.9660 C.3   113  PHE113      0.0534
     82  CG       -23.0260   36.6040   12.0260 C.ar  113  PHE113     -0.0203
     83  CD1      -21.7630   37.0640   11.6540 C.ar  113  PHE113     -0.0042
     84  CD2      -23.4670   35.3790   11.5330 C.ar  113  PHE113     -0.0042
     85  CE1      -20.9680   36.3010   10.7710 C.ar  113  PHE113     -0.0003
     86  CE2      -22.6800   34.6190   10.6750 C.ar  113  PHE113     -0.0003
     87  CZ       -21.4300   35.0930   10.2960 C.ar  113  PHE113     -0.0000
     88  N        -28.3380   39.0290    8.4980 N.3   115  ILE115     -0.1245
     89  CA       -29.0240   40.2230    8.0480 C.3   115  ILE115      0.1561
     90  C        -30.4840   39.8910    7.7670 C.2   115  ILE115      0.2260
     91  O        -30.7850   38.9950    6.9840 O.2   115  ILE115     -0.2867
     92  CB       -28.3700   40.7720    6.7520 C.3   115  ILE115      0.0252
     93  CG1      -26.8970   41.1430    6.9980 C.3   115  ILE115      0.0019
     94  CG2      -29.1750   41.9610    6.1790 C.3   115  ILE115      0.0019
     95  CD1      -26.1330   41.3650    5.6940 C.3   115  ILE115      0.0001
     96  N        -28.5040   34.9000    2.3460 N.3   120  TRP120     -0.1241
     97  CA       -27.4080   34.0100    2.7050 C.3   120  TRP120      0.1605
     98  C        -27.4890   33.5920    4.1520 C.2   120  TRP120      0.2264
     99  O        -28.0400   34.3240    5.0050 O.2   120  TRP120     -0.2867
    100  CB       -26.0410   34.6120    2.3480 C.3   120  TRP120      0.0550
    101  CG       -25.7040   35.9580    2.9420 C.ar  120  TRP120      0.0003
    102  CD1      -25.8130   37.1730    2.3150 C.ar  120  TRP120      0.0946
    103  CD2      -25.1180   36.2250    4.2240 C.ar  120  TRP120      0.0152
    104  NE1      -25.3730   38.1850    3.1500 N.ar  120  TRP120     -0.2442
    105  CE2      -24.9210   37.6280    4.3160 C.ar  120  TRP120      0.0810
    106  CE3      -24.7510   35.4180    5.3120 C.ar  120  TRP120      0.0012
    107  CZ2      -24.3570   38.2360    5.4540 C.ar  120  TRP120      0.0191
    108  CZ3      -24.2110   36.0160    6.4450 C.ar  120  TRP120      0.0001
    109  CH2      -24.0230   37.4190    6.5060 C.ar  120  TRP120      0.0015
    110  N        -21.0580   31.9050    6.0620 N.3   123  ILE123     -0.1245
    111  CA       -19.9180   32.6240    5.4580 C.3   123  ILE123      0.1561
    112  C        -18.8160   31.6520    5.0910 C.2   123  ILE123      0.2260
    113  O        -18.5660   30.6620    5.7940 O.2   123  ILE123     -0.2867
    114  CB       -19.4000   33.7840    6.3700 C.3   123  ILE123      0.0252
    115  CG1      -18.7650   33.2420    7.6480 C.3   123  ILE123      0.0019
    116  CG2      -20.5700   34.8110    6.6780 C.3   123  ILE123      0.0019
    117  CD1      -18.0730   34.3370    8.5040 C.3   123  ILE123      0.0001
    118  N        -10.4690   42.4460    1.0640 N.3   227  ASP227     -0.1225
    119  CA       -11.5720   41.8500    1.8640 C.3   227  ASP227      0.1805
    120  C        -12.9480   41.9160    1.1860 C.2   227  ASP227      0.2598
    121  O        -13.6440   42.9480    1.2670 O.2   227  ASP227     -0.2718
    122  CB       -11.6600   42.5570    3.2280 C.3   227  ASP227      0.1424
    123  CG       -12.6510   41.8920    4.1630 C.2   227  ASP227      0.3668
    124  OD1      -13.1690   40.8170    3.7790 O.co2 227  ASP227     -0.2456
    125  OD2      -12.8980   42.4510    5.2600 O.co2 227  ASP227     -0.2456
    126  N        -13.3790   40.8240    0.5680 N.am  228  SER228     -0.1938
    127  CA       -14.6920   40.7840   -0.0670 C.3   228  SER228      0.2055
    128  C        -15.8370   40.8160    0.9400 C.2   228  SER228      0.2644
    129  O        -16.9920   40.9800    0.5320 O.2   228  SER228     -0.2714
    130  CB       -14.8480   39.5520   -0.9750 C.3   228  SER228      0.2130
    131  OG       -14.8000   38.3470   -0.1940 O.3   228  SER228     -0.2179
    132  N        -15.5200   40.6150    2.2150 N.am  229  GLY229     -0.1939
    133  CA       -16.5460   40.6450    3.2850 C.3   229  GLY229      0.2014
    134  C        -16.7270   41.9950    3.9630 C.2   229  GLY229      0.2640
    135  O        -17.3080   42.0740    5.0460 O.2   229  GLY229     -0.2714
    136  N        -16.2110   43.0570    3.3500 N.am  230  THR230     -0.1936
    137  CA       -16.3990   44.4270    3.8490 C.3   230  THR230      0.2028
    138  C        -16.8610   45.2590    2.6600 C.2   230  THR230      0.2642
    139  O        -16.3220   45.1320    1.5630 O.2   230  THR230     -0.2714
    140  CB       -15.0890   45.0080    4.4320 C.3   230  THR230      0.1808
    141  OG1      -14.7340   44.2920    5.6240 O.3   230  THR230     -0.2208
    142  CG2      -15.2130   46.5090    4.7580 C.3   230  THR230      0.0379
    143  N        -17.8770   46.0910    2.8600 N.am  231  THR231     -0.1950
    144  CA       -18.3140   46.9970    1.8000 C.3   231  THR231      0.1897
    145  C        -17.2740   48.0890    1.5050 C.2   231  THR231      0.2313
    146  O        -16.8690   48.2630    0.3490 O.2   231  THR231     -0.2863
    147  CB       -19.6370   47.7180    2.1730 C.3   231  THR231      0.1794
    148  OG1      -20.6710   46.7360    2.3290 O.3   231  THR231     -0.2208
    149  CG2      -20.0380   48.7120    1.0710 C.3   231  THR231      0.0378
    150  N        -22.3080   54.5630   -2.6340 N.3   306  ARG306     -0.1245
    151  CA       -23.1560   53.3570   -2.7050 C.3   306  ARG306      0.1563
    152  C        -24.6270   53.7550   -2.8520 C.2   306  ARG306      0.2260
    153  O        -25.1110   54.5550   -2.0640 O.2   306  ARG306     -0.2867
    154  CB       -23.0040   52.4900   -1.4450 C.3   306  ARG306      0.0307
    155  CG       -21.5660   52.2970   -0.9440 C.3   306  ARG306      0.0489
    156  CD       -20.6990   51.4950   -1.9080 C.3   306  ARG306      0.2205
    157  NE       -21.1150   50.0910   -2.0140 N.pl3 306  ARG306     -0.0865
    158  CZ       -20.5670   49.2060   -2.8450 C.cat 306  ARG306      0.5346
    159  NH1      -19.5830   49.5670   -3.6770 N.pl3 306  ARG306      0.1354
    160  NH2      -21.0040   47.9550   -2.8620 N.pl3 306  ARG306      0.1354
    161  N        -15.4550   45.8910   -1.0140 N.3   334  ALA334     -0.1245
    162  CA       -16.1810   45.8810   -2.2750 C.3   334  ALA334      0.1562
    163  C        -16.0140   47.1820   -3.0820 C.2   334  ALA334      0.2260
    164  O        -16.0080   47.1410   -4.3050 O.2   334  ALA334     -0.2867
    165  CB       -17.6670   45.5830   -2.0370 C.3   334  ALA334      0.0290
@<TRIPOS>BOND
     1    27    25   ar
     2    27    28   ar
     3    29    28    1
     4    25    23   ar
     5    28    26   ar
     6   164   163    2
     7    23    22    1
     8    23    24   ar
     9    26    24   ar
    10   159   158    1
    11    22    19    1
    12   163   162    1
    13   160   158    1
    14   152   151    1
    15   152   153    2
    16   158   157    2
    17   151   150    1
    18   151   154    1
    19    19    20    1
    20    19    18    1
    21   162   165    1
    22   162   161    1
    23   157   156    1
    24    20    21    2
    25   156   155    1
    26    17    16    2
    27   154   155    1
    28    18    16   am
    29    16    15    1
    30   130   131    1
    31   130   127    1
    32     1     2    1
    33   127   126    1
    34   127   128    1
    35    15    14    1
    36    14     7   am
    37   146   145    2
    38   129   128    2
    39   126   120   am
    40     2     3    1
    41     5     3   am
    42     5     6    1
    43   128   132   am
    44   118   119    1
    45   149   147    1
    46   120   121    2
    47   120   119    1
    48    12    11    2
    49     7     6    1
    50     7     8    2
    51     9     6    1
    52     9    10    1
    53    32    31    1
    54    32    33    2
    55   145   144    1
    56   139   138    2
    57     3     4    2
    58    38    39    1
    59    31    30    1
    60    31    34    1
    61   144   147    1
    62   144   143    1
    63   119   122    1
    64    11    10    1
    65    11    13   am
    66    36    35    1
    67   147   148    1
    68   132   133    1
    69   102   101   ar
    70   102   104   ar
    71    96    97    1
    72   100    97    1
    73   100   101    1
    74    40    39    1
    75    40    41    2
    76    39    42    1
    77   138   143   am
    78   138   137    1
    79    35    34    1
    80    35    37    1
    81    97    98    1
    82   101   103   ar
    83   104   105   ar
    84   122   123    1
    85   133   134    1
    86   136   137    1
    87   136   134   am
    88   124   123   ar
    89   137   140    1
    90   134   135    2
    91    46    47    1
    92    42    43    1
    93    98    99    2
    94   123   125   ar
    95   103   105   ar
    96   103   106   ar
    97   105   107   ar
    98   140   142    1
    99   140   141    1
   100    44    43   ar
   101    43    45   ar
   102   112   111    1
   103   112   113    2
   104    47    48    1
   105   106   108   ar
   106   107   109   ar
   107   111   110    1
   108   111   114    1
   109    95    93    1
   110    53    52    2
   111    94    92    1
   112    50    48   am
   113    50    51    1
   114   114   116    1
   115   114   115    1
   116   108   109   ar
   117    48    49    2
   118    92    93    1
   119    92    89    1
   120    91    90    2
   121    52    51    1
   122    55    54    1
   123    51    54    1
   124   115   117    1
   125    90    89    1
   126    89    88    1
   127    80    79    2
   128    87    86   ar
   129    87    85   ar
   130    86    84   ar
   131    85    83   ar
   132    79    78    1
   133    84    82   ar
   134    83    82   ar
   135    82    81    1
   136    67    66    1
   137    78    81    1
   138    78    77    1
   139    66    64   ar
   140    66    65   ar
   141    64    62   ar
   142    65    63   ar
   143    62    61   ar
   144    63    61   ar
   145    61    60    1
   146    75    74    2
   147    60    57    1
   148    71    70    2
   149    74    76   am
   150    74    73    1
   151    72    73    1
   152    72    69    1
   153    57    58    1
   154    57    56    1
   155    70    69    1
   156    68    69    1
   157    58    59    2
