@<TRIPOS>MOLECULE
tmp/5f02A00.pdb
 170 164 0 0 0
SMALL
GASTEIGER

@<TRIPOS>ATOM
      1  N          9.5040   36.8890   34.0520 N.3    19  GLN19      -0.1245
      2  CA         9.9580   37.9590   33.1690 C.3    19  GLN19       0.1566
      3  C          9.4240   39.3600   33.5170 C.2    19  GLN19       0.2260
      4  O          9.9410   40.3630   33.0200 O.2    19  GLN19      -0.2867
      5  CB         9.5750   37.6390   31.7220 C.3    19  GLN19       0.0367
      6  CG         8.0950   37.6330   31.3900 C.3    19  GLN19       0.0905
      7  CD         7.8240   37.1600   29.9660 C.2    19  GLN19       0.2608
      8  OE1        7.7570   35.9630   29.7050 O.2    19  GLN19      -0.2717
      9  NE2        7.6820   38.0940   29.0440 N.am   19  GLN19      -0.0878
     10  N          9.2390   42.2270   27.5530 N.3    23  GLY23      -0.1225
     11  CA         8.9780   41.2270   26.5040 C.3    23  GLY23       0.1811
     12  C         10.1970   40.3730   26.2120 C.2    23  GLY23       0.2280
     13  O         10.7170   40.3630   25.0960 O.2    23  GLY23      -0.2866
     14  N         10.4000   36.9070   26.9910 N.3    25  CYS25      -0.1221
     15  CA        10.0930   35.4670   27.0180 C.3    25  CYS25       0.1808
     16  C         11.1390   34.6210   26.2990 C.2    25  CYS25       0.2601
     17  O         11.5460   33.5630   26.7780 O.2    25  CYS25      -0.2717
     18  CB         8.7130   35.2000   26.4040 C.3    25  CYS25       0.0970
     19  SG         8.4370   35.8140   24.7410 S.3    25  CYS25      -0.0800
     20  N         11.5450   35.1240   25.1350 N.am   26  TRP26      -0.1976
     21  CA        12.5610   34.4790   24.3070 C.3    26  TRP26       0.1640
     22  C         13.8660   34.2300   25.0730 C.2    26  TRP26       0.2290
     23  O         14.5290   33.2190   24.8510 O.2    26  TRP26      -0.2864
     24  CB        12.8200   35.3240   23.0450 C.3    26  TRP26       0.0576
     25  CG        13.2440   36.7580   23.3810 C.ar   26  TRP26       0.0006
     26  CD1       12.4310   37.8400   23.5960 C.ar   26  TRP26       0.0946
     27  CD2       14.5820   37.2220   23.5720 C.ar   26  TRP26       0.0152
     28  NE1       13.1870   38.9490   23.8870 N.ar   26  TRP26      -0.2442
     29  CE2       14.5130   38.5970   23.8790 C.ar   26  TRP26       0.0810
     30  CE3       15.8380   36.6060   23.5020 C.ar   26  TRP26       0.0012
     31  CZ2       15.6630   39.3660   24.1430 C.ar   26  TRP26       0.0191
     32  CZ3       16.9580   37.3570   23.7610 C.ar   26  TRP26       0.0001
     33  CH2       16.8750   38.7160   24.0860 C.ar   26  TRP26       0.0015
     34  N         20.0340   40.2710   16.2990 N.3    61  GLY61      -0.1210
     35  CA        18.6480   40.5010   15.8610 C.3    61  GLY61       0.1956
     36  C         17.6280   40.6940   16.9700 C.2    61  GLY61       0.2612
     37  O         16.4760   40.9950   16.6830 O.2    61  GLY61      -0.2717
     38  N         18.0140   40.5060   18.2330 N.am   62  ASN62      -0.1960
     39  CA        17.0420   40.5890   19.3310 C.3    62  ASN62       0.1819
     40  C         16.7150   42.0410   19.6350 C.2    62  ASN62       0.2621
     41  O         17.5270   42.9470   19.3750 O.2    62  ASN62      -0.2715
     42  CB        17.5200   39.8200   20.5660 C.3    62  ASN62       0.1195
     43  CG        17.4420   38.3200   20.3650 C.2    62  ASN62       0.2630
     44  OD1       16.5030   37.8290   19.7120 O.2    62  ASN62      -0.2716
     45  ND2       18.4070   37.5680   20.9450 N.am   62  ASN62      -0.0877
     46  N         15.5090   42.2520   20.1550 N.am   63  GLU63      -0.1977
     47  CA        14.9790   43.5930   20.3870 C.3    63  GLU63       0.1602
     48  C         14.6150   43.7940   21.8590 C.2    63  GLU63       0.2287
     49  O         13.6240   44.4380   22.1930 O.2    63  GLU63      -0.2864
     50  CB        13.8060   43.8530   19.4200 C.3    63  GLU63       0.0415
     51  CG        14.3000   43.9140   17.9690 C.3    63  GLU63       0.1163
     52  CD        13.2070   44.1000   16.9060 C.2    63  GLU63       0.3649
     53  OE1       12.0070   43.9150   17.2060 O.co2  63  GLU63      -0.2457
     54  OE2       13.5690   44.4080   15.7360 O.co2  63  GLU63      -0.2457
     55  N         11.2110   44.2120   23.7580 N.3    66  ASN66      -0.1225
     56  CA        10.2280   44.2180   22.6840 C.3    66  ASN66       0.1785
     57  C         10.2280   42.9420   21.8320 C.2    66  ASN66       0.2598
     58  O          9.6350   42.9020   20.7720 O.2    66  ASN66      -0.2718
     59  CB        10.4260   45.4780   21.8560 C.3    66  ASN66       0.1169
     60  CG        10.1580   46.7570   22.6830 C.2    66  ASN66       0.2627
     61  OD1       10.9320   47.7180   22.6420 O.2    66  ASN66      -0.2716
     62  ND2        9.0740   46.7450   23.4580 N.am   66  ASN66      -0.0877
     63  N         10.8770   41.8910   22.3090 N.am   67  GLY67      -0.1942
     64  CA        10.8200   40.6060   21.6230 C.3    67  GLY67       0.2014
     65  C         12.1560   40.1560   21.0760 C.2    67  GLY67       0.2639
     66  O         13.1420   40.9090   21.0390 O.2    67  GLY67      -0.2714
     67  N         12.1690   38.9030   20.6360 N.am   68  GLY68      -0.1939
     68  CA        13.3930   38.2570   20.2000 C.3    68  GLY68       0.2014
     69  C         13.1630   36.8090   19.8460 C.2    68  GLY68       0.2639
     70  O         12.0430   36.2920   19.9490 O.2    68  GLY68      -0.2714
     71  N         14.2390   36.1580   19.4310 N.am   69  LEU69      -0.1963
     72  CA        14.2040   34.7480   19.0340 C.3    69  LEU69       0.1728
     73  C         15.2110   33.9580   19.8310 C.2    69  LEU69       0.2616
     74  O         16.3320   34.4300   20.0890 O.2    69  LEU69      -0.2715
     75  CB        14.5330   34.5740   17.5590 C.3    69  LEU69       0.0311
     76  CG        13.5050   35.0940   16.5490 C.3    69  LEU69       0.0022
     77  CD1       13.9940   34.8320   15.1160 C.3    69  LEU69       0.0001
     78  CD2       12.1180   34.4830   16.7670 C.3    69  LEU69       0.0001
     79  N         14.8140   32.7490   20.1960 N.am   70  MET70      -0.1963
     80  CA        15.7070   31.8850   20.9570 C.3    70  MET70       0.1736
     81  C         16.9690   31.5780   20.1310 C.2    70  MET70       0.2616
     82  O         18.0780   31.5620   20.6770 O.2    70  MET70      -0.2715
     83  CB        14.9690   30.6100   21.4050 C.3    70  MET70       0.0427
     84  CG        13.8460   30.8630   22.4390 C.3    70  MET70       0.0599
     85  SD        12.2950   31.5320   21.8110 S.3    70  MET70      -0.1393
     86  CE        11.5080   30.0120   21.1930 C.3    70  MET70       0.0692
     87  N         16.8170   31.3880   18.8120 N.am   71  ASP71      -0.1957
     88  CA        17.9910   31.0740   17.9940 C.3    71  ASP71       0.1840
     89  C         18.9520   32.2750   17.9260 C.2    71  ASP71       0.2622
     90  O         20.1600   32.0740   17.8560 O.2    71  ASP71      -0.2715
     91  CB        17.5720   30.6240   16.5850 C.3    71  ASP71       0.1450
     92  CG        16.9570   29.2320   16.5600 C.2    71  ASP71       0.3671
     93  OD1       16.9990   28.5240   17.5960 O.co2  71  ASP71      -0.2456
     94  OD2       16.4350   28.8560   15.4720 O.co2  71  ASP71      -0.2456
     95  N         18.4160   33.5070   17.9480 N.am   72  TYR72      -0.1974
     96  CA        19.2810   34.6940   17.9490 C.3    72  TYR72       0.1639
     97  C         20.0680   34.7130   19.2730 C.2    72  TYR72       0.2290
     98  O         21.2540   35.0590   19.2920 O.2    72  TYR72      -0.2864
     99  CB        18.5010   36.0150   17.8010 C.3    72  TYR72       0.0560
    100  CG        17.8030   36.2800   16.4860 C.ar   72  TYR72      -0.0198
    101  CD1       18.0820   35.5450   15.3350 C.ar   72  TYR72      -0.0009
    102  CD2       16.8770   37.3220   16.3870 C.ar   72  TYR72      -0.0009
    103  CE1       17.4430   35.8490   14.1280 C.ar   72  TYR72       0.0417
    104  CE2       16.2320   37.6230   15.2010 C.ar   72  TYR72       0.0417
    105  CZ        16.5090   36.8910   14.0760 C.ar   72  TYR72       0.1957
    106  OH        15.8340   37.2030   12.9200 O.3    72  TYR72      -0.2866
    107  N          9.4400   20.2880   11.8190 N.3   117  LYS117     -0.1245
    108  CA         8.1920   20.9140   12.2520 C.3   117  LYS117      0.1561
    109  C          7.0090   19.9230   12.3900 C.2   117  LYS117      0.2260
    110  O          5.9160   20.1220   11.8250 O.2   117  LYS117     -0.2867
    111  CB         7.8550   22.0630   11.2990 C.3   117  LYS117      0.0271
    112  CG         8.9290   23.1470   11.2010 C.3   117  LYS117      0.0035
    113  CD         8.5420   24.2260   10.1920 C.3   117  LYS117      0.0206
    114  CE         9.6890   25.2080    9.9340 C.3   117  LYS117      0.1093
    115  NZ         9.8070   26.2470   10.9850 N.3   117  LYS117     -0.1314
    116  N          8.2150   27.8970   20.3910 N.3   135  ALA135     -0.1245
    117  CA         7.3060   28.9820   20.1380 C.3   135  ALA135      0.1562
    118  C          5.8720   28.4430   20.2420 C.2   135  ALA135      0.2260
    119  O          5.5510   27.3850   19.6770 O.2   135  ALA135     -0.2867
    120  CB         7.5630   29.5130   18.7460 C.3   135  ALA135      0.0290
    121  N          0.5820   28.2090   13.1230 N.3   159  GLU159     -0.1245
    122  CA         1.5070   28.9590   12.2550 C.3   159  GLU159      0.1567
    123  C          1.9350   30.3100   12.8440 C.2   159  GLU159      0.2260
    124  O          3.0450   30.7870   12.5730 O.2   159  GLU159     -0.2867
    125  CB         0.8580   29.2050   10.8850 C.3   159  GLU159      0.0388
    126  CG         0.6700   27.9430   10.0310 C.3   159  GLU159      0.1160
    127  CD        -0.6410   27.2180   10.3110 C.2   159  GLU159      0.3649
    128  OE1       -1.7040   27.8820   10.3650 O.co2 159  GLU159     -0.2457
    129  OE2       -0.6140   25.9780   10.4640 O.co2 159  GLU159     -0.2457
    130  N          2.7870   32.0970   16.0560 N.3   161  MET161     -0.1230
    131  CA         3.1960   31.9980   17.4630 C.3   161  MET161      0.1702
    132  C          3.7220   33.3510   17.9370 C.2   161  MET161      0.2592
    133  O          4.2130   34.1520   17.1310 O.2   161  MET161     -0.2718
    134  CB         4.2870   30.9370   17.6500 C.3   161  MET161      0.0401
    135  CG         3.8790   29.5360   17.2340 C.3   161  MET161      0.0596
    136  SD         3.9780   29.1690   15.4720 S.3   161  MET161     -0.1393
    137  CE         5.7730   29.1620   15.2310 C.3   161  MET161      0.0692
    138  N          3.6330   33.5900   19.2440 N.am  162  ASP162     -0.1960
    139  CA         3.9630   34.8920   19.7970 C.3   162  ASP162      0.1840
    140  C          4.6310   34.8220   21.1680 C.2   162  ASP162      0.2622
    141  O          4.8390   35.8470   21.8250 O.2   162  ASP162     -0.2715
    142  CB         2.7010   35.7800   19.8340 C.3   162  ASP162      0.1450
    143  CG         1.6190   35.2680   20.7880 C.2   162  ASP162      0.3671
    144  OD1        1.7920   34.2090   21.4300 O.co2 162  ASP162     -0.2456
    145  OD2        0.5760   35.9710   20.9160 O.co2 162  ASP162     -0.2456
    146  N          4.9650   33.6160   21.6200 N.am  163  HIS163     -0.1959
    147  CA         5.4850   33.4390   22.9680 C.3   163  HIS163      0.1787
    148  C          6.4840   32.2600   23.0220 C.2   163  HIS163      0.2620
    149  O          6.2000   31.1610   22.5430 O.2   163  HIS163     -0.2715
    150  CB         4.3230   33.2310   23.9450 C.3   163  HIS163      0.0785
    151  CG         4.7230   33.2410   25.3920 C.ar  163  HIS163      0.0821
    152  ND1        5.4440   34.2690   25.9600 N.ar  163  HIS163     -0.2267
    153  CD2        4.4770   32.3610   26.3920 C.ar  163  HIS163      0.1154
    154  CE1        5.6510   34.0070   27.2390 C.ar  163  HIS163      0.1986
    155  NE2        5.0640   32.8590   27.5310 N.ar  163  HIS163     -0.2212
    156  N          7.6590   32.5240   23.5770 N.am  164  GLY164     -0.1954
    157  CA         8.7130   31.5400   23.6910 C.3   164  GLY164      0.1869
    158  C          8.6890   30.9230   25.0760 C.2   164  GLY164      0.2309
    159  O          8.7540   31.6380   26.0870 O.2   164  GLY164     -0.2863
    160  N          6.2890   24.0340   15.6580 N.3   212  SER212     -0.1202
    161  CA         6.5720   24.8380   14.4660 C.3   212  SER212      0.2020
    162  C          7.9030   25.6020   14.4930 C.2   212  SER212      0.2618
    163  O          8.4350   25.9510   13.4500 O.2   212  SER212     -0.2717
    164  CB         5.4250   25.8150   14.1880 C.3   212  SER212      0.2103
    165  OG         4.2310   25.1450   13.8530 O.3   212  SER212     -0.2182
    166  N          8.4360   25.8700   15.6750 N.am  213  ALA213     -0.1979
    167  CA         9.6890   26.6070   15.8080 C.3   213  ALA213      0.1597
    168  C         10.4190   26.1730   17.0800 C.2   213  ALA213      0.2287
    169  O         10.6660   26.9710   18.0120 O.2   213  ALA213     -0.2864
    170  CB         9.4530   28.1570   15.7310 C.3   213  ALA213      0.0319
@<TRIPOS>BOND
     1   114   113    1
     2   114   115    1
     3   126   127    1
     4   126   125    1
     5   113   112    1
     6   127   128   ar
     7   127   129   ar
     8   125   122    1
     9   112   111    1
    10   111   108    1
    11   107   108    1
    12   110   109    2
    13   108   109    1
    14   122   123    1
    15   122   121    1
    16   124   123    2
    17   106   105    1
    18   163   162    2
    19   165   164    1
    20   105   103   ar
    21   105   104   ar
    22   103   101   ar
    23   164   161    1
    24   161   162    1
    25   161   160    1
    26   162   166   am
    27    77    76    1
    28   104   102   ar
    29   137   136    1
    30   101   100   ar
    31   136   135    1
    32    94    92   ar
    33   166   167    1
    34   170   167    1
    35    54    52   ar
    36   167   168    1
    37    35    34    1
    38    35    36    1
    39   130   131    1
    40   102   100   ar
    41   100    99    1
    42    76    78    1
    43    76    75    1
    44    92    91    1
    45    92    93   ar
    46    91    88    1
    47    37    36    2
    48    52    53   ar
    49    52    51    1
    50    36    38   am
    51   168   169    2
    52   133   132    2
    53   135   134    1
    54   131   134    1
    55   131   132    1
    56    75    72    1
    57    99    96    1
    58    90    89    2
    59    89    95   am
    60    89    88    1
    61   132   138   am
    62    95    96    1
    63    96    97    1
    64    51    50    1
    65    88    87    1
    66    38    39    1
    67   120   117    1
    68    87    81   am
    69    72    71    1
    70    72    73    1
    71   138   139    1
    72    97    98    2
    73    39    40    1
    74    39    42    1
    75    41    40    2
    76    50    47    1
    77    71    69   am
    78    40    46   am
    79   119   118    2
    80    44    43    2
    81   139   142    1
    82   139   140    1
    83    73    74    2
    84    73    79   am
    85   142   143    1
    86    69    70    2
    87    69    68    1
    88    81    82    2
    89    81    80    1
    90   117   118    1
    91   117   116    1
    92    46    47    1
    93    79    80    1
    94    68    67    1
    95    43    42    1
    96    43    45   am
    97    47    48    1
    98    67    65   am
    99    58    57    2
   100   143   145   ar
   101   143   144   ar
   102    80    83    1
   103    66    65    2
   104    65    64    1
   105   140   146   am
   106   140   141    2
   107    86    85    1
   108    83    84    1
   109   146   147    1
   110    64    63    1
   111    85    84    1
   112    57    63   am
   113    57    56    1
   114    59    60    1
   115    59    56    1
   116    48    49    2
   117   149   148    2
   118    61    60    2
   119    60    62   am
   120    56    55    1
   121   147   148    1
   122   147   150    1
   123   148   156   am
   124    24    25    1
   125    24    21    1
   126    25    27   ar
   127    25    26   ar
   128    30    27   ar
   129    30    32   ar
   130    27    29   ar
   131   156   157    1
   132    26    28   ar
   133   157   158    1
   134    32    33   ar
   135    29    28   ar
   136    29    31   ar
   137   150   151    1
   138    33    31   ar
   139    21    22    1
   140    21    20    1
   141    19    18    1
   142    23    22    2
   143   158   159    2
   144    13    12    2
   145    20    16   am
   146   151   152   ar
   147   151   153   ar
   148   152   154   ar
   149    12    11    1
   150    16    17    2
   151    16    15    1
   152   153   155   ar
   153    18    15    1
   154    11    10    1
   155    14    15    1
   156   154   155   ar
   157     9     7   am
   158     8     7    2
   159     7     6    1
   160     6     5    1
   161     5     2    1
   162     4     3    2
   163     2     3    1
   164     2     1    1
