@<TRIPOS>MOLECULE
tmp/5f03A00.pdb
 164 158 0 0 0
SMALL
GASTEIGER

@<TRIPOS>ATOM
      1  N        -27.9150   14.5820   -6.8310 N.3    44  HIS44      -0.1241
      2  CA       -27.9210   14.2630   -8.2700 C.3    44  HIS44       0.1621
      3  C        -28.3290   12.8020   -8.5360 C.2    44  HIS44       0.2264
      4  O        -28.6910   12.4450   -9.6470 O.2    44  HIS44      -0.2867
      5  CB       -26.5930   14.6340   -8.9550 C.3    44  HIS44       0.0745
      6  CG       -25.5240   13.5940   -8.8330 C.ar   44  HIS44       0.0817
      7  ND1      -24.5020   13.6780   -7.9090 N.ar   44  HIS44      -0.2268
      8  CD2      -25.3140   12.4520   -9.5300 C.ar   44  HIS44       0.1154
      9  CE1      -23.7190   12.6230   -8.0360 C.ar   44  HIS44       0.1986
     10  NE2      -24.1840   11.8720   -9.0240 N.ar   44  HIS44      -0.2212
     11  N        -24.5710   19.2750   -9.8600 N.3    86  ALA86      -0.1231
     12  CA       -23.5080   18.9250   -8.9390 C.3    86  ALA86       0.1694
     13  C        -22.3630   19.9300   -8.9590 C.2    86  ALA86       0.2591
     14  O        -21.8020   20.2370   -7.9140 O.2    86  ALA86      -0.2718
     15  CB       -23.0090   17.5240   -9.2230 C.3    86  ALA86       0.0304
     16  N        -22.0410   20.4680  -10.1410 N.am   87  GLN87      -0.1979
     17  CA       -20.9470   21.4610  -10.2830 C.3    87  GLN87       0.1601
     18  C        -21.2350   22.7690   -9.5810 C.2    87  GLN87       0.2287
     19  O        -20.3100   23.4540   -9.1330 O.2    87  GLN87      -0.2864
     20  CB       -20.6190   21.7360  -11.7500 C.3    87  GLN87       0.0394
     21  CG       -20.0410   20.5200  -12.4540 C.3    87  GLN87       0.0908
     22  CD       -21.1220   19.5390  -12.7970 C.2    87  GLN87       0.2608
     23  OE1      -22.2750   19.9290  -13.0360 O.2    87  GLN87      -0.2717
     24  NE2      -20.7840   18.2550  -12.7820 N.am   87  GLN87      -0.0878
     25  N         -8.0100   22.2470  -10.7990 N.3   162  TYR162     -0.1241
     26  CA        -9.1260   22.2430  -11.7350 C.3   162  TYR162      0.1605
     27  C         -9.0320   23.3070  -12.8160 C.2   162  TYR162      0.2264
     28  O         -9.6360   23.1740  -13.8790 O.2   162  TYR162     -0.2867
     29  CB       -10.5000   22.2600  -11.0250 C.3   162  TYR162      0.0534
     30  CG       -11.0320   20.8570  -10.8930 C.ar  162  TYR162     -0.0201
     31  CD1      -10.5990   20.0300   -9.8480 C.ar  162  TYR162     -0.0009
     32  CD2      -11.9630   20.3470  -11.8050 C.ar  162  TYR162     -0.0009
     33  CE1      -11.0380   18.6990   -9.7260 C.ar  162  TYR162      0.0417
     34  CE2      -12.4060   18.9940  -11.7050 C.ar  162  TYR162      0.0417
     35  CZ       -11.9350   18.1980  -10.6610 C.ar  162  TYR162      0.1957
     36  OH       -12.3660   16.9010  -10.5460 O.3   162  TYR162     -0.2866
     37  N         -7.2870   24.2380  -18.3860 N.3   166  ALA166     -0.1245
     38  CA        -8.6470   24.7380  -18.6300 C.3   166  ALA166      0.1562
     39  C         -8.6340   26.2030  -19.0180 C.2   166  ALA166      0.2260
     40  O         -7.7200   26.9280  -18.6640 O.2   166  ALA166     -0.2867
     41  CB        -9.5440   24.5210  -17.4200 C.3   166  ALA166      0.0290
     42  N        -10.8980   28.3840  -18.0330 N.3   168  THR168     -0.1218
     43  CA       -11.5800   29.1500  -16.9770 C.3   168  THR168      0.1862
     44  C        -10.6100   30.1100  -16.2690 C.2   168  THR168      0.2287
     45  O         -9.5220   29.7090  -15.9200 O.2   168  THR168     -0.2866
     46  CB       -12.2510   28.1690  -15.9750 C.3   168  THR168      0.1770
     47  OG1      -12.9560   27.1560  -16.7060 O.3   168  THR168     -0.2211
     48  CG2      -13.2560   28.8780  -15.0710 C.3   168  THR168      0.0375
     49  N        -14.0380   27.1670   -9.0610 N.3   174  ILE174     -0.1245
     50  CA       -14.7160   25.9410   -9.4900 C.3   174  ILE174      0.1561
     51  C        -15.0280   25.0270   -8.3070 C.2   174  ILE174      0.2260
     52  O        -16.1280   24.4760   -8.2030 O.2   174  ILE174     -0.2867
     53  CB       -13.8360   25.1840  -10.4940 C.3   174  ILE174      0.0252
     54  CG1      -13.6430   26.0590  -11.7360 C.3   174  ILE174      0.0019
     55  CG2      -14.4680   23.8170  -10.8640 C.3   174  ILE174      0.0019
     56  CD1      -12.5640   25.5820  -12.6880 C.3   174  ILE174      0.0001
     57  N         -9.5180    6.8600   -6.0890 N.3   188  ASP188     -0.1225
     58  CA       -10.6370    7.7650   -6.3300 C.3   188  ASP188      0.1805
     59  C        -11.9590    7.0120   -6.2440 C.2   188  ASP188      0.2598
     60  O        -11.9930    5.7800   -6.2320 O.2   188  ASP188     -0.2718
     61  CB       -10.4670    8.4180   -7.7270 C.3   188  ASP188      0.1424
     62  CG       -11.2240    9.7430   -7.8810 C.2   188  ASP188      0.3668
     63  OD1      -11.9190   10.2030   -6.9420 O.co2 188  ASP188     -0.2456
     64  OD2      -11.1190   10.3120   -8.9870 O.co2 188  ASP188     -0.2456
     65  N        -13.0520    7.7650   -6.1500 N.am  189  SER189     -0.1938
     66  CA       -14.3570    7.2180   -6.3890 C.3   189  SER189      0.2055
     67  C        -14.6550    7.4370   -7.8790 C.2   189  SER189      0.2643
     68  O        -13.9270    8.1450   -8.6030 O.2   189  SER189     -0.2714
     69  CB       -15.3820    7.9750   -5.5440 C.3   189  SER189      0.2130
     70  OG       -15.1440    9.3700   -5.7050 O.3   189  SER189     -0.2179
     71  N        -15.7500    6.8460   -8.3210 N.am  190  CYS190     -0.1953
     72  CA       -16.0670    6.8280   -9.7200 C.3   190  CYS190      0.1843
     73  C        -17.5770    6.7020   -9.8730 C.2   190  CYS190      0.2625
     74  O        -18.3100    6.6300   -8.8780 O.2   190  CYS190     -0.2714
     75  CB       -15.2670    5.7110  -10.4370 C.3   190  CYS190      0.0997
     76  SG       -15.0410    5.9680  -12.2250 S.3   190  CYS190     -0.0797
     77  N        -18.0540    6.7680  -11.1170 N.am  191  GLN191     -0.1977
     78  CA       -19.4730    6.6880  -11.3910 C.3   191  GLN191      0.1601
     79  C        -20.0160    5.4610  -10.6950 C.2   191  GLN191      0.2287
     80  O        -19.4080    4.3910  -10.7810 O.2   191  GLN191     -0.2864
     81  CB       -19.7010    6.5340  -12.8970 C.3   191  GLN191      0.0394
     82  CG       -19.7530    7.8380  -13.6580 C.3   191  GLN191      0.0908
     83  CD       -18.3930    8.4000  -14.0340 C.2   191  GLN191      0.2608
     84  OE1      -17.3460    7.8560  -13.6910 O.2   191  GLN191     -0.2717
     85  NE2      -18.4140    9.4920  -14.7890 N.am  191  GLN191     -0.0878
     86  N        -21.2760    7.6120   -6.4680 N.3   194  SER194     -0.1217
     87  CA       -22.0000    8.8410   -6.1440 C.3   194  SER194      0.1889
     88  C        -23.0100    8.6220   -5.0590 C.2   194  SER194      0.2288
     89  O        -23.7080    7.5850   -5.0450 O.2   194  SER194     -0.2866
     90  CB       -22.7050    9.3820   -7.3720 C.3   194  SER194      0.2089
     91  OG       -21.7700    9.7830   -8.3340 O.3   194  SER194     -0.2183
     92  N        -19.9430   11.5530   -2.0350 N.3   212  VAL212     -0.1231
     93  CA       -19.4170   11.4650   -3.3930 C.3   212  VAL212      0.1692
     94  C        -20.3100   12.2450   -4.3590 C.2   212  VAL212      0.2593
     95  O        -21.5040   11.9500   -4.4750 O.2   212  VAL212     -0.2718
     96  CB       -19.2560   10.0190   -3.9190 C.3   212  VAL212      0.0266
     97  CG1      -18.6480   10.0570   -5.3270 C.3   212  VAL212      0.0020
     98  CG2      -18.3760    9.1880   -2.9970 C.3   212  VAL212      0.0020
     99  N        -19.7110   13.2090   -5.0700 N.am  213  SER213     -0.1938
    100  CA       -20.4930   14.1570   -5.8730 C.3   213  SER213      0.2055
    101  C        -20.1150   14.2270   -7.3680 C.2   213  SER213      0.2643
    102  O        -20.9230   13.8540   -8.2100 O.2   213  SER213     -0.2714
    103  CB       -20.4250   15.5410   -5.2360 C.3   213  SER213      0.2130
    104  OG       -21.2310   16.4740   -5.9440 O.3   213  SER213     -0.2179
    105  N        -18.9080   14.6940   -7.6930 N.am  214  TRP214     -0.1959
    106  CA       -18.5090   14.8000   -9.1140 C.3   214  TRP214      0.1771
    107  C        -17.0050   14.8710   -9.2950 C.2   214  TRP214      0.2620
    108  O        -16.2480   14.7810   -8.3330 O.2   214  TRP214     -0.2715
    109  CB       -19.1800   16.0130   -9.7910 C.3   214  TRP214      0.0590
    110  CG       -18.7360   17.3760   -9.2800 C.ar  214  TRP214      0.0006
    111  CD1      -19.0540   17.9470   -8.0810 C.ar  214  TRP214      0.0946
    112  CD2      -17.9390   18.3470   -9.9880 C.ar  214  TRP214      0.0152
    113  NE1      -18.4950   19.2100   -7.9880 N.ar  214  TRP214     -0.2442
    114  CE2      -17.8100   19.4810   -9.1430 C.ar  214  TRP214      0.0810
    115  CE3      -17.3090   18.3590  -11.2450 C.ar  214  TRP214      0.0012
    116  CZ2      -17.0800   20.6080   -9.5030 C.ar  214  TRP214      0.0191
    117  CZ3      -16.5900   19.5050  -11.6140 C.ar  214  TRP214      0.0001
    118  CH2      -16.4760   20.6030  -10.7360 C.ar  214  TRP214      0.0015
    119  N        -16.5780   15.0330  -10.5450 N.am  215  GLY215     -0.1940
    120  CA       -15.1800   15.2970  -10.8590 C.3   215  GLY215      0.2014
    121  C        -15.0410   15.0900  -12.3500 C.2   215  GLY215      0.2639
    122  O        -15.9920   14.6430  -13.0190 O.2   215  GLY215     -0.2714
    123  N        -13.8690   15.4070  -12.8880 N.am  216  GLU216     -0.1963
    124  CA       -13.6570   15.1080  -14.2850 C.3   216  GLU216      0.1733
    125  C        -13.1450   13.6890  -14.3660 C.2   216  GLU216      0.2617
    126  O        -11.9640   13.4360  -14.1160 O.2   216  GLU216     -0.2715
    127  CB       -12.6490   16.0560  -14.9390 C.3   216  GLU216      0.0429
    128  CG       -12.5280   15.7760  -16.4350 C.3   216  GLU216      0.1163
    129  CD       -11.5180   16.6690  -17.1590 C.2   216  GLU216      0.3649
    130  OE1      -10.7070   16.1090  -17.9120 O.co2 216  GLU216     -0.2457
    131  OE2      -11.5080   17.9000  -16.9770 O.co2 216  GLU216     -0.2457
    132  N        -14.0410   12.7600  -14.6760 N.am  217  GLY217     -0.1940
    133  CA       -13.6560   11.3470  -14.8060 C.3   217  GLY217      0.2014
    134  C        -13.1940   10.8220  -13.4570 C.2   217  GLY217      0.2639
    135  O        -13.5550   11.3780  -12.4140 O.2   217  GLY217     -0.2714
    136  N        -12.3500    9.7860  -13.4900 N.am  218  CYS218     -0.1967
    137  CA       -11.8900    9.1170  -12.2810 C.3   218  CYS218      0.1712
    138  C        -10.3780    8.9580  -12.3340 C.2   218  CYS218      0.2296
    139  O         -9.8420    8.4540  -13.3230 O.2   218  CYS218     -0.2864
    140  CB       -12.5600    7.7400  -12.1900 C.3   218  CYS218      0.0983
    141  SG       -14.3380    7.8790  -12.4360 S.3   218  CYS218     -0.0798
    142  N         -7.2640   16.3410  -11.4990 N.3   223  ARG223     -0.1245
    143  CA        -8.7290   16.3010  -11.3390 C.3   223  ARG223      0.1563
    144  C         -9.1520   15.3890  -10.1720 C.2   223  ARG223      0.2260
    145  O         -9.7490   14.3210  -10.4030 O.2   223  ARG223     -0.2867
    146  CB        -9.4090   15.8640  -12.6470 C.3   223  ARG223      0.0307
    147  CG        -9.1210   16.7440  -13.8780 C.3   223  ARG223      0.0489
    148  CD        -9.7990   18.1470  -13.7960 C.3   223  ARG223      0.2205
    149  NE        -9.6100   18.9310  -15.0310 N.pl3 223  ARG223     -0.0865
    150  CZ        -8.5980   19.7860  -15.2450 C.cat 223  ARG223      0.5346
    151  NH1       -7.6750   19.9900  -14.3120 N.pl3 223  ARG223      0.1354
    152  NH2       -8.4990   20.4480  -16.4060 N.pl3 223  ARG223      0.1354
    153  N        -11.2290   13.9030   -6.9350 N.3   225  GLY225     -0.1210
    154  CA       -12.6650   13.7040   -6.7400 C.3   225  GLY225      0.1956
    155  C        -13.2370   14.8060   -5.8700 C.2   225  GLY225      0.2611
    156  O        -12.5630   15.2840   -4.9470 O.2   225  GLY225     -0.2717
    157  N        -14.4870   15.1860   -6.1540 N.am  226  ILE226     -0.1979
    158  CA       -15.1440   16.2750   -5.4480 C.3   226  ILE226      0.1595
    159  C        -16.3720   15.7580   -4.6960 C.2   226  ILE226      0.2287
    160  O        -17.1770   14.9970   -5.2460 O.2   226  ILE226     -0.2864
    161  CB       -15.4880   17.4540   -6.3800 C.3   226  ILE226      0.0276
    162  CG1      -14.2170   17.9610   -7.0990 C.3   226  ILE226      0.0022
    163  CG2      -16.1100   18.6060   -5.5840 C.3   226  ILE226      0.0022
    164  CD1      -14.5160   18.9290   -8.2590 C.3   226  ILE226      0.0001
@<TRIPOS>BOND
     1    39    40    2
     2    39    38    1
     3    38    37    1
     4    38    41    1
     5    42    43    1
     6   130   129   ar
     7   129   131   ar
     8   129   128    1
     9    43    44    1
    10    43    46    1
    11    47    46    1
    12   128   127    1
    13   152   150    1
    14    44    45    2
    15    46    48    1
    16   150   149    2
    17   150   151    1
    18   149   148    1
    19   127   124    1
    20   133   132    1
    21   133   134    1
    22    85    83   am
    23   132   125   am
    24   125   124    1
    25   125   126    2
    26   124   123    1
    27    83    84    2
    28    83    82    1
    29    28    27    2
    30   147   148    1
    31   147   146    1
    32    82    81    1
    33   136   134   am
    34   136   137    1
    35   134   135    2
    36   139   138    2
    37    23    22    2
    38   122   121    2
    39    81    78    1
    40   123   121   am
    41    27    26    1
    42    22    24   am
    43    22    21    1
    44    56    54    1
    45   146   143    1
    46    21    20    1
    47   141    76    1
    48   141   140    1
    49   121   120    1
    50   138   137    1
    51   137   140    1
    52    76    75    1
    53    32    34   ar
    54    32    30   ar
    55    20    17    1
    56    54    53    1
    57    26    29    1
    58    26    25    1
    59    34    35   ar
    60   117   115   ar
    61   117   118   ar
    62   142   143    1
    63    78    77    1
    64    78    79    1
    65   143   144    1
    66   115   112   ar
    67    77    73   am
    68    29    30    1
    69    30    31   ar
    70    55    53    1
    71   120   119    1
    72    80    79    2
    73   118   116   ar
    74    35    36    1
    75    35    33   ar
    76   119   107   am
    77    53    50    1
    78    75    72    1
    79   145   144    2
    80    17    16    1
    81    17    18    1
    82    16    13   am
    83   112   110   ar
    84   112   114   ar
    85    73    72    1
    86    73    74    2
    87    11    12    1
    88    31    33   ar
    89   109   110    1
    90   109   106    1
    91    72    71    1
    92     4     3    2
    93    18    19    2
    94     8    10   ar
    95     8     6   ar
    96   116   114   ar
    97    50    49    1
    98    50    51    1
    99   107   106    1
   100   107   108    2
   101   110   111   ar
   102    15    12    1
   103   114   113   ar
   104   106   105    1
   105    10     9   ar
   106    64    62   ar
   107    13    12    1
   108    13    14    2
   109     5     6    1
   110     5     2    1
   111     6     7   ar
   112    68    67    2
   113     3     2    1
   114    91    90    1
   115    71    67   am
   116    51    52    2
   117     2     1    1
   118   164   162    1
   119   102   101    2
   120   111   113   ar
   121     9     7   ar
   122    62    61    1
   123    62    63   ar
   124    67    66    1
   125    61    58    1
   126   105   101   am
   127    90    87    1
   128   101   100    1
   129   162   161    1
   130   153   154    1
   131   154   155    1
   132    86    87    1
   133    66    65    1
   134    66    69    1
   135   161   163    1
   136   161   158    1
   137    58    59    1
   138    58    57    1
   139    59    60    2
   140    59    65   am
   141   157   155   am
   142   157   158    1
   143    87    88    1
   144   104   103    1
   145   100   103    1
   146   100    99    1
   147   155   156    2
   148    70    69    1
   149   158   159    1
   150    97    96    1
   151   160   159    2
   152    99    94   am
   153    88    89    2
   154    95    94    2
   155    94    93    1
   156    96    93    1
   157    96    98    1
   158    93    92    1
