@<TRIPOS>MOLECULE
tmp/5f04A00.pdb
 222 219 0 0 0
SMALL
GASTEIGER

@<TRIPOS>ATOM
      1  N         35.4230    6.5580   -3.0700 N.3    64  LEU64      -0.1245
      2  CA        34.1610    6.2830   -3.7380 C.3    64  LEU64       0.1561
      3  C         34.3550    5.2740   -4.8660 C.2    64  LEU64       0.2260
      4  O         33.5330    4.3680   -5.0440 O.2    64  LEU64      -0.2867
      5  CB        33.5600    7.5920   -4.2500 C.3    64  LEU64       0.0270
      6  CG        32.0410    7.6980   -4.1620 C.3    64  LEU64       0.0019
      7  CD1       31.5430    7.3310   -2.7840 C.3    64  LEU64       0.0001
      8  CD2       31.6490    9.1090   -4.4570 C.3    64  LEU64       0.0001
      9  N         23.6150    1.0420    1.6160 N.3    79  MET79      -0.1230
     10  CA        24.5580    1.2850    0.5270 C.3    79  MET79       0.1702
     11  C         24.7380    2.7800    0.2720 C.2    79  MET79       0.2592
     12  O         25.8690    3.2500    0.0990 O.2    79  MET79      -0.2718
     13  CB        24.1010    0.5530   -0.7350 C.3    79  MET79       0.0401
     14  CG        24.2750   -0.9650   -0.5990 C.3    79  MET79       0.0596
     15  SD        23.8730   -1.9250   -2.0750 S.3    79  MET79      -0.1393
     16  CE        22.1440   -1.5750   -2.2410 C.3    79  MET79       0.0692
     17  N         23.6420    3.5440    0.2600 N.am   80  TRP80      -0.1976
     18  CA        23.7600    4.9970    0.1280 C.3    80  TRP80       0.1640
     19  C         24.4970    5.5970    1.3200 C.2    80  TRP80       0.2290
     20  O         25.3380    6.4890    1.1600 O.2    80  TRP80      -0.2864
     21  CB        22.3790    5.6320   -0.0150 C.3    80  TRP80       0.0576
     22  CG        21.7180    5.3200   -1.3400 C.ar   80  TRP80       0.0006
     23  CD1       20.6940    4.4390   -1.5650 C.ar   80  TRP80       0.0946
     24  CD2       22.0440    5.8920   -2.6080 C.ar   80  TRP80       0.0152
     25  NE1       20.3670    4.4260   -2.9120 N.ar   80  TRP80      -0.2442
     26  CE2       21.1830    5.3070   -3.5700 C.ar   80  TRP80       0.0810
     27  CE3       22.9910    6.8280   -3.0300 C.ar   80  TRP80       0.0012
     28  CZ2       21.2390    5.6420   -4.9250 C.ar   80  TRP80       0.0191
     29  CZ3       23.0490    7.1520   -4.3800 C.ar   80  TRP80       0.0001
     30  CH2       22.1700    6.5680   -5.3060 C.ar   80  TRP80       0.0015
     31  N         28.1640    5.3480    0.9340 N.3    83  GLY83      -0.1210
     32  CA        28.7000    6.2730   -0.0540 C.3    83  GLY83       0.1956
     33  C         28.8250    7.6930    0.4710 C.2    83  GLY83       0.2611
     34  O         29.8780    8.3210    0.3470 O.2    83  GLY83      -0.2717
     35  N         27.7490    8.2190    1.0650 N.am   84  ILE84      -0.1979
     36  CA        27.8070    9.5470    1.6730 C.3    84  ILE84       0.1595
     37  C         28.8630    9.5950    2.7680 C.2    84  ILE84       0.2287
     38  O         29.5290   10.6200    2.9650 O.2    84  ILE84      -0.2864
     39  CB        26.4050    9.9380    2.1970 C.3    84  ILE84       0.0276
     40  CG1       25.3910    9.9430    1.0360 C.3    84  ILE84       0.0022
     41  CG2       26.4490   11.2890    2.9080 C.3    84  ILE84       0.0022
     42  CD1       23.9420   10.0140    1.4750 C.3    84  ILE84       0.0001
     43  N         32.3280   11.0160    1.9280 N.3    87  PHE87      -0.1241
     44  CA        32.5110   12.4600    1.9970 C.3    87  PHE87       0.1605
     45  C         32.4940   12.9480    3.4310 C.2    87  PHE87       0.2264
     46  O         33.2750   13.8290    3.7980 O.2    87  PHE87      -0.2867
     47  CB        31.4500   13.1500    1.1580 C.3    87  PHE87       0.0534
     48  CG        31.5800   12.8110   -0.2790 C.ar   87  PHE87      -0.0203
     49  CD1       32.4620   13.5040   -1.0690 C.ar   87  PHE87      -0.0042
     50  CD2       30.9120   11.7400   -0.8070 C.ar   87  PHE87      -0.0042
     51  CE1       32.6240   13.1680   -2.3800 C.ar   87  PHE87      -0.0003
     52  CE2       31.0800   11.4020   -2.1220 C.ar   87  PHE87      -0.0003
     53  CZ        31.9350   12.1240   -2.9090 C.ar   87  PHE87      -0.0000
     54  N         36.3520   14.6730    4.1290 N.3    91  PHE91      -0.1241
     55  CA        36.4110   16.0970    4.4170 C.3    91  PHE91       0.1605
     56  C         36.3360   16.3620    5.9130 C.2    91  PHE91       0.2264
     57  O         36.9660   17.3050    6.4040 O.2    91  PHE91      -0.2867
     58  CB        35.2940   16.7970    3.6700 C.3    91  PHE91       0.0534
     59  CG        35.4960   16.7690    2.1830 C.ar   91  PHE91      -0.0203
     60  CD1       36.3510   17.6810    1.5840 C.ar   91  PHE91      -0.0042
     61  CD2       34.8840   15.8070    1.4030 C.ar   91  PHE91      -0.0042
     62  CE1       36.5640   17.6490    0.2000 C.ar   91  PHE91      -0.0003
     63  CE2       35.0880   15.7700    0.0270 C.ar   91  PHE91      -0.0003
     64  CZ        35.9310   16.6910   -0.5690 C.ar   91  PHE91      -0.0000
     65  N         39.1850   21.8270    4.2620 N.3    98  THR98      -0.1218
     66  CA        37.8580   21.9960    3.6700 C.3    98  THR98       0.1862
     67  C         37.3730   23.4340    3.8180 C.2    98  THR98       0.2287
     68  O         36.8530   24.0270    2.8670 O.2    98  THR98      -0.2866
     69  CB        36.8560   21.0330    4.3160 C.3    98  THR98       0.1770
     70  OG1       37.2870   19.6830    4.1270 O.3    98  THR98      -0.2211
     71  CG2       35.4740   21.2020    3.6830 C.3    98  THR98       0.0375
     72  N         36.9890   25.9660    0.5660 N.3   102  GLN102     -0.1245
     73  CA        35.7420   26.5740    0.1110 C.3   102  GLN102      0.1566
     74  C         35.8720   28.0910    0.0530 C.2   102  GLN102      0.2260
     75  O         35.3460   28.7300   -0.8650 O.2   102  GLN102     -0.2867
     76  CB        34.5740   26.1560    1.0140 C.3   102  GLN102      0.0367
     77  CG        34.1400   24.6790    0.8650 C.3   102  GLN102      0.0905
     78  CD        33.4910   24.3610   -0.4820 C.2   102  GLN102      0.2608
     79  OE1       33.1990   25.2540   -1.2730 O.2   102  GLN102     -0.2717
     80  NE2       33.2410   23.0830   -0.7300 N.am  102  GLN102     -0.0878
     81  N         36.8000   22.0620   -7.5410 N.3   115  TRP115     -0.1241
     82  CA        35.5240   21.7010   -6.9170 C.3   115  TRP115      0.1605
     83  C         34.4870   21.3420   -7.9740 C.2   115  TRP115      0.2264
     84  O         33.7710   20.3430   -7.8490 O.2   115  TRP115     -0.2867
     85  CB        34.9890   22.8450   -6.0450 C.3   115  TRP115      0.0550
     86  CG        35.6050   23.0500   -4.6920 C.ar  115  TRP115      0.0003
     87  CD1       36.3320   24.1310   -4.2740 C.ar  115  TRP115      0.0946
     88  CD2       35.5180   22.1700   -3.5650 C.ar  115  TRP115      0.0152
     89  NE1       36.7020   23.9820   -2.9590 N.ar  115  TRP115     -0.2442
     90  CE2       36.2250   22.7810   -2.5000 C.ar  115  TRP115      0.0810
     91  CE3       34.9270   20.9200   -3.3550 C.ar  115  TRP115      0.0012
     92  CZ2       36.3500   22.1830   -1.2430 C.ar  115  TRP115      0.0191
     93  CZ3       35.0510   20.3270   -2.1090 C.ar  115  TRP115      0.0001
     94  CH2       35.7570   20.9580   -1.0690 C.ar  115  TRP115      0.0015
     95  N         35.0300   17.8600   -9.7680 N.3   118  PHE118     -0.1227
     96  CA        34.7380   16.7750   -8.8320 C.3   118  PHE118      0.1736
     97  C         33.2350   16.6480   -8.5890 C.2   118  PHE118      0.2595
     98  O         32.6720   15.5460   -8.5620 O.2   118  PHE118     -0.2718
     99  CB        35.5310   17.0940   -7.5560 C.3   118  PHE118      0.0547
    100  CG        35.1690   16.2990   -6.3310 C.ar  118  PHE118     -0.0202
    101  CD1       35.6250   15.0070   -6.1640 C.ar  118  PHE118     -0.0042
    102  CD2       34.5020   16.9050   -5.2810 C.ar  118  PHE118     -0.0042
    103  CE1       35.3460   14.3060   -5.0160 C.ar  118  PHE118     -0.0003
    104  CE2       34.2200   16.2110   -4.1340 C.ar  118  PHE118     -0.0003
    105  CZ        34.6510   14.9140   -3.9980 C.ar  118  PHE118     -0.0000
    106  N         32.5740   17.7860   -8.3940 N.am  119  MET119     -0.1979
    107  CA        31.1280   17.7520   -8.1960 C.3   119  MET119      0.1605
    108  C         30.4140   17.2320   -9.4400 C.2   119  MET119      0.2287
    109  O         29.4630   16.4550   -9.3310 O.2   119  MET119     -0.2864
    110  CB        30.6070   19.1360   -7.8060 C.3   119  MET119      0.0413
    111  CG        29.1250   19.1540   -7.4470 C.3   119  MET119      0.0598
    112  SD        28.7530   19.2640   -5.6810 S.3   119  MET119     -0.1393
    113  CE        30.4020   19.4340   -4.9970 C.3   119  MET119      0.0692
    114  N         30.6970   13.3990   -9.5150 N.3   122  TRP122     -0.1241
    115  CA        29.9150   12.6260   -8.5680 C.3   122  TRP122      0.1605
    116  C         28.4250   12.7970   -8.7620 C.2   122  TRP122      0.2264
    117  O         27.6790   11.8490   -8.4960 O.2   122  TRP122     -0.2867
    118  CB        30.3610   12.9530   -7.1530 C.3   122  TRP122      0.0550
    119  CG        31.6860   12.3450   -6.9870 C.ar  122  TRP122      0.0003
    120  CD1       32.8390   12.9740   -6.6520 C.ar  122  TRP122      0.0946
    121  CD2       32.0300   10.9750   -7.2390 C.ar  122  TRP122      0.0152
    122  NE1       33.8770   12.0750   -6.6370 N.ar  122  TRP122     -0.2442
    123  CE2       33.4020   10.8400   -6.9950 C.ar  122  TRP122      0.0810
    124  CE3       31.3020    9.8410   -7.6250 C.ar  122  TRP122      0.0012
    125  CZ2       34.0630    9.6150   -7.1130 C.ar  122  TRP122      0.0191
    126  CZ3       31.9670    8.6340   -7.7570 C.ar  122  TRP122      0.0001
    127  CH2       33.3360    8.5340   -7.5090 C.ar  122  TRP122      0.0015
    128  N         27.7720   10.2630  -11.5480 N.3   125  TYR125     -0.1227
    129  CA        27.7310    8.9080  -11.0180 C.3   125  TYR125      0.1736
    130  C         26.4420    8.6660  -10.2390 C.2   125  TYR125      0.2596
    131  O         25.8020    7.6220  -10.3970 O.2   125  TYR125     -0.2718
    132  CB        28.9550    8.6540  -10.1380 C.3   125  TYR125      0.0548
    133  CG        28.9220    7.2740   -9.5230 C.ar  125  TYR125     -0.0200
    134  CD1       29.0440    6.1400  -10.3170 C.ar  125  TYR125     -0.0009
    135  CD2       28.7470    7.1030   -8.1600 C.ar  125  TYR125     -0.0009
    136  CE1       29.0030    4.8650   -9.7580 C.ar  125  TYR125      0.0417
    137  CE2       28.7090    5.8380   -7.5970 C.ar  125  TYR125      0.0417
    138  CZ        28.8330    4.7280   -8.4020 C.ar  125  TYR125      0.1957
    139  OH        28.7880    3.4720   -7.8400 O.3   125  TYR125     -0.2866
    140  N         26.0440    9.6280   -9.3950 N.am  126  THR126     -0.1953
    141  CA        24.7760    9.5140   -8.6770 C.3   126  THR126      0.1897
    142  C         23.6170    9.3170   -9.6420 C.2   126  THR126      0.2313
    143  O         22.7430    8.4720   -9.4270 O.2   126  THR126     -0.2863
    144  CB        24.5320   10.7740   -7.8390 C.3   126  THR126      0.1794
    145  OG1       25.5770   10.9250   -6.8690 O.3   126  THR126     -0.2208
    146  CG2       23.1900   10.6780   -7.1220 C.3   126  THR126      0.0378
    147  N         23.4740    5.8100  -11.0600 N.3   129  VAL129     -0.1245
    148  CA        22.9620    4.8310  -10.1000 C.3   129  VAL129      0.1561
    149  C         21.4460    4.9420   -9.9870 C.2   129  VAL129      0.2260
    150  O         20.7390    3.9290   -9.9370 O.2   129  VAL129     -0.2867
    151  CB        23.6350    5.0050   -8.7210 C.3   129  VAL129      0.0252
    152  CG1       23.0290    4.0330   -7.6980 C.3   129  VAL129      0.0019
    153  CG2       25.1530    4.8140   -8.8020 C.3   129  VAL129      0.0019
    154  N         23.4480   16.3570   -4.2530 N.3   153  ASN153     -0.1240
    155  CA        24.8710   16.5700   -4.0320 C.3   153  ASN153      0.1653
    156  C         25.1490   17.9750   -3.5300 C.2   153  ASN153      0.2266
    157  O         26.0600   18.1700   -2.7250 O.2   153  ASN153     -0.2867
    158  CB        25.6550   16.2800   -5.3190 C.3   153  ASN153      0.1155
    159  CG        25.9670   14.8070   -5.4710 C.2   153  ASN153      0.2627
    160  OD1       26.9380   14.3370   -4.9030 O.2   153  ASN153     -0.2716
    161  ND2       25.1370   14.0700   -6.1880 N.am  153  ASN153     -0.0877
    162  N         24.3860   17.9800    0.1490 N.3   156  ASN156     -0.1225
    163  CA        25.4880   17.4120    0.9340 C.3   156  ASN156      0.1785
    164  C         26.6230   18.4110    1.1070 C.2   156  ASN156      0.2597
    165  O         27.1800   18.5480    2.2040 O.2   156  ASN156     -0.2718
    166  CB        26.0240   16.1410    0.2820 C.3   156  ASN156      0.1169
    167  CG        25.1080   14.9800    0.4490 C.2   156  ASN156      0.2627
    168  OD1       23.9760   15.1260    0.9060 O.2   156  ASN156     -0.2716
    169  ND2       25.5750   13.8000    0.0510 N.am  156  ASN156     -0.0877
    170  N         27.0330   19.0710    0.0190 N.am  157  GLU157     -0.1979
    171  CA        28.1400   20.0240    0.1170 C.3   157  GLU157      0.1602
    172  C         27.8430   21.1090    1.1450 C.2   157  GLU157      0.2287
    173  O         28.6630   21.3940    2.0360 O.2   157  GLU157     -0.2864
    174  CB        28.4300   20.6500   -1.2490 C.3   157  GLU157      0.0415
    175  CG        29.5820   21.6510   -1.2200 C.3   157  GLU157      0.1163
    176  CD        29.8490   22.2500   -2.5980 C.2   157  GLU157      0.3649
    177  OE1       28.8960   22.7530   -3.2150 O.co2 157  GLU157     -0.2457
    178  OE2       31.0050   22.1940   -3.0680 O.co2 157  GLU157     -0.2457
    179  N         27.0780   19.3300    4.9670 N.3   160  LEU160     -0.1231
    180  CA        28.2920   18.8570    5.6360 C.3   160  LEU160      0.1693
    181  C         29.1920   20.0230    6.0000 C.2   160  LEU160      0.2592
    182  O         29.7560   20.0580    7.1040 O.2   160  LEU160     -0.2718
    183  CB        29.0430   17.8480    4.7590 C.3   160  LEU160      0.0284
    184  CG        28.3430   16.4970    4.6150 C.3   160  LEU160      0.0019
    185  CD1       29.0290   15.6610    3.5420 C.3   160  LEU160      0.0001
    186  CD2       28.3070   15.7150    5.9220 C.3   160  LEU160      0.0001
    187  N         29.3230   21.0040    5.0950 N.am  161  PHE161     -0.1976
    188  CA        30.1690   22.1550    5.3990 C.3   161  PHE161      0.1639
    189  C         29.6820   22.8750    6.6490 C.2   161  PHE161      0.2290
    190  O         30.4720   23.1780    7.5580 O.2   161  PHE161     -0.2864
    191  CB        30.2300   23.1400    4.2170 C.3   161  PHE161      0.0560
    192  CG        31.1740   24.2990    4.4640 C.ar  161  PHE161     -0.0200
    193  CD1       32.5140   24.2090    4.1020 C.ar  161  PHE161     -0.0042
    194  CD2       30.7270   25.4650    5.0880 C.ar  161  PHE161     -0.0042
    195  CE1       33.3860   25.2740    4.3470 C.ar  161  PHE161     -0.0003
    196  CE2       31.5900   26.5220    5.3450 C.ar  161  PHE161     -0.0003
    197  CZ        32.9210   26.4260    4.9760 C.ar  161  PHE161     -0.0000
    198  N         30.5050   20.6950    9.7520 N.3   164  PHE164     -0.1241
    199  CA        31.9300   20.6980   10.0720 C.3   164  PHE164      0.1605
    200  C         32.3490   22.0320   10.6560 C.2   164  PHE164      0.2264
    201  O         33.1180   22.0830   11.6210 O.2   164  PHE164     -0.2867
    202  CB        32.7700   20.3910    8.8310 C.3   164  PHE164      0.0534
    203  CG        32.5700   19.0130    8.2720 C.ar  164  PHE164     -0.0203
    204  CD1       32.0410   17.9990    9.0470 C.ar  164  PHE164     -0.0042
    205  CD2       32.9310   18.7320    6.9630 C.ar  164  PHE164     -0.0042
    206  CE1       31.8580   16.7290    8.5310 C.ar  164  PHE164     -0.0003
    207  CE2       32.7560   17.4640    6.4390 C.ar  164  PHE164     -0.0003
    208  CZ        32.2170   16.4590    7.2220 C.ar  164  PHE164     -0.0000
    209  N         18.1210   11.5290    0.9480 N.3   184  TRP184     -0.1241
    210  CA        18.4940   10.8370   -0.2960 C.3   184  TRP184      0.1605
    211  C         17.5690    9.6560   -0.5740 C.2   184  TRP184      0.2264
    212  O         17.0320    9.5150   -1.6820 O.2   184  TRP184     -0.2867
    213  CB        19.9530   10.3480   -0.2370 C.3   184  TRP184      0.0550
    214  CG        20.9960   11.3690   -0.5520 C.ar  184  TRP184      0.0003
    215  CD1       21.2710   12.5270    0.1400 C.ar  184  TRP184      0.0946
    216  CD2       21.9430   11.3030   -1.6070 C.ar  184  TRP184      0.0152
    217  NE1       22.3060   13.1930   -0.4520 N.ar  184  TRP184     -0.2442
    218  CE2       22.7520   12.4510   -1.5180 C.ar  184  TRP184      0.0810
    219  CE3       22.1850   10.3800   -2.6370 C.ar  184  TRP184      0.0012
    220  CZ2       23.7740   12.7160   -2.4290 C.ar  184  TRP184      0.0191
    221  CZ3       23.2250   10.6420   -3.5370 C.ar  184  TRP184      0.0001
    222  CH2       23.9910   11.7960   -3.4330 C.ar  184  TRP184      0.0015
@<TRIPOS>BOND
     1   128   129    1
     2   147   148    1
     3   129   130    1
     4   129   132    1
     5   131   130    2
     6   134   136   ar
     7   134   133   ar
     8   130   140   am
     9   132   133    1
    10   148   149    1
    11   148   151    1
    12   149   150    2
    13    95    96    1
    14   136   138   ar
    15   142   143    2
    16   142   141    1
    17   133   135   ar
    18   114   115    1
    19   108   109    2
    20   108   107    1
    21   140   141    1
    22    96    97    1
    23    96    99    1
    24   153   151    1
    25   116   115    1
    26   116   117    2
    27   151   152    1
    28   141   144    1
    29    97    98    2
    30    97   106   am
    31   115   118    1
    32   138   139    1
    33   138   137   ar
    34   106   107    1
    35   107   110    1
    36   135   137   ar
    37    83    84    2
    38    83    82    1
    39   144   146    1
    40   144   145    1
    41   110   111    1
    42   126   124   ar
    43   126   127   ar
    44   124   121   ar
    45    99   100    1
    46    81    82    1
    47   127   125   ar
    48   111   112    1
    49   121   123   ar
    50   121   119   ar
    51   118   119    1
    52   125   123   ar
    53   123   122   ar
    54   119   120   ar
    55    82    85    1
    56   120   122   ar
    57   100   101   ar
    58   100   102   ar
    59   161   159   am
    60   101   103   ar
    61    85    86    1
    62   112   113    1
    63   159   158    1
    64   159   160    2
    65   158   155    1
    66    30    28   ar
    67    30    29   ar
    68   102   104   ar
    69     4     3    2
    70   103   105   ar
    71    28    26   ar
    72     3     2    1
    73    86    87   ar
    74    86    88   ar
    75     8     6    1
    76    29    27   ar
    77    87    89   ar
    78   154   155    1
    79     5     6    1
    80     5     2    1
    81     6     7    1
    82   104   105   ar
    83   155   156    1
    84     2     1    1
    85    26    25   ar
    86    26    24   ar
    87    88    91   ar
    88    88    90   ar
    89   221   222   ar
    90   221   219   ar
    91   156   157    2
    92   222   220   ar
    93    91    93   ar
    94   177   176   ar
    95   178   176   ar
    96    27    24   ar
    97    89    90   ar
    98    25    23   ar
    99    53    51   ar
   100    53    52   ar
   101   219   216   ar
   102    24    22   ar
   103   176   175    1
   104    90    92   ar
   105   220   218   ar
   106    51    49   ar
   107    16    15    1
   108    52    50   ar
   109    93    94   ar
   110    15    14    1
   111   212   211    2
   112   216   218   ar
   113   216   214   ar
   114    23    22   ar
   115   218   217   ar
   116    22    21    1
   117    79    78    2
   118   174   175    1
   119   174   171    1
   120    92    94   ar
   121    49    48   ar
   122    75    74    2
   123    50    48   ar
   124    13    14    1
   125    13    10    1
   126    80    78   am
   127   211   210    1
   128    64    63   ar
   129    64    62   ar
   130   214   213    1
   131   214   215   ar
   132    78    77    1
   133   217   215   ar
   134   210   213    1
   135   210   209    1
   136    48    47    1
   137    32    33    1
   138    32    31    1
   139    21    18    1
   140   170   171    1
   141   170   164   am
   142    63    61   ar
   143   169   167   am
   144    74    73    1
   145    12    11    2
   146    73    72    1
   147    73    76    1
   148   171   172    1
   149    18    17    1
   150    18    19    1
   151   162   163    1
   152    62    60   ar
   153    17    11   am
   154    11    10    1
   155   166   167    1
   156   166   163    1
   157    34    33    2
   158   167   168    2
   159    33    35   am
   160    10     9    1
   161    77    76    1
   162   163   164    1
   163    40    42    1
   164    40    39    1
   165    35    36    1
   166   164   165    2
   167   172   173    2
   168    47    44    1
   169    20    19    2
   170    61    59   ar
   171    60    59   ar
   172    36    39    1
   173    36    37    1
   174    43    44    1
   175    44    45    1
   176    59    58    1
   177    39    41    1
   178    37    38    2
   179    68    67    2
   180    45    46    2
   181   185   184    1
   182    66    67    1
   183    66    65    1
   184    66    69    1
   185    58    55    1
   186    71    69    1
   187   193   195   ar
   188   193   192   ar
   189    70    69    1
   190    54    55    1
   191   191   192    1
   192   191   188    1
   193   195   197   ar
   194    55    56    1
   195   192   194   ar
   196   184   183    1
   197   184   186    1
   198   183   180    1
   199   179   180    1
   200   197   196   ar
   201   194   196   ar
   202   187   188    1
   203   187   181   am
   204   188   189    1
   205   180   181    1
   206    56    57    2
   207   181   182    2
   208   207   205   ar
   209   207   208   ar
   210   189   190    2
   211   205   203   ar
   212   208   206   ar
   213   203   202    1
   214   203   204   ar
   215   206   204   ar
   216   202   199    1
   217   198   199    1
   218   199   200    1
   219   200   201    2
