@<TRIPOS>MOLECULE
tmp/5f05C01.pdb
 105 99 0 0 0
SMALL
GASTEIGER

@<TRIPOS>ATOM
      1  N        -18.9220  -46.0350    1.5140 N.3    71  GLN71      -0.1245
      2  CA       -19.2880  -47.1520    2.3790 C.3    71  GLN71       0.1566
      3  C        -19.7910  -48.3340    1.5330 C.2    71  GLN71       0.2260
      4  O        -19.5110  -49.4860    1.8580 O.2    71  GLN71      -0.2867
      5  CB       -20.3350  -46.7320    3.4170 C.3    71  GLN71       0.0367
      6  CG       -20.5290  -47.7900    4.5010 C.3    71  GLN71       0.0905
      7  CD       -21.3300  -47.3460    5.7130 C.2    71  GLN71       0.2608
      8  OE1      -21.3920  -46.1620    6.0370 O.2    71  GLN71      -0.2717
      9  NE2      -21.9310  -48.3140    6.4050 N.am   71  GLN71      -0.0878
     10  N        -16.7470  -50.1230    0.1940 N.3    74  ALA74      -0.1231
     11  CA       -16.0860  -50.8460    1.2560 C.3    74  ALA74       0.1694
     12  C        -16.8100  -52.1320    1.6650 C.2    74  ALA74       0.2592
     13  O        -16.1580  -53.0800    2.0140 O.2    74  ALA74      -0.2718
     14  CB       -15.9150  -49.9610    2.4570 C.3    74  ALA74       0.0304
     15  N        -18.1540  -52.1320    1.6850 N.am   75  HIS75      -0.1976
     16  CA       -18.9170  -53.3490    1.9740 C.3    75  HIS75       0.1656
     17  C        -18.9760  -54.3300    0.8060 C.2    75  HIS75       0.2291
     18  O        -18.7240  -55.5370    0.9790 O.2    75  HIS75      -0.2864
     19  CB       -20.3400  -52.9900    2.3780 C.3    75  HIS75       0.0771
     20  CG       -20.4350  -52.3360    3.7230 C.ar   75  HIS75       0.0820
     21  ND1      -20.2200  -53.0190    4.9030 N.ar   75  HIS75      -0.2267
     22  CD2      -20.7290  -51.0610    4.0770 C.ar   75  HIS75       0.1154
     23  CE1      -20.3610  -52.1870    5.9200 C.ar   75  HIS75       0.1986
     24  NE2      -20.6770  -50.9940    5.4460 N.ar   75  HIS75      -0.2212
     25  N        -15.6590  -56.0330    0.1140 N.3    78  ALA78      -0.1245
     26  CA       -14.9420  -56.1780    1.3840 C.3    78  ALA78       0.1562
     27  C        -13.7230  -57.0820    1.2970 C.2    78  ALA78       0.2260
     28  O        -12.6720  -56.7470    1.8520 O.2    78  ALA78      -0.2867
     29  CB       -15.8600  -56.6790    2.4590 C.3    78  ALA78       0.0290
     30  N         -8.5890  -53.9860    4.3370 N.3    83  GLN83      -0.1231
     31  CA        -9.7530  -54.2840    5.1780 C.3    83  GLN83       0.1698
     32  C        -10.1060  -52.9890    5.9190 C.2    83  GLN83       0.2592
     33  O         -9.3680  -52.5880    6.8070 O.2    83  GLN83      -0.2718
     34  CB        -9.4420  -55.4320    6.1370 C.3    83  GLN83       0.0381
     35  CG        -9.1720  -56.7620    5.4190 C.3    83  GLN83       0.0905
     36  CD       -10.2580  -57.1040    4.3850 C.2    83  GLN83       0.2608
     37  OE1      -11.3770  -57.4370    4.7620 O.2    83  GLN83      -0.2717
     38  NE2       -9.9470  -56.9450    3.0780 N.am   83  GLN83      -0.0878
     39  N        -11.1880  -52.3210    5.5020 N.am   84  LEU84      -0.1966
     40  CA       -11.5820  -50.9910    6.0350 C.3    84  LEU84       0.1728
     41  C        -12.6170  -51.0450    7.1880 C.2    84  LEU84       0.2617
     42  O        -13.0080  -50.0000    7.7530 O.2    84  LEU84      -0.2715
     43  CB       -12.1330  -50.1180    4.9130 C.3    84  LEU84       0.0311
     44  CG       -11.1320  -49.6560    3.8600 C.3    84  LEU84       0.0022
     45  CD1      -11.8070  -48.8330    2.7840 C.3    84  LEU84       0.0001
     46  CD2       -9.9730  -48.9210    4.5420 C.3    84  LEU84       0.0001
     47  N        -13.0570  -52.2490    7.5360 N.am   85  GLY85      -0.1940
     48  CA       -13.9350  -52.4140    8.6710 C.3    85  GLY85       0.2014
     49  C        -13.1790  -53.0800    9.7860 C.2    85  GLY85       0.2639
     50  O        -11.9560  -53.1160    9.7670 O.2    85  GLY85      -0.2714
     51  N        -13.9140  -53.6060   10.7620 N.am   86  ALA86      -0.1963
     52  CA       -13.3630  -54.1290   11.9890 C.3    86  ALA86       0.1728
     53  C        -14.1290  -55.3720   12.4020 C.2    86  ALA86       0.2616
     54  O        -15.2740  -55.5560   12.0300 O.2    86  ALA86      -0.2715
     55  CB       -13.4210  -53.1030   13.1090 C.3    86  ALA86       0.0334
     56  N        -13.4780  -56.1930   13.2120 N.am   87  ALA87      -0.1977
     57  CA       -14.0660  -57.4330   13.6840 C.3    87  ALA87       0.1597
     58  C        -15.1210  -57.1890   14.7560 C.2    87  ALA87       0.2287
     59  O        -15.0330  -56.2200   15.5500 O.2    87  ALA87      -0.2864
     60  CB       -12.9690  -58.3590   14.2330 C.3    87  ALA87       0.0319
     61  N        -17.4460  -52.4710   14.3140 N.3    91  TYR91      -0.1241
     62  CA       -18.1740  -51.6410   13.3730 C.3    91  TYR91       0.1605
     63  C        -18.8590  -50.4330   14.0450 C.2    91  TYR91       0.2264
     64  O        -18.9870  -49.3820   13.4110 O.2    91  TYR91      -0.2867
     65  CB       -19.2210  -52.4540   12.6130 C.3    91  TYR91       0.0534
     66  CG       -20.5050  -52.6960   13.3730 C.ar   91  TYR91      -0.0201
     67  CD1      -20.6120  -53.7630   14.2860 C.ar   91  TYR91      -0.0009
     68  CD2      -21.6020  -51.8860   13.2060 C.ar   91  TYR91      -0.0009
     69  CE1      -21.7890  -53.9800   14.9980 C.ar   91  TYR91       0.0417
     70  CE2      -22.7760  -52.1070   13.9150 C.ar   91  TYR91       0.0417
     71  CZ       -22.8690  -53.1470   14.7950 C.ar   91  TYR91       0.1957
     72  OH       -24.0710  -53.3020   15.5110 O.3    91  TYR91      -0.2866
     73  N        -16.5990  -47.4690   14.3580 N.3    94  ILE94      -0.1231
     74  CA       -16.3450  -46.8790   13.0250 C.3    94  ILE94       0.1692
     75  C        -17.5090  -45.9360   12.6680 C.2    94  ILE94       0.2591
     76  O        -17.2710  -44.8140   12.2300 O.2    94  ILE94      -0.2718
     77  CB       -16.1650  -47.9530   11.9670 C.3    94  ILE94       0.0266
     78  CG1      -14.9640  -48.8270   12.3240 C.3    94  ILE94       0.0019
     79  CG2      -15.9650  -47.2880   10.5830 C.3    94  ILE94       0.0020
     80  CD1      -14.6890  -49.9690   11.3320 C.3    94  ILE94       0.0001
     81  N        -18.7410  -46.3730   12.9130 N.am   95  LEU95      -0.1980
     82  CA       -19.9200  -45.5460   12.6390 C.3    95  LEU95       0.1596
     83  C        -19.8380  -44.2250   13.4590 C.2    95  LEU95       0.2287
     84  O        -20.0820  -43.1250   12.9280 O.2    95  LEU95      -0.2864
     85  CB       -21.2080  -46.3220   12.9530 C.3    95  LEU95       0.0297
     86  CG       -21.5160  -47.4470   11.9790 C.3    95  LEU95       0.0022
     87  CD1      -22.7280  -48.1210   12.5380 C.3    95  LEU95       0.0001
     88  CD2      -21.7920  -46.9360   10.5660 C.3    95  LEU95       0.0001
     89  N        -17.2380  -42.0040   11.8130 N.3    98  GLN98      -0.1245
     90  CA       -17.7690  -41.5750   10.5150 C.3    98  GLN98       0.1566
     91  C        -18.7090  -40.4110   10.7240 C.2    98  GLN98       0.2260
     92  O        -18.6730  -39.4300    9.9870 O.2    98  GLN98      -0.2867
     93  CB       -18.5080  -42.7050    9.7790 C.3    98  GLN98       0.0367
     94  CG       -17.6240  -43.7360    9.1750 C.3    98  GLN98       0.0905
     95  CD       -18.3670  -44.9010    8.5150 C.2    98  GLN98       0.2608
     96  OE1      -17.7340  -45.8220    8.0290 O.2    98  GLN98      -0.2717
     97  NE2      -19.6860  -44.8300    8.4410 N.am   98  GLN98      -0.0878
     98  N        -12.6180  -46.5540    7.4730 N.3   162  LEU162     -0.1245
     99  CA       -13.2870  -45.5310    6.7150 C.3   162  LEU162      0.1561
    100  C        -13.4630  -44.2350    7.4820 C.2   162  LEU162      0.2260
    101  O        -13.4780  -43.1890    6.8900 O.2   162  LEU162     -0.2867
    102  CB       -14.6510  -46.0780    6.2940 C.3   162  LEU162      0.0270
    103  CG       -15.1620  -45.8460    4.9020 C.3   162  LEU162      0.0019
    104  CD1      -14.1760  -46.2580    3.8540 C.3   162  LEU162      0.0001
    105  CD2      -16.4550  -46.6200    4.7520 C.3   162  LEU162      0.0001
@<TRIPOS>BOND
     1    25    26    1
     2    10    11    1
     3    17    18    2
     4    17    16    1
     5    11    12    1
     6    11    14    1
     7    27    26    1
     8    27    28    2
     9    26    29    1
    10     1     2    1
    11     3     4    2
    12     3     2    1
    13    12    15   am
    14    12    13    2
    15    15    16    1
    16    16    19    1
    17    19    20    1
    18     2     5    1
    19    45    44    1
    20    38    36   am
    21     5     6    1
    22    20    22   ar
    23    20    21   ar
    24   104   103    1
    25    44    46    1
    26    44    43    1
    27    22    24   ar
    28    30    31    1
    29    36    37    2
    30    36    35    1
    31     6     7    1
    32   105   103    1
    33   103   102    1
    34    21    23   ar
    35    43    40    1
    36    31    32    1
    37    31    34    1
    38    35    34    1
    39    24    23   ar
    40    39    32   am
    41    39    40    1
    42     7     8    2
    43     7     9   am
    44    32    33    2
    45    40    41    1
    46   102    99    1
    47    99    98    1
    48    99   100    1
    49   101   100    2
    50    41    47   am
    51    41    42    2
    52    47    48    1
    53    96    95    2
    54    97    95   am
    55    95    94    1
    56    48    49    1
    57    94    93    1
    58    50    49    2
    59    93    90    1
    60    49    51   am
    61    92    91    2
    62    90    91    1
    63    90    89    1
    64    88    86    1
    65    79    77    1
    66    51    52    1
    67    80    78    1
    68    77    78    1
    69    77    74    1
    70    86    87    1
    71    86    85    1
    72    52    53    1
    73    52    55    1
    74    54    53    2
    75    76    75    2
    76    53    56   am
    77    65    66    1
    78    65    62    1
    79    82    81    1
    80    82    85    1
    81    82    83    1
    82    75    81   am
    83    75    74    1
    84    84    83    2
    85    74    73    1
    86    68    66   ar
    87    68    70   ar
    88    56    57    1
    89    66    67   ar
    90    62    63    1
    91    62    61    1
    92    64    63    2
    93    57    60    1
    94    57    58    1
    95    70    71   ar
    96    67    69   ar
    97    58    59    2
    98    71    69   ar
    99    71    72    1
