@<TRIPOS>MOLECULE
tmp/5f0aA00.pdb
 173 161 0 0 0
SMALL
GASTEIGER

@<TRIPOS>ATOM
      1  N        -23.1930   75.5250   36.2540 N.3   533  ILE533     -0.1231
      2  CA       -24.4280   74.7400   36.4590 C.3   533  ILE533      0.1692
      3  C        -24.2050   73.2470   36.7430 C.2   533  ILE533      0.2592
      4  O        -25.1800   72.5150   36.9300 O.2   533  ILE533     -0.2718
      5  CB       -25.4330   74.9180   35.2910 C.3   533  ILE533      0.0266
      6  CG1      -24.7960   74.5780   33.9390 C.3   533  ILE533      0.0019
      7  CG2      -25.9630   76.3440   35.2680 C.3   533  ILE533      0.0020
      8  CD1      -25.7870   74.5490   32.7940 C.3   533  ILE533      0.0001
      9  N        -22.9470   72.8030   36.8080 N.am  534  GLY534     -0.1957
     10  CA       -22.6300   71.4090   37.1360 C.3   534  GLY534      0.1869
     11  C        -21.1620   71.2030   37.4600 C.2   534  GLY534      0.2309
     12  O        -20.3030   71.8540   36.8700 O.2   534  GLY534     -0.2863
     13  N        -15.1660   64.6770   36.5280 N.3   538  PHE538     -0.1241
     14  CA       -15.0480   64.9240   35.0790 C.3   538  PHE538      0.1605
     15  C        -14.5740   66.3510   34.7550 C.2   538  PHE538      0.2264
     16  O        -13.7450   66.5410   33.8610 O.2   538  PHE538     -0.2867
     17  CB       -16.3680   64.5960   34.3400 C.3   538  PHE538      0.0534
     18  CG       -17.4950   65.5750   34.5960 C.ar  538  PHE538     -0.0203
     19  CD1      -18.3910   65.3800   35.6510 C.ar  538  PHE538     -0.0042
     20  CD2      -17.6790   66.6820   33.7660 C.ar  538  PHE538     -0.0042
     21  CE1      -19.4310   66.2750   35.8800 C.ar  538  PHE538     -0.0003
     22  CE2      -18.7170   67.5780   33.9930 C.ar  538  PHE538     -0.0003
     23  CZ       -19.5960   67.3740   35.0490 C.ar  538  PHE538     -0.0000
     24  N        -19.5320   72.2420   34.1110 N.3   541  VAL541     -0.1245
     25  CA       -20.4670   72.6520   33.0620 C.3   541  VAL541      0.1561
     26  C        -20.9270   74.0790   33.3390 C.2   541  VAL541      0.2260
     27  O        -21.5140   74.3570   34.3860 O.2   541  VAL541     -0.2867
     28  CB       -21.6950   71.7210   32.9610 C.3   541  VAL541      0.0252
     29  CG1      -22.5690   72.1190   31.7760 C.3   541  VAL541      0.0019
     30  CG2      -21.2600   70.2660   32.8370 C.3   541  VAL541      0.0019
     31  N        -25.0040   75.6160   26.7930 N.3   554  ALA554     -0.1245
     32  CA       -24.3260   74.9250   27.8860 C.3   554  ALA554      0.1562
     33  C        -22.9760   74.4070   27.3970 C.2   554  ALA554      0.2260
     34  O        -22.8960   73.8090   26.3240 O.2   554  ALA554     -0.2867
     35  CB       -25.1780   73.7740   28.3940 C.3   554  ALA554      0.0290
     36  N        -19.8320   72.0540   28.6000 N.3   556  LYS556     -0.1245
     37  CA       -19.1720   71.0720   29.4620 C.3   556  LYS556      0.1561
     38  C        -17.6660   71.1250   29.2280 C.2   556  LYS556      0.2260
     39  O        -17.2210   71.2250   28.0880 O.2   556  LYS556     -0.2867
     40  CB       -19.7060   69.6680   29.1550 C.3   556  LYS556      0.0271
     41  CG       -19.1090   68.5190   29.9550 C.3   556  LYS556      0.0035
     42  CD       -19.6530   67.1920   29.4490 C.3   556  LYS556      0.0206
     43  CE       -19.3500   66.0520   30.4050 C.3   556  LYS556      0.1093
     44  NZ       -19.9300   64.7700   29.9190 N.3   556  LYS556     -0.1314
     45  N        -17.1560   58.9110   22.6790 N.3   575  GLU575     -0.1245
     46  CA       -18.2270   59.7200   23.2620 C.3   575  GLU575      0.1567
     47  C        -18.5360   60.9390   22.4020 C.2   575  GLU575      0.2260
     48  O        -19.7010   61.2880   22.2300 O.2   575  GLU575     -0.2867
     49  CB       -17.8570   60.1730   24.6730 C.3   575  GLU575      0.0388
     50  CG       -18.9610   60.9320   25.3960 C.3   575  GLU575      0.1160
     51  CD       -18.5740   61.3590   26.8000 C.2   575  GLU575      0.3649
     52  OE1      -17.4400   61.0660   27.2480 O.co2 575  GLU575     -0.2457
     53  OE2      -19.4160   61.9970   27.4650 O.co2 575  GLU575     -0.2457
     54  N        -22.2340   61.4710   20.7500 N.3   579  THR579     -0.1218
     55  CA       -22.9090   62.7010   21.1720 C.3   579  THR579      0.1862
     56  C        -23.1460   63.6790   20.0100 C.2   579  THR579      0.2287
     57  O        -24.1590   64.3750   19.9900 O.2   579  THR579     -0.2866
     58  CB       -22.1170   63.3920   22.3020 C.3   579  THR579      0.1770
     59  OG1      -21.8620   62.4400   23.3430 O.3   579  THR579     -0.2211
     60  CG2      -22.8840   64.5750   22.8910 C.3   579  THR579      0.0375
     61  N        -30.1430   65.1850   23.8650 N.3   588  ILE588     -0.1245
     62  CA       -29.4160   66.4420   23.8610 C.3   588  ILE588      0.1561
     63  C        -28.7080   66.6460   22.5210 C.2   588  ILE588      0.2260
     64  O        -28.1900   65.6940   21.9310 O.2   588  ILE588     -0.2867
     65  CB       -28.4140   66.5250   25.0470 C.3   588  ILE588      0.0252
     66  CG1      -27.9080   67.9600   25.2480 C.3   588  ILE588      0.0019
     67  CG2      -27.2430   65.5560   24.8710 C.3   588  ILE588      0.0019
     68  CD1      -28.9640   68.9140   25.7640 C.3   588  ILE588      0.0001
     69  N        -17.5010   70.4280   25.1320 N.3   602  PHE602     -0.1241
     70  CA       -18.7280   70.0550   24.4280 C.3   602  PHE602      0.1605
     71  C        -19.7040   71.2190   24.5520 C.2   602  PHE602      0.2264
     72  O        -20.0540   71.5990   25.6670 O.2   602  PHE602     -0.2867
     73  CB       -19.3640   68.8270   25.0760 C.3   602  PHE602      0.0534
     74  CG       -18.6120   67.5520   24.8560 C.ar  602  PHE602     -0.0203
     75  CD1      -17.5010   67.2410   25.6280 C.ar  602  PHE602     -0.0042
     76  CD2      -19.0370   66.6350   23.9030 C.ar  602  PHE602     -0.0042
     77  CE1      -16.8130   66.0480   25.4360 C.ar  602  PHE602     -0.0003
     78  CE2      -18.3540   65.4440   23.7040 C.ar  602  PHE602     -0.0003
     79  CZ       -17.2400   65.1470   24.4710 C.ar  602  PHE602     -0.0000
     80  N        -23.5040   72.3790   23.8080 N.3   604  THR604     -0.1203
     81  CA       -24.8490   71.8810   23.5050 C.3   604  THR604      0.1994
     82  C        -25.8860   72.9440   23.7990 C.2   604  THR604      0.2618
     83  O        -25.5860   73.9550   24.4290 O.2   604  THR604     -0.2717
     84  CB       -25.2220   70.6490   24.3560 C.3   604  THR604      0.1784
     85  OG1      -25.3780   71.0290   25.7300 O.3   604  THR604     -0.2211
     86  CG2      -24.1740   69.5510   24.2420 C.3   604  THR604      0.0376
     87  N        -27.1140   72.6900   23.3510 N.am  605  GLU605     -0.1965
     88  CA       -28.2800   73.4830   23.7520 C.3   605  GLU605      0.1733
     89  C        -28.3830   73.5710   25.2750 C.2   605  GLU605      0.2616
     90  O        -27.9230   72.6710   25.9830 O.2   605  GLU605     -0.2715
     91  CB       -29.5730   72.8750   23.1880 C.3   605  GLU605      0.0429
     92  CG       -29.9350   71.5000   23.7390 C.3   605  GLU605      0.1163
     93  CD       -31.0620   70.8210   22.9830 C.2   605  GLU605      0.3649
     94  OE1      -32.0200   71.5210   22.5950 O.co2 605  GLU605     -0.2457
     95  OE2      -31.0020   69.5820   22.7980 O.co2 605  GLU605     -0.2457
     96  N        -28.9810   74.6570   25.7600 N.am  606  LEU606     -0.1963
     97  CA       -29.2290   74.8470   27.1880 C.3   606  LEU606      0.1728
     98  C        -30.5750   74.2420   27.5320 C.2   606  LEU606      0.2616
     99  O        -31.5850   74.5960   26.9280 O.2   606  LEU606     -0.2715
    100  CB       -29.2380   76.3340   27.5380 C.3   606  LEU606      0.0311
    101  CG       -29.5350   76.7190   28.9870 C.3   606  LEU606      0.0022
    102  CD1      -28.4620   76.1880   29.9230 C.3   606  LEU606      0.0001
    103  CD2      -29.6540   78.2250   29.1010 C.3   606  LEU606      0.0001
    104  N        -30.5890   73.3440   28.5100 N.am  607  VAL607     -0.1977
    105  CA       -31.8190   72.7150   28.9750 C.3   607  VAL607      0.1596
    106  C        -32.1360   73.3270   30.3470 C.2   607  VAL607      0.2287
    107  O        -31.3510   73.1680   31.2880 O.2   607  VAL607     -0.2864
    108  CB       -31.6550   71.1760   29.0330 C.3   607  VAL607      0.0276
    109  CG1      -32.9830   70.4990   29.3350 C.3   607  VAL607      0.0022
    110  CG2      -31.0760   70.6470   27.7240 C.3   607  VAL607      0.0022
    111  N        -34.4370   71.5430   34.5830 N.3   610  GLY610     -0.1210
    112  CA       -33.8610   70.6910   35.6360 C.3   610  GLY610      0.1956
    113  C        -33.8530   69.1980   35.3480 C.2   610  GLY610      0.2611
    114  O        -34.3490   68.7570   34.3270 O.2   610  GLY610     -0.2717
    115  N        -33.2900   68.4200   36.2650 N.am  611  GLU611     -0.1979
    116  CA       -33.2490   66.9570   36.1440 C.3   611  GLU611      0.1602
    117  C        -34.6010   66.2980   36.4320 C.2   611  GLU611      0.2287
    118  O        -35.4280   66.8400   37.1680 O.2   611  GLU611     -0.2864
    119  CB       -32.1920   66.3700   37.0860 C.3   611  GLU611      0.0415
    120  CG       -30.7620   66.7300   36.7000 C.3   611  GLU611      0.1163
    121  CD       -29.7180   66.3760   37.7550 C.2   611  GLU611      0.3649
    122  OE1      -30.0600   65.8150   38.8290 O.co2 611  GLU611     -0.2457
    123  OE2      -28.5320   66.6750   37.5010 O.co2 611  GLU611     -0.2457
    124  N        -31.2800   60.7170   36.7970 N.3   654  GLU654     -0.1245
    125  CA       -30.2010   61.7150   36.8500 C.3   654  GLU654      0.1567
    126  C        -29.7340   62.1360   35.4660 C.2   654  GLU654      0.2260
    127  O        -29.4270   63.3080   35.2430 O.2   654  GLU654     -0.2867
    128  CB       -28.9800   61.1710   37.6020 C.3   654  GLU654      0.0388
    129  CG       -29.1810   60.9390   39.0830 C.3   654  GLU654      0.1160
    130  CD       -29.4430   59.4860   39.4340 C.2   654  GLU654      0.3649
    131  OE1      -30.3810   58.8950   38.8520 O.co2 654  GLU654     -0.2457
    132  OE2      -28.7130   58.9440   40.3050 O.co2 654  GLU654     -0.2457
    133  N        -32.6780   65.2910   31.5940 N.3   657  LEU657     -0.1245
    134  CA       -33.1040   66.6650   31.8970 C.3   657  LEU657      0.1561
    135  C        -34.5010   66.9570   31.3420 C.2   657  LEU657      0.2260
    136  O        -35.0320   66.1730   30.5550 O.2   657  LEU657     -0.2867
    137  CB       -32.1080   67.6670   31.3120 C.3   657  LEU657      0.0270
    138  CG       -30.6370   67.5170   31.7120 C.3   657  LEU657      0.0019
    139  CD1      -29.8090   68.6830   31.1880 C.3   657  LEU657      0.0001
    140  CD2      -30.4820   67.4030   33.2270 C.3   657  LEU657      0.0001
    141  N        -29.0840   62.9770   28.4390 N.3   667  ILE667     -0.1231
    142  CA       -27.7140   63.5050   28.4810 C.3   667  ILE667      0.1692
    143  C        -26.7500   62.4050   28.9280 C.2   667  ILE667      0.2592
    144  O        -27.1930   61.3070   29.2320 O.2   667  ILE667     -0.2718
    145  CB       -27.6120   64.7190   29.4270 C.3   667  ILE667      0.0266
    146  CG1      -28.1220   64.3770   30.8340 C.3   667  ILE667      0.0019
    147  CG2      -28.4050   65.8880   28.8650 C.3   667  ILE667      0.0020
    148  CD1      -27.6230   65.3140   31.9100 C.3   667  ILE667      0.0001
    149  N        -25.4490   62.7060   28.9640 N.am  668  ASP668     -0.1974
    150  CA       -24.3940   61.7910   29.4660 C.3   668  ASP668      0.1709
    151  C        -24.2910   60.4780   28.6780 C.2   668  ASP668      0.2293
    152  O        -24.9190   59.4750   29.0350 O.2   668  ASP668     -0.2864
    153  CB       -24.5450   61.4900   30.9810 C.3   668  ASP668      0.1436
    154  CG       -24.1080   62.6600   31.8860 C.2   668  ASP668      0.3671
    155  OD1      -23.6910   63.7330   31.3840 O.co2 668  ASP668     -0.2456
    156  OD2      -24.1830   62.4980   33.1290 O.co2 668  ASP668     -0.2456
    157  N        -31.4160   74.6360   38.1350 N.3   808  TYR808     -0.1227
    158  CA       -30.1200   73.9410   38.0600 C.3   808  TYR808      0.1736
    159  C        -29.7010   73.4630   39.4560 C.2   808  TYR808      0.2595
    160  O        -30.0950   74.0610   40.4620 O.2   808  TYR808     -0.2718
    161  CB       -29.0380   74.8680   37.4810 C.3   808  TYR808      0.0548
    162  CG       -29.4490   75.6150   36.2210 C.ar  808  TYR808     -0.0200
    163  CD1      -29.3860   75.0010   34.9690 C.ar  808  TYR808     -0.0009
    164  CD2      -29.9110   76.9330   36.2830 C.ar  808  TYR808     -0.0009
    165  CE1      -29.7650   75.6780   33.8170 C.ar  808  TYR808      0.0417
    166  CE2      -30.2940   77.6160   35.1360 C.ar  808  TYR808      0.0417
    167  CZ       -30.2190   76.9860   33.9060 C.ar  808  TYR808      0.1957
    168  OH       -30.5950   77.6540   32.7650 O.3   808  TYR808     -0.2866
    169  N        -28.9060   72.3910   39.5060 N.am  809  ALA809     -0.1980
    170  CA       -28.3540   71.8650   40.7690 C.3   809  ALA809      0.1597
    171  C        -27.0570   72.5800   41.1600 C.2   809  ALA809      0.2287
    172  O        -27.0120   73.8080   41.2730 O.2   809  ALA809     -0.2864
    173  CB       -28.1120   70.3680   40.6530 C.3   809  ALA809      0.0319
@<TRIPOS>BOND
     1    57    56    2
     2    56    55    1
     3    54    55    1
     4    55    58    1
     5    64    63    2
     6    48    47    2
     7    58    60    1
     8    58    59    1
     9    47    46    1
    10    63    62    1
    11    94    93   ar
    12    45    46    1
    13    95    93   ar
    14    93    92    1
    15    91    92    1
    16    91    88    1
    17    46    49    1
    18    87    88    1
    19    87    82   am
    20    81    82    1
    21    81    80    1
    22    81    84    1
    23    78    76   ar
    24    78    79   ar
    25    88    89    1
    26    82    83    2
    27    62    61    1
    28    62    65    1
    29    76    74   ar
    30    86    84    1
    31    84    85    1
    32    70    71    1
    33    70    73    1
    34    70    69    1
    35    79    77   ar
    36    71    72    2
    37    49    50    1
    38    74    73    1
    39    74    75   ar
    40    67    65    1
    41    65    66    1
    42    66    68    1
    43    89    96   am
    44    89    90    2
    45    50    51    1
    46    77    75   ar
    47    96    97    1
    48    34    33    2
    49    31    32    1
    50    51    52   ar
    51    51    53   ar
    52    99    98    2
    53    97    98    1
    54    97   100    1
    55    33    32    1
    56    98   104   am
    57   100   101    1
    58   110   108    1
    59    32    35    1
    60    39    38    2
    61   141   142    1
    62   142   143    1
    63   142   145    1
    64   104   105    1
    65    36    37    1
    66   151   152    2
    67   151   150    1
    68   147   145    1
    69   143   149   am
    70   143   144    2
    71   149   150    1
    72   105   108    1
    73   105   106    1
    74   101   103    1
    75   101   102    1
    76   108   109    1
    77    40    37    1
    78    40    41    1
    79    38    37    1
    80   145   146    1
    81    42    41    1
    82    42    43    1
    83   150   153    1
    84    44    43    1
    85   106   107    2
    86   136   135    2
    87   146   148    1
    88   153   154    1
    89   139   138    1
    90   137   138    1
    91   137   134    1
    92   135   134    1
    93   155   154   ar
    94   133   134    1
    95   138   140    1
    96    29    28    1
    97   154   156   ar
    98   168   167    1
    99     8     6    1
   100    30    28    1
   101    28    25    1
   102    25    26    1
   103    25    24    1
   104    26    27    2
   105    20    22   ar
   106    20    18   ar
   107   165   167   ar
   108   165   163   ar
   109    16    15    2
   110   167   166   ar
   111     6     5    1
   112    22    23   ar
   113   114   113    2
   114    17    18    1
   115    17    14    1
   116   111   112    1
   117    18    19   ar
   118    15    14    1
   119   163   162   ar
   120    23    21   ar
   121    14    13    1
   122   166   164   ar
   123   127   126    2
   124     7     5    1
   125     5     2    1
   126   113   112    1
   127   113   115   am
   128   126   125    1
   129    19    21   ar
   130   116   115    1
   131   116   117    1
   132   116   119    1
   133   162   164   ar
   134   162   161    1
   135     1     2    1
   136   117   118    2
   137     2     3    1
   138   120   119    1
   139   120   121    1
   140     3     9   am
   141     3     4    2
   142   124   125    1
   143     9    10    1
   144   125   128    1
   145    12    11    2
   146    10    11    1
   147   161   158    1
   148   123   121   ar
   149   128   129    1
   150   121   122   ar
   151   158   157    1
   152   158   159    1
   153   131   130   ar
   154   129   130    1
   155   130   132   ar
   156   159   169   am
   157   159   160    2
   158   169   170    1
   159   173   170    1
   160   170   171    1
   161   171   172    2
