@<TRIPOS>MOLECULE
tmp/5f0cA00.pdb
 196 193 0 0 0
SMALL
GASTEIGER

@<TRIPOS>ATOM
      1  N         35.7570    6.8620   -3.2320 N.3    66  LEU66      -0.1245
      2  CA        34.4660    6.5120   -3.8850 C.3    66  LEU66       0.1561
      3  C         34.6260    5.4780   -5.0440 C.2    66  LEU66       0.2260
      4  O         33.8620    4.5560   -5.1350 O.2    66  LEU66      -0.2867
      5  CB        33.8130    7.7890   -4.4620 C.3    66  LEU66       0.0270
      6  CG        32.4490    7.5520   -5.1720 C.3    66  LEU66       0.0019
      7  CD1       31.4230    7.1150   -4.1330 C.3    66  LEU66       0.0001
      8  CD2       31.9780    8.8770   -5.8160 C.3    66  LEU66       0.0001
      9  N         23.6730    3.8600    0.0490 N.3    82  TRP82      -0.1241
     10  CA        23.8380    5.3730    0.0150 C.3    82  TRP82       0.1605
     11  C         24.6080    5.8830    1.1910 C.2    82  TRP82       0.2264
     12  O         25.4620    6.7510    1.0460 O.2    82  TRP82      -0.2867
     13  CB        22.4400    6.0570   -0.1160 C.3    82  TRP82       0.0550
     14  CG        21.8640    5.8080   -1.5170 C.ar   82  TRP82       0.0003
     15  CD1       20.7740    4.9620   -1.8830 C.ar   82  TRP82       0.0946
     16  CD2       22.3230    6.3760   -2.7710 C.ar   82  TRP82       0.0152
     17  NE1       20.5610    5.0070   -3.2560 N.ar   82  TRP82      -0.2442
     18  CE2       21.4550    5.8030   -3.8390 C.ar   82  TRP82       0.0810
     19  CE3       23.3740    7.2000   -3.1300 C.ar   82  TRP82       0.0012
     20  CZ2       21.6020    6.1480   -5.1720 C.ar   82  TRP82       0.0191
     21  CZ3       23.5060    7.5320   -4.4910 C.ar   82  TRP82       0.0001
     22  CH2       22.6340    7.0240   -5.4800 C.ar   82  TRP82       0.0015
     23  N         28.2790    5.4550    0.7370 N.3    85  GLY85      -0.1210
     24  CA        28.8370    6.3300   -0.2480 C.3    85  GLY85       0.1956
     25  C         28.9110    7.7810    0.2850 C.2    85  GLY85       0.2611
     26  O         29.9710    8.4360    0.2300 O.2    85  GLY85      -0.2717
     27  N         27.8300    8.2750    0.8770 N.am   86  ILE86      -0.1979
     28  CA        27.9230    9.6620    1.4920 C.3    86  ILE86       0.1595
     29  C         28.9970    9.7130    2.5610 C.2    86  ILE86       0.2287
     30  O         29.6430   10.7440    2.7630 O.2    86  ILE86      -0.2864
     31  CB        26.5620   10.0180    2.1270 C.3    86  ILE86       0.0276
     32  CG1       25.5020   10.0340    0.9600 C.3    86  ILE86       0.0022
     33  CG2       26.6400   11.3290    2.9430 C.3    86  ILE86       0.0022
     34  CD1       24.0580   10.1840    1.4420 C.3    86  ILE86       0.0001
     35  N         32.5990   10.9280    1.9320 N.3    89  PHE89      -0.1241
     36  CA        32.7430   12.4170    1.8850 C.3    89  PHE89       0.1605
     37  C         32.6990   12.9830    3.2800 C.2    89  PHE89       0.2264
     38  O         33.5160   13.8660    3.6590 O.2    89  PHE89      -0.2867
     39  CB        31.6890   13.0900    0.9610 C.3    89  PHE89       0.0534
     40  CG        31.8740   12.7110   -0.4750 C.ar   89  PHE89      -0.0203
     41  CD1       32.4890   13.5530   -1.3460 C.ar   89  PHE89      -0.0042
     42  CD2       31.5220   11.4170   -0.9020 C.ar   89  PHE89      -0.0042
     43  CE1       32.7670   13.1470   -2.6540 C.ar   89  PHE89      -0.0003
     44  CE2       31.7840   10.9880   -2.2300 C.ar   89  PHE89      -0.0003
     45  CZ        32.4320   11.8710   -3.0860 C.ar   89  PHE89      -0.0000
     46  N         36.3930   14.6060    4.0150 N.3    93  PHE93      -0.1241
     47  CA        36.5190   16.0910    4.2560 C.3    93  PHE93       0.1605
     48  C         36.5080   16.3680    5.7180 C.2    93  PHE93       0.2264
     49  O         37.1390   17.3170    6.1940 O.2    93  PHE93      -0.2867
     50  CB        35.3880   16.8170    3.5180 C.3    93  PHE93       0.0534
     51  CG        35.6050   16.7570    2.0270 C.ar   93  PHE93      -0.0203
     52  CD1       36.5190   17.6670    1.4260 C.ar   93  PHE93      -0.0042
     53  CD2       34.9240   15.8510    1.2520 C.ar   93  PHE93      -0.0042
     54  CE1       36.7290   17.6350    0.0340 C.ar   93  PHE93      -0.0003
     55  CE2       35.1830   15.7760   -0.1640 C.ar   93  PHE93      -0.0003
     56  CZ        36.0770   16.6670   -0.7470 C.ar   93  PHE93      -0.0000
     57  N         39.4380   21.8660    3.9870 N.3   100  THR100     -0.1218
     58  CA        38.0670   22.0180    3.4150 C.3   100  THR100      0.1862
     59  C         37.6230   23.4600    3.6010 C.2   100  THR100      0.2287
     60  O         37.1330   24.1030    2.6280 O.2   100  THR100     -0.2866
     61  CB        37.1310   21.0350    4.1500 C.3   100  THR100      0.1770
     62  OG1       37.6090   19.7100    3.9030 O.3   100  THR100     -0.2211
     63  CG2       35.6720   21.1860    3.5920 C.3   100  THR100      0.0375
     64  N         37.2430   25.9640    0.5290 N.3   104  GLN104     -0.1245
     65  CA        35.9710   26.5520    0.1100 C.3   104  GLN104      0.1566
     66  C         36.0660   28.0930    0.0280 C.2   104  GLN104      0.2260
     67  O         35.5180   28.7180   -0.9050 O.2   104  GLN104     -0.2867
     68  CB        34.8090   26.1190    1.0310 C.3   104  GLN104      0.0367
     69  CG        34.3000   24.6990    0.7080 C.3   104  GLN104      0.0905
     70  CD        33.5430   24.6520   -0.6300 C.2   104  GLN104      0.2608
     71  OE1       32.9070   25.6660   -1.0300 O.2   104  GLN104     -0.2717
     72  NE2       33.5960   23.5080   -1.3220 N.am  104  GLN104     -0.0878
     73  N         36.9720   22.3670   -7.7040 N.3   117  TRP117     -0.1241
     74  CA        35.7380   21.9870   -6.9570 C.3   117  TRP117      0.1605
     75  C         34.6840   21.6570   -7.9980 C.2   117  TRP117      0.2264
     76  O         34.0250   20.6400   -7.9160 O.2   117  TRP117     -0.2867
     77  CB        35.2310   23.1190   -6.1070 C.3   117  TRP117      0.0550
     78  CG        35.8680   23.2820   -4.7990 C.ar  117  TRP117      0.0003
     79  CD1       36.5940   24.3860   -4.3420 C.ar  117  TRP117      0.0946
     80  CD2       35.7930   22.3550   -3.6300 C.ar  117  TRP117      0.0152
     81  NE1       36.9540   24.2430   -3.0250 N.ar  117  TRP117     -0.2442
     82  CE2       36.5550   23.0360   -2.5260 C.ar  117  TRP117      0.0810
     83  CE3       35.2410   21.0780   -3.4130 C.ar  117  TRP117      0.0012
     84  CZ2       36.7170   22.4530   -1.2460 C.ar  117  TRP117      0.0191
     85  CZ3       35.4270   20.4940   -2.1340 C.ar  117  TRP117      0.0001
     86  CH2       36.1370   21.1620   -1.0720 C.ar  117  TRP117      0.0015
     87  N         32.8410   18.0630   -8.4520 N.3   121  MET121     -0.1245
     88  CA        31.3410   17.9590   -8.2060 C.3   121  MET121      0.1570
     89  C         30.6210   17.3890   -9.4820 C.2   121  MET121      0.2261
     90  O         29.6570   16.6100   -9.3800 O.2   121  MET121     -0.2867
     91  CB        30.7340   19.3030   -7.8740 C.3   121  MET121      0.0387
     92  CG        29.2430   19.0510   -7.5050 C.3   121  MET121      0.0595
     93  SD        28.4030   20.2850   -6.4900 S.3   121  MET121     -0.1393
     94  CE        29.8200   20.8290   -5.5050 C.3   121  MET121      0.0692
     95  N         30.9250   13.6370   -9.4970 N.3   124  TRP124     -0.1241
     96  CA        30.1970   12.9480   -8.4720 C.3   124  TRP124      0.1605
     97  C         28.7180   13.0130   -8.7580 C.2   124  TRP124      0.2264
     98  O         27.9970   12.1110   -8.4530 O.2   124  TRP124     -0.2867
     99  CB        30.5610   13.6510   -7.1520 C.3   124  TRP124      0.0550
    100  CG        32.0580   13.4080   -6.8190 C.ar  124  TRP124      0.0003
    101  CD1       32.8270   12.3050   -7.2140 C.ar  124  TRP124      0.0946
    102  CD2       32.9590   14.2550   -5.9670 C.ar  124  TRP124      0.0152
    103  NE1       34.1220   12.4040   -6.7430 N.ar  124  TRP124     -0.2442
    104  CE2       34.2870   13.6030   -6.0190 C.ar  124  TRP124      0.0810
    105  CE3       32.8460   15.5400   -5.3070 C.ar  124  TRP124      0.0012
    106  CZ2       35.3780   14.1040   -5.2750 C.ar  124  TRP124      0.0191
    107  CZ3       33.9970   16.0670   -4.5940 C.ar  124  TRP124      0.0001
    108  CH2       35.1910   15.3130   -4.5290 C.ar  124  TRP124      0.0015
    109  N         28.1000   10.5030  -11.4900 N.3   127  TYR127     -0.1227
    110  CA        28.0370    9.1210  -10.9050 C.3   127  TYR127      0.1736
    111  C         26.7180    8.9090  -10.1480 C.2   127  TYR127      0.2596
    112  O         26.0460    7.9090  -10.2860 O.2   127  TYR127     -0.2718
    113  CB        29.2760    8.9220  -10.0100 C.3   127  TYR127      0.0548
    114  CG        29.1920    7.6620   -9.3030 C.ar  127  TYR127     -0.0200
    115  CD1       29.4530    6.4670   -9.9940 C.ar  127  TYR127     -0.0009
    116  CD2       28.7530    7.6070   -7.9860 C.ar  127  TYR127     -0.0009
    117  CE1       29.3700    5.2430   -9.3590 C.ar  127  TYR127      0.0417
    118  CE2       28.6000    6.4010   -7.3600 C.ar  127  TYR127      0.0417
    119  CZ        28.9550    5.2350   -8.0670 C.ar  127  TYR127      0.1957
    120  OH        28.8640    4.0240   -7.4790 O.3   127  TYR127     -0.2866
    121  N         26.3010    9.8900   -9.3370 N.am  128  THR128     -0.1953
    122  CA        25.0460    9.7890   -8.6030 C.3   128  THR128      0.1897
    123  C         23.8520    9.5680   -9.5540 C.2   128  THR128      0.2313
    124  O         23.0090    8.7400   -9.3000 O.2   128  THR128     -0.2863
    125  CB        24.7590   11.1100   -7.7860 C.3   128  THR128      0.1794
    126  OG1       25.8450   11.3320   -6.8350 O.3   128  THR128     -0.2208
    127  CG2       23.4120   11.0130   -7.0600 C.3   128  THR128      0.0378
    128  N         23.7060   16.5540   -4.3470 N.3   155  ASN155     -0.1240
    129  CA        25.1100   16.8450   -4.1110 C.3   155  ASN155      0.1653
    130  C         25.3690   18.2680   -3.5490 C.2   155  ASN155      0.2266
    131  O         26.3100   18.4670   -2.7300 O.2   155  ASN155     -0.2867
    132  CB        25.8920   16.6360   -5.4900 C.3   155  ASN155      0.1155
    133  CG        26.2800   15.1670   -5.7060 C.2   155  ASN155      0.2627
    134  OD1       27.4360   14.8310   -5.4010 O.2   155  ASN155     -0.2716
    135  ND2       25.3940   14.3250   -6.2110 N.am  155  ASN155     -0.0877
    136  N         24.5160   18.2110    0.0480 N.3   158  ASN158     -0.1225
    137  CA        25.6100   17.6510    0.8690 C.3   158  ASN158      0.1785
    138  C         26.7740   18.5640    1.0230 C.2   158  ASN158      0.2597
    139  O         27.3400   18.7210    2.1430 O.2   158  ASN158     -0.2718
    140  CB        26.1350   16.3090    0.3200 C.3   158  ASN158      0.1169
    141  CG        25.2130   15.2140    0.5990 C.2   158  ASN158      0.2627
    142  OD1       23.9950   15.4600    0.8290 O.2   158  ASN158     -0.2716
    143  ND2       25.7010   13.9540    0.4610 N.am  158  ASN158     -0.0877
    144  N         27.1660   19.2140   -0.0650 N.am  159  GLU159     -0.1979
    145  CA        28.3410   20.1680    0.0160 C.3   159  GLU159      0.1602
    146  C         28.0470   21.2270    1.0900 C.2   159  GLU159      0.2287
    147  O         28.8610   21.4430    2.0220 O.2   159  GLU159     -0.2864
    148  CB        28.5770   20.8770   -1.3520 C.3   159  GLU159      0.0415
    149  CG        29.6800   21.9430   -1.2760 C.3   159  GLU159      0.1163
    150  CD        29.6230   22.9780   -2.4450 C.2   159  GLU159      0.3649
    151  OE1       29.4540   22.6210   -3.5670 O.co2 159  GLU159     -0.2457
    152  OE2       29.6710   24.1860   -2.2470 O.co2 159  GLU159     -0.2457
    153  N         27.2270   19.3850    4.9050 N.3   162  LEU162     -0.1231
    154  CA        28.4670   18.8020    5.5130 C.3   162  LEU162      0.1693
    155  C         29.3170   19.9340    5.9300 C.2   162  LEU162      0.2592
    156  O         29.7950   19.9640    7.0830 O.2   162  LEU162     -0.2718
    157  CB        29.1930   17.8950    4.5440 C.3   162  LEU162      0.0284
    158  CG        28.4510   16.5450    4.3960 C.3   162  LEU162      0.0019
    159  CD1       29.1240   15.7320    3.2700 C.3   162  LEU162      0.0001
    160  CD2       28.1910   15.7180    5.6910 C.3   162  LEU162      0.0001
    161  N         29.4260   20.9260    5.0720 N.am  163  PHE163     -0.1976
    162  CA        30.3450   22.0370    5.3600 C.3   163  PHE163      0.1639
    163  C         29.8830   22.8810    6.6190 C.2   163  PHE163      0.2290
    164  O         30.6720   23.1700    7.5620 O.2   163  PHE163     -0.2864
    165  CB        30.5110   22.9180    4.1110 C.3   163  PHE163      0.0560
    166  CG        31.4330   24.0950    4.3390 C.ar  163  PHE163     -0.0200
    167  CD1       32.8170   23.9750    3.9760 C.ar  163  PHE163     -0.0042
    168  CD2       31.0010   25.2700    4.9650 C.ar  163  PHE163     -0.0042
    169  CE1       33.7040   25.0280    4.2070 C.ar  163  PHE163     -0.0003
    170  CE2       31.9170   26.3150    5.2490 C.ar  163  PHE163     -0.0003
    171  CZ        33.2620   26.2040    4.8430 C.ar  163  PHE163     -0.0000
    172  N         30.6860   20.7650    9.6590 N.3   166  PHE166     -0.1241
    173  CA        32.1290   20.7430    9.9750 C.3   166  PHE166      0.1605
    174  C         32.5550   22.0680   10.5830 C.2   166  PHE166      0.2264
    175  O         33.4540   22.0730   11.4530 O.2   166  PHE166     -0.2867
    176  CB        33.0010   20.5130    8.7170 C.3   166  PHE166      0.0534
    177  CG        32.8050   19.1450    8.0820 C.ar  166  PHE166     -0.0203
    178  CD1       32.4040   18.0540    8.8080 C.ar  166  PHE166     -0.0042
    179  CD2       33.0870   18.9900    6.7460 C.ar  166  PHE166     -0.0042
    180  CE1       32.2300   16.8340    8.1510 C.ar  166  PHE166     -0.0003
    181  CE2       32.9810   17.7840    6.1120 C.ar  166  PHE166     -0.0003
    182  CZ        32.5290   16.7020    6.8110 C.ar  166  PHE166     -0.0000
    183  N         18.2870   11.7450    0.9100 N.3   186  TRP186     -0.1241
    184  CA        18.6340   11.0110   -0.3490 C.3   186  TRP186      0.1605
    185  C         17.7080    9.8270   -0.5510 C.2   186  TRP186      0.2264
    186  O         17.1420    9.6630   -1.6510 O.2   186  TRP186     -0.2867
    187  CB        20.0420   10.4650   -0.2280 C.3   186  TRP186      0.0550
    188  CG        21.0800   11.5120   -0.5020 C.ar  186  TRP186      0.0003
    189  CD1       21.3080   12.7580    0.2170 C.ar  186  TRP186      0.0946
    190  CD2       22.0700   11.4790   -1.5360 C.ar  186  TRP186      0.0152
    191  NE1       22.3720   13.4160   -0.3230 N.ar  186  TRP186     -0.2442
    192  CE2       22.8620   12.7160   -1.3970 C.ar  186  TRP186      0.0810
    193  CE3       22.3450   10.5930   -2.6270 C.ar  186  TRP186      0.0012
    194  CZ2       23.9140   13.0630   -2.3200 C.ar  186  TRP186      0.0191
    195  CZ3       23.3630   10.9580   -3.5110 C.ar  186  TRP186      0.0001
    196  CH2       24.1260   12.1560   -3.3750 C.ar  186  TRP186      0.0015
@<TRIPOS>BOND
     1   109   110    1
     2   110   111    1
     3   110   113    1
     4   112   111    2
     5   111   121   am
     6   113   114    1
     7   115   117   ar
     8   115   114   ar
     9   123   124    2
    10   123   122    1
    11    95    96    1
    12    89    90    2
    13    89    88    1
    14   117   119   ar
    15   121   122    1
    16   114   116   ar
    17    97    96    1
    18    97    98    2
    19   122   125    1
    20    96    99    1
    21    87    88    1
    22    88    91    1
    23   119   120    1
    24   119   118   ar
    25    75    76    2
    26    75    74    1
    27   116   118   ar
    28    91    92    1
    29   125   127    1
    30   125   126    1
    31    73    74    1
    32    92    93    1
    33   101   100   ar
    34   101   103   ar
    35    99   100    1
    36    74    77    1
    37   100   102   ar
    38   103   104   ar
    39    93    94    1
    40   135   133   am
    41    77    78    1
    42   104   102   ar
    43   104   106   ar
    44   102   105   ar
    45     8     6    1
    46   133   132    1
    47   133   134    2
    48   132   129    1
    49    22    20   ar
    50    22    21   ar
    51   105   107   ar
    52   106   108   ar
    53    20    18   ar
    54     6     5    1
    55     6     7    1
    56     4     3    2
    57     3     2    1
    58    78    79   ar
    59    78    80   ar
    60   107   108   ar
    61    21    19   ar
    62     5     2    1
    63   128   129    1
    64    79    81   ar
    65   129   130    1
    66     2     1    1
    67    18    17   ar
    68    18    16   ar
    69    80    83   ar
    70    80    82   ar
    71   151   150   ar
    72   130   131    2
    73   195   196   ar
    74   195   193   ar
    75    83    85   ar
    76   196   194   ar
    77    17    15   ar
    78    19    16   ar
    79    45    43   ar
    80    45    44   ar
    81    81    82   ar
    82    16    14   ar
    83    43    41   ar
    84   193   190   ar
    85    82    84   ar
    86   150   152   ar
    87   150   149    1
    88   194   192   ar
    89    44    42   ar
    90    85    86   ar
    91    15    14   ar
    92   186   185    2
    93   190   192   ar
    94   190   188   ar
    95    14    13    1
    96   192   191   ar
    97   148   149    1
    98   148   145    1
    99    41    40   ar
   100    72    70   am
   101    84    86   ar
   102    71    70    2
   103    67    66    2
   104    42    40   ar
   105    56    55   ar
   106    56    54   ar
   107    70    69    1
   108   185   184    1
   109   188   187    1
   110   188   189   ar
   111    40    39    1
   112   184   187    1
   113   184   183    1
   114   191   189   ar
   115    24    25    1
   116    24    23    1
   117    55    53   ar
   118    13    10    1
   119   144   145    1
   120   144   138   am
   121    10     9    1
   122    10    11    1
   123   145   146    1
   124    66    65    1
   125    54    52   ar
   126   136   137    1
   127    65    64    1
   128    65    68    1
   129    26    25    2
   130    25    27   am
   131   140   141    1
   132   140   137    1
   133   143   141   am
   134   141   142    2
   135    69    68    1
   136   137   138    1
   137    27    28    1
   138    32    34    1
   139    32    31    1
   140    39    36    1
   141   138   139    2
   142    12    11    2
   143   146   147    2
   144    53    51   ar
   145    52    51   ar
   146    28    31    1
   147    28    29    1
   148    36    35    1
   149    36    37    1
   150    51    50    1
   151    31    33    1
   152    29    30    2
   153    60    59    2
   154   159   158    1
   155    37    38    2
   156    58    59    1
   157    58    57    1
   158    58    61    1
   159    50    47    1
   160    63    61    1
   161    62    61    1
   162   167   169   ar
   163   167   166   ar
   164    46    47    1
   165   165   166    1
   166   165   162    1
   167   169   171   ar
   168    47    48    1
   169   166   168   ar
   170   158   157    1
   171   158   160    1
   172   157   154    1
   173   171   170   ar
   174   153   154    1
   175   168   170   ar
   176   161   162    1
   177   161   155   am
   178   162   163    1
   179   154   155    1
   180    48    49    2
   181   155   156    2
   182   181   179   ar
   183   181   182   ar
   184   163   164    2
   185   179   177   ar
   186   182   180   ar
   187   177   176    1
   188   177   178   ar
   189   180   178   ar
   190   176   173    1
   191   172   173    1
   192   173   174    1
   193   174   175    2
