@<TRIPOS>MOLECULE
tmp/5f0hA00.pdb
 245 240 0 0 0
SMALL
GASTEIGER

@<TRIPOS>ATOM
      1  N         43.1600  -20.7390   -7.4090 N.3    55  LEU55      -0.1245
      2  CA        41.7450  -20.4560   -7.0270 C.3    55  LEU55       0.1561
      3  C         41.7680  -19.4030   -5.9480 C.2    55  LEU55       0.2260
      4  O         41.0610  -18.4030   -6.0270 O.2    55  LEU55      -0.2867
      5  CB        41.0710  -21.7470   -6.5750 C.3    55  LEU55       0.0270
      6  CG        39.6000  -21.5790   -6.1730 C.3    55  LEU55       0.0019
      7  CD1       38.8160  -21.1150   -7.4090 C.3    55  LEU55       0.0001
      8  CD2       39.1220  -22.9460   -5.7150 C.3    55  LEU55       0.0001
      9  N         39.7530  -15.8370   -6.2440 N.3    59  VAL59      -0.1245
     10  CA        38.7420  -15.4970   -5.2260 C.3    59  VAL59       0.1561
     11  C         39.0930  -14.2060   -4.4950 C.2    59  VAL59       0.2260
     12  O         38.2620  -13.3200   -4.2680 O.2    59  VAL59      -0.2867
     13  CB        38.6780  -16.7230   -4.3050 C.3    59  VAL59       0.0252
     14  CG1       38.1720  -16.3550   -2.9600 C.3    59  VAL59       0.0019
     15  CG2       37.8760  -17.7970   -4.9930 C.3    59  VAL59       0.0019
     16  N         35.3570   -6.3130   -5.1000 N.3    66  LEU66      -0.1245
     17  CA        34.0680   -6.0200   -4.4180 C.3    66  LEU66       0.1561
     18  C         34.2190   -4.9630   -3.2670 C.2    66  LEU66       0.2260
     19  O         33.3590   -4.0580   -3.0810 O.2    66  LEU66      -0.2867
     20  CB        33.4710   -7.3470   -3.9000 C.3    66  LEU66       0.0270
     21  CG        32.1530   -7.2440   -3.1430 C.3    66  LEU66       0.0019
     22  CD1       31.1400   -6.4570   -3.9450 C.3    66  LEU66       0.0001
     23  CD2       31.5770   -8.6360   -2.8470 C.3    66  LEU66       0.0001
     24  N         34.3960   -1.5990   -4.9090 N.3    69  LEU69      -0.1231
     25  CA        33.0410   -1.1820   -5.1990 C.3    69  LEU69       0.1693
     26  C         32.3400   -0.6990   -3.9810 C.2    69  LEU69       0.2591
     27  O         31.7010    0.3770   -4.0400 O.2    69  LEU69      -0.2718
     28  CB        32.2050   -2.3170   -5.8000 C.3    69  LEU69       0.0284
     29  CG        31.9380   -2.2420   -7.2740 C.3    69  LEU69       0.0019
     30  CD1       30.7530   -3.1780   -7.5430 C.3    69  LEU69       0.0001
     31  CD2       31.6480   -0.8080   -7.7310 C.3    69  LEU69       0.0001
     32  N         32.4190   -1.4890   -2.8950 N.am   70  ALA70      -0.1980
     33  CA        31.6810   -1.2060   -1.6450 C.3    70  ALA70       0.1597
     34  C         32.1140    0.1180   -1.0700 C.2    70  ALA70       0.2287
     35  O         31.2600    0.8890   -0.6870 O.2    70  ALA70      -0.2864
     36  CB        31.8640   -2.3020   -0.5890 C.3    70  ALA70       0.0319
     37  N         30.6720    3.6640   -3.7900 N.3    73  PRO73      -0.2116
     38  CA        29.4240    3.3700   -4.5510 C.3    73  PRO73       0.1372
     39  C         29.3590    3.9850   -5.9980 C.2    73  PRO73       0.2244
     40  O         29.3940    5.2180   -6.1400 O.2    73  PRO73      -0.2868
     41  CB        28.2990    3.9640   -3.6520 C.3    73  PRO73       0.0268
     42  CG        28.9880    4.6560   -2.4990 C.3    73  PRO73       0.0207
     43  CD        30.3860    4.1010   -2.4030 C.3    73  PRO73       0.0892
     44  N         23.2600   -0.5490   -9.5400 N.3    81  MET81      -0.1182
     45  CA        24.0890   -0.9490   -8.4170 C.3    81  MET81       0.1917
     46  C         24.2340   -2.5360   -8.3620 C.2    81  MET81       0.2634
     47  O         25.3390   -3.0800   -8.0960 O.2    81  MET81      -0.2714
     48  CB        23.4700   -0.3750   -7.1190 C.2    81  MET81       0.0083
     49  CG        23.6960   -1.2250   -5.8600 C.2    81  MET81       0.0282
     50  SD        23.0950   -0.6550   -4.2200 S.3    81  MET81      -0.1125
     51  CE        21.4270   -1.2810   -3.9790 C.3    81  MET81       0.0742
     52  N         23.1060   -3.2590   -8.5330 N.am   82  TRP82      -0.1973
     53  CA        23.1500   -4.7520   -8.4620 C.3    82  TRP82       0.1640
     54  C         23.8990   -5.2910   -9.6470 C.2    82  TRP82       0.2290
     55  O         24.7230   -6.1920   -9.4950 O.2    82  TRP82      -0.2864
     56  CB        21.7400   -5.3340   -8.4100 C.3    82  TRP82       0.0576
     57  CG        21.0900   -4.9470   -7.0990 C.ar   82  TRP82       0.0006
     58  CD1       20.1270   -3.9740   -6.9210 C.ar   82  TRP82       0.0946
     59  CD2       21.3490   -5.4820   -5.7410 C.ar   82  TRP82       0.0152
     60  NE1       19.7500   -3.8940   -5.6050 N.ar   82  TRP82      -0.2442
     61  CE2       20.4480   -4.7330   -4.8320 C.ar   82  TRP82       0.0810
     62  CE3       22.1870   -6.4780   -5.2000 C.ar   82  TRP82       0.0012
     63  CZ2       20.3900   -4.9770   -3.4660 C.ar   82  TRP82       0.0191
     64  CZ3       22.1400   -6.6960   -3.7960 C.ar   82  TRP82       0.0001
     65  CH2       21.2470   -5.9660   -2.9560 C.ar   82  TRP82       0.0015
     66  N         27.6820   -4.9690   -9.1600 N.3    85  GLY85      -0.1210
     67  CA        28.2140   -5.9000   -8.1630 C.3    85  GLY85       0.1956
     68  C         28.2790   -7.3410   -8.7520 C.2    85  GLY85       0.2611
     69  O         29.3080   -8.0620   -8.6520 O.2    85  GLY85      -0.2717
     70  N         27.2190   -7.7890   -9.4070 N.am   86  ILE86      -0.1979
     71  CA        27.2500   -9.1500  -10.0060 C.3    86  ILE86       0.1595
     72  C         28.3250   -9.1920  -11.1130 C.2    86  ILE86       0.2287
     73  O         28.9810  -10.2210  -11.3400 O.2    86  ILE86      -0.2864
     74  CB        25.8630   -9.4650  -10.6130 C.3    86  ILE86       0.0276
     75  CG1       24.8480   -9.5120   -9.4580 C.3    86  ILE86       0.0022
     76  CG2       25.9410  -10.7500  -11.4420 C.3    86  ILE86       0.0022
     77  CD1       23.4500   -9.7160   -9.9640 C.3    86  ILE86       0.0001
     78  N         31.7630  -10.5450  -10.3540 N.3    89  PHE89      -0.1241
     79  CA        31.9250  -12.0270  -10.3890 C.3    89  PHE89       0.1605
     80  C         31.9660  -12.5070  -11.8060 C.2    89  PHE89       0.2264
     81  O         32.8110  -13.3400  -12.1690 O.2    89  PHE89      -0.2867
     82  CB        30.8310  -12.6940   -9.5170 C.3    89  PHE89       0.0534
     83  CG        31.0100  -12.3140   -8.0650 C.ar   89  PHE89      -0.0203
     84  CD1       31.8500  -13.0400   -7.2500 C.ar   89  PHE89      -0.0042
     85  CD2       30.4760  -11.1350   -7.5570 C.ar   89  PHE89      -0.0042
     86  CE1       32.1010  -12.6420   -5.9220 C.ar   89  PHE89      -0.0003
     87  CE2       30.7590  -10.7060   -6.2410 C.ar   89  PHE89      -0.0003
     88  CZ        31.5670  -11.4710   -5.4200 C.ar   89  PHE89      -0.0000
     89  N         35.6640  -14.1690  -12.5440 N.3    93  PHE93      -0.1241
     90  CA        35.7500  -15.6110  -12.7700 C.3    93  PHE93       0.1605
     91  C         35.7470  -15.8650  -14.2690 C.2    93  PHE93       0.2264
     92  O         36.3980  -16.8020  -14.7550 O.2    93  PHE93      -0.2867
     93  CB        34.5780  -16.2970  -12.0200 C.3    93  PHE93       0.0534
     94  CG        34.7990  -16.3290  -10.5330 C.ar   93  PHE93      -0.0203
     95  CD1       35.6070  -17.3270   -9.9710 C.ar   93  PHE93      -0.0042
     96  CD2       34.2420  -15.3680   -9.7030 C.ar   93  PHE93      -0.0042
     97  CE1       35.8650  -17.3140   -8.5640 C.ar   93  PHE93      -0.0003
     98  CE2       34.4890  -15.3430   -8.2980 C.ar   93  PHE93      -0.0003
     99  CZ        35.2980  -16.3100   -7.7260 C.ar   93  PHE93      -0.0000
    100  N         39.9180  -26.8910   -0.8210 N.3   113  VAL113     -0.1245
    101  CA        39.1730  -26.1350   -1.8330 C.3   113  VAL113      0.1561
    102  C         37.7450  -25.8730   -1.2990 C.2   113  VAL113      0.2260
    103  O         37.2840  -24.7470   -1.3530 O.2   113  VAL113     -0.2867
    104  CB        39.1600  -26.8230   -3.2070 C.3   113  VAL113      0.0252
    105  CG1       38.1390  -26.1250   -4.1300 C.3   113  VAL113      0.0019
    106  CG2       40.5790  -26.8310   -3.7860 C.3   113  VAL113      0.0019
    107  N         37.9280  -22.9810    1.2930 N.3   116  LEU116     -0.1231
    108  CA        38.1260  -21.6660    0.7220 C.3   116  LEU116      0.1693
    109  C         36.7360  -21.1790    0.1160 C.2   116  LEU116      0.2592
    110  O         36.2630  -20.0540    0.3420 O.2   116  LEU116     -0.2718
    111  CB        39.1940  -21.7970   -0.3850 C.3   116  LEU116      0.0284
    112  CG        39.2590  -20.5450   -1.2610 C.3   116  LEU116      0.0019
    113  CD1       39.8830  -19.4170   -0.4940 C.3   116  LEU116      0.0001
    114  CD2       40.0490  -20.8270   -2.5320 C.3   116  LEU116      0.0001
    115  N         36.0830  -22.1050   -0.5820 N.am  117  TRP117     -0.1976
    116  CA        34.7800  -21.8180   -1.2380 C.3   117  TRP117      0.1640
    117  C         33.7990  -21.3280   -0.2320 C.2   117  TRP117      0.2290
    118  O         33.1650  -20.2400   -0.3580 O.2   117  TRP117     -0.2864
    119  CB        34.2720  -23.1170   -1.7590 C.3   117  TRP117      0.0576
    120  CG        33.4070  -23.0250   -2.9660 C.ar  117  TRP117      0.0006
    121  CD1       31.9960  -22.7480   -3.0430 C.ar  117  TRP117      0.0946
    122  CD2       33.8450  -23.3120   -4.3360 C.ar  117  TRP117      0.0152
    123  NE1       31.5720  -22.7850   -4.3420 N.ar  117  TRP117     -0.2442
    124  CE2       32.6380  -23.1410   -5.1930 C.ar  117  TRP117      0.0810
    125  CE3       35.1030  -23.6640   -4.9410 C.ar  117  TRP117      0.0012
    126  CZ2       32.7100  -23.2920   -6.6060 C.ar  117  TRP117      0.0191
    127  CZ3       35.1500  -23.8070   -6.3360 C.ar  117  TRP117      0.0001
    128  CH2       33.9740  -23.6290   -7.1560 C.ar  117  TRP117      0.0015
    129  N         34.5870  -17.7250    1.4650 N.3   120  PHE120     -0.1227
    130  CA        34.1580  -16.6050    0.6430 C.3   120  PHE120      0.1736
    131  C         32.6720  -16.5450    0.2920 C.2   120  PHE120      0.2595
    132  O         32.1050  -15.4500    0.2630 O.2   120  PHE120     -0.2718
    133  CB        35.0830  -16.5260   -0.5750 C.3   120  PHE120      0.0547
    134  CG        36.3950  -15.9490   -0.1810 C.ar  120  PHE120     -0.0202
    135  CD1       36.5630  -14.5290   -0.1300 C.ar  120  PHE120     -0.0042
    136  CD2       37.4250  -16.7930    0.2970 C.ar  120  PHE120     -0.0042
    137  CE1       37.7900  -13.9840    0.3150 C.ar  120  PHE120     -0.0003
    138  CE2       38.6290  -16.2340    0.7380 C.ar  120  PHE120     -0.0003
    139  CZ        38.8040  -14.8390    0.7520 C.ar  120  PHE120     -0.0000
    140  N         32.0470  -17.6950    0.0860 N.am  121  MET121     -0.1979
    141  CA        30.5610  -17.6930   -0.1130 C.3   121  MET121      0.1605
    142  C         29.8840  -17.0810    1.1130 C.2   121  MET121      0.2287
    143  O         29.0170  -16.2220    0.9930 O.2   121  MET121     -0.2864
    144  CB        30.0020  -19.1110   -0.3500 C.3   121  MET121      0.0413
    145  CG        30.2580  -19.6400   -1.7660 C.3   121  MET121      0.0598
    146  SD        28.8340  -19.4920   -2.9370 S.3   121  MET121     -0.1393
    147  CE        27.9200  -18.4130   -2.0160 C.3   121  MET121      0.0692
    148  N         30.4380  -13.2130    1.0250 N.3   124  TRP124     -0.1241
    149  CA        29.6880  -12.4760    0.0160 C.3   124  TRP124      0.1605
    150  C         28.2160  -12.5440    0.2230 C.2   124  TRP124      0.2264
    151  O         27.5450  -11.5830   -0.0330 O.2   124  TRP124     -0.2867
    152  CB        30.0230  -13.0780   -1.3590 C.3   124  TRP124      0.0550
    153  CG        31.5010  -12.8390   -1.6480 C.ar  124  TRP124      0.0003
    154  CD1       32.3350  -11.7850   -1.1680 C.ar  124  TRP124      0.0946
    155  CD2       32.3510  -13.6450   -2.5250 C.ar  124  TRP124      0.0152
    156  NE1       33.6360  -11.9730   -1.6170 N.ar  124  TRP124     -0.2442
    157  CE2       33.7070  -13.0450   -2.4590 C.ar  124  TRP124      0.0810
    158  CE3       32.1530  -14.8280   -3.3120 C.ar  124  TRP124      0.0012
    159  CZ2       34.7770  -13.5750   -3.2080 C.ar  124  TRP124      0.0191
    160  CZ3       33.2700  -15.3480   -4.0360 C.ar  124  TRP124      0.0001
    161  CH2       34.5100  -14.7100   -4.0180 C.ar  124  TRP124      0.0015
    162  N         27.5490   -9.9470    2.9690 N.3   127  TYR127     -0.1227
    163  CA        27.5940   -8.5810    2.3840 C.3   127  TYR127      0.1736
    164  C         26.2790   -8.2880    1.6480 C.2   127  TYR127      0.2596
    165  O         25.6080   -7.2490    1.8210 O.2   127  TYR127     -0.2718
    166  CB        28.8510   -8.4320    1.4860 C.3   127  TYR127      0.0548
    167  CG        28.8750   -7.0160    0.9860 C.ar  127  TYR127     -0.0200
    168  CD1       28.9960   -5.9410    1.8740 C.ar  127  TYR127     -0.0009
    169  CD2       28.5980   -6.7520   -0.3230 C.ar  127  TYR127     -0.0009
    170  CE1       28.9030   -4.6320    1.4350 C.ar  127  TYR127      0.0417
    171  CE2       28.5420   -5.4610   -0.7870 C.ar  127  TYR127      0.0417
    172  CZ        28.7000   -4.3940    0.0790 C.ar  127  TYR127      0.1957
    173  OH        28.6080   -3.1040   -0.4610 O.3   127  TYR127     -0.2866
    174  N         25.8590   -9.2770    0.8550 N.am  128  THR128     -0.1953
    175  CA        24.6040   -9.1740    0.0700 C.3   128  THR128      0.1897
    176  C         23.4230   -8.9370    1.0070 C.2   128  THR128      0.2313
    177  O         22.5420   -8.0840    0.7530 O.2   128  THR128     -0.2863
    178  CB        24.3290  -10.4740   -0.7520 C.3   128  THR128      0.1794
    179  OG1       25.3590  -10.7120   -1.7200 O.3   128  THR128     -0.2208
    180  CG2       22.9700  -10.3570   -1.4890 C.3   128  THR128      0.0378
    181  N         23.3760   -5.4700    2.2630 N.3   131  VAL131     -0.1245
    182  CA        22.8340   -4.4870    1.2750 C.3   131  VAL131      0.1561
    183  C         21.3200   -4.5900    1.2090 C.2   131  VAL131      0.2260
    184  O         20.6060   -3.5760    1.2400 O.2   131  VAL131     -0.2867
    185  CB        23.4550   -4.6300   -0.1540 C.3   131  VAL131      0.0252
    186  CG1       22.9020   -3.5580   -1.0890 C.3   131  VAL131      0.0019
    187  CG2       24.9980   -4.7140   -0.1430 C.3   131  VAL131      0.0019
    188  N         22.9100  -15.9450   -4.2190 N.3   155  ASN155     -0.1240
    189  CA        24.3480  -16.1600   -4.4760 C.3   155  ASN155      0.1653
    190  C         24.6090  -17.5280   -5.0280 C.2   155  ASN155      0.2266
    191  O         25.5040  -17.7100   -5.8760 O.2   155  ASN155     -0.2867
    192  CB        25.1700  -15.9860   -3.1650 C.3   155  ASN155      0.1155
    193  CG        25.5990  -14.5650   -2.9370 C.2   155  ASN155      0.2627
    194  OD1       26.7600  -14.2780   -3.1250 O.2   155  ASN155     -0.2716
    195  ND2       24.7200  -13.7110   -2.4600 N.am  155  ASN155     -0.0877
    196  N         23.7200  -17.4930   -8.6410 N.3   158  ASN158     -0.1225
    197  CA        24.7750  -16.9060   -9.4900 C.3   158  ASN158      0.1785
    198  C         25.9450  -17.8090   -9.6280 C.2   158  ASN158      0.2597
    199  O         26.4910  -17.9070  -10.7290 O.2   158  ASN158     -0.2718
    200  CB        25.3050  -15.6040   -8.8760 C.3   158  ASN158      0.1169
    201  CG        24.3420  -14.4640   -9.0770 C.2   158  ASN158      0.2627
    202  OD1       23.1720  -14.6720   -9.4870 O.2   158  ASN158     -0.2716
    203  ND2       24.8040  -13.2470   -8.7930 N.am  158  ASN158     -0.0877
    204  N         26.4010  -18.4150   -8.5100 N.am  159  GLU159     -0.1979
    205  CA        27.5480  -19.3170   -8.6090 C.3   159  GLU159      0.1602
    206  C         27.2650  -20.4330   -9.6500 C.2   159  GLU159      0.2287
    207  O         28.1010  -20.6540  -10.5890 O.2   159  GLU159     -0.2864
    208  CB        27.8470  -19.9520   -7.2800 C.3   159  GLU159      0.0415
    209  CG        29.1000  -20.7690   -7.2500 C.3   159  GLU159      0.1163
    210  CD        28.8310  -22.1110   -6.5540 C.2   159  GLU159      0.3649
    211  OE1       29.0330  -22.2830   -5.3340 O.co2 159  GLU159     -0.2457
    212  OE2       28.3030  -22.9750   -7.2150 O.co2 159  GLU159     -0.2457
    213  N         26.5600  -18.7860  -13.3790 N.3   162  LEU162     -0.1231
    214  CA        27.8190  -18.2410  -13.9910 C.3   162  LEU162      0.1693
    215  C         28.7030  -19.3890  -14.3850 C.2   162  LEU162      0.2592
    216  O         29.1690  -19.4390  -15.5360 O.2   162  LEU162     -0.2718
    217  CB        28.5890  -17.2900  -13.0440 C.3   162  LEU162      0.0284
    218  CG        27.8820  -15.9180  -12.8690 C.3   162  LEU162      0.0019
    219  CD1       28.6610  -15.2450  -11.7290 C.3   162  LEU162      0.0001
    220  CD2       27.8330  -15.0670  -14.1460 C.3   162  LEU162      0.0001
    221  N         28.8840  -20.3420  -13.4840 N.am  163  PHE163     -0.1976
    222  CA        29.8150  -21.4360  -13.7760 C.3   163  PHE163      0.1639
    223  C         29.3020  -22.3630  -14.8860 C.2   163  PHE163      0.2290
    224  O         30.0770  -22.7400  -15.7700 O.2   163  PHE163     -0.2864
    225  CB        30.3600  -22.1250  -12.4950 C.3   163  PHE163      0.0560
    226  CG        31.1770  -21.1230  -11.5400 C.ar  163  PHE163     -0.0200
    227  CD1       31.3540  -19.7340  -11.8630 C.ar  163  PHE163     -0.0042
    228  CD2       31.7160  -21.5460  -10.3200 C.ar  163  PHE163     -0.0042
    229  CE1       32.0080  -18.8280  -10.9970 C.ar  163  PHE163     -0.0003
    230  CE2       32.3940  -20.6410   -9.4760 C.ar  163  PHE163     -0.0003
    231  CZ        32.5470  -19.3010   -9.8110 C.ar  163  PHE163     -0.0000
    232  N         17.5380  -11.0530   -9.3820 N.3   186  TRP186     -0.1241
    233  CA        17.8840  -10.3050   -8.1860 C.3   186  TRP186      0.1605
    234  C         16.9210   -9.1260   -7.9050 C.2   186  TRP186      0.2264
    235  O         16.3330   -9.0190   -6.8010 O.2   186  TRP186     -0.2867
    236  CB        19.3130   -9.7060   -8.2710 C.3   186  TRP186      0.0550
    237  CG        20.3420  -10.7570   -7.9690 C.ar  186  TRP186      0.0003
    238  CD1       20.5600  -11.9830   -8.6490 C.ar  186  TRP186      0.0946
    239  CD2       21.3090  -10.7550   -6.8790 C.ar  186  TRP186      0.0152
    240  NE1       21.5740  -12.6760   -8.0510 N.ar  186  TRP186     -0.2442
    241  CE2       22.0770  -11.9700   -7.0070 C.ar  186  TRP186      0.0810
    242  CE3       21.6240   -9.8490   -5.8340 C.ar  186  TRP186      0.0012
    243  CZ2       23.1090  -12.3060   -6.0740 C.ar  186  TRP186      0.0191
    244  CZ3       22.6450  -10.1900   -4.9260 C.ar  186  TRP186      0.0001
    245  CH2       23.3590  -11.4020   -5.0380 C.ar  186  TRP186      0.0015
@<TRIPOS>BOND
     1   224   223    2
     2   216   215    2
     3   223   222    1
     4    92    91    2
     5   215   214    1
     6   215   221   am
     7    91    90    1
     8   220   218    1
     9   214   213    1
    10   214   217    1
    11   222   221    1
    12   222   225    1
    13   217   218    1
    14   218   219    1
    15    90    89    1
    16    90    93    1
    17   225   226    1
    18    81    80    2
    19    93    94    1
    20   227   226   ar
    21   227   229   ar
    22    80    79    1
    23   226   228   ar
    24    76    74    1
    25    73    72    2
    26    72    71    1
    27   229   231   ar
    28   199   198    2
    29    74    71    1
    30    74    75    1
    31   207   206    2
    32    94    95   ar
    33    94    96   ar
    34    79    78    1
    35    79    82    1
    36   228   230   ar
    37    71    70    1
    38    95    97   ar
    39    77    75    1
    40   231   230   ar
    41    96    98   ar
    42   206   205    1
    43    54    55    2
    44    54    53    1
    45   198   197    1
    46   198   204   am
    47    44    45    1
    48    82    83    1
    49   197   200    1
    50   197   196    1
    51   202   201    2
    52    70    68   am
    53   232   233    1
    54    66    67    1
    55   201   200    1
    56   201   203   am
    57    68    69    2
    58    68    67    1
    59   238   240   ar
    60   238   237   ar
    61   205   204    1
    62   205   208    1
    63    97    99   ar
    64    52    53    1
    65    52    46   am
    66    53    56    1
    67    45    46    1
    68    45    48    1
    69    56    57    1
    70    46    47    2
    71    98    99   ar
    72   236   233    1
    73   236   237    1
    74   233   234    1
    75    83    85   ar
    76    83    84   ar
    77   240   241   ar
    78   237   239   ar
    79   234   235    2
    80    31    29    1
    81    85    87   ar
    82    30    29    1
    83     1     2    1
    84     7     6    1
    85   208   209    1
    86    29    28    1
    87    84    86   ar
    88   209   210    1
    89   212   210   ar
    90   128   126   ar
    91   128   127   ar
    92    48    49    2
    93    57    58   ar
    94    57    59   ar
    95     2     5    1
    96     2     3    1
    97   241   239   ar
    98   241   243   ar
    99    58    60   ar
   100   239   242   ar
   101   126   124   ar
   102     5     6    1
   103   210   211   ar
   104   127   125   ar
   105     9    10    1
   106    87    88   ar
   107     6     8    1
   108    40    39    2
   109   243   245   ar
   110     4     3    2
   111    39    38    1
   112    86    88   ar
   113   191   190    2
   114    49    50    1
   115   242   244   ar
   116    28    25    1
   117    59    62   ar
   118    59    61   ar
   119    60    61   ar
   120    10    11    1
   121    10    13    1
   122    62    64   ar
   123    25    24    1
   124    25    26    1
   125   124   123   ar
   126   124   122   ar
   127    16    17    1
   128   245   244   ar
   129   190   189    1
   130    15    13    1
   131   125   122   ar
   132    61    63   ar
   133    38    37    1
   134    38    41    1
   135    11    12    2
   136   189   188    1
   137   189   192    1
   138    17    20    1
   139    17    18    1
   140   123   121   ar
   141   122   120   ar
   142    13    14    1
   143    50    51    1
   144   105   104    1
   145    27    26    2
   146   160   161   ar
   147   160   158   ar
   148   161   159   ar
   149    26    32   am
   150    22    21    1
   151    20    21    1
   152    64    65   ar
   153    37    43    1
   154   106   104    1
   155    41    42    1
   156    63    65   ar
   157   158   155   ar
   158    18    19    2
   159   159   157   ar
   160   104   101    1
   161   192   193    1
   162    21    23    1
   163   194   193    2
   164   121   120   ar
   165   120   119    1
   166   146   147    1
   167   146   145    1
   168   193   195   am
   169    32    33    1
   170   114   112    1
   171   155   157   ar
   172   155   153   ar
   173    42    43    1
   174   157   156   ar
   175   101   102    1
   176   101   100    1
   177   145   144    1
   178   119   116    1
   179   179   178    1
   180   153   152    1
   181   153   154   ar
   182    33    34    1
   183    33    36    1
   184   156   154   ar
   185   180   178    1
   186   152   149    1
   187   103   102    2
   188   112   113    1
   189   112   111    1
   190   116   115    1
   191   116   117    1
   192   186   185    1
   193    34    35    2
   194   171   169   ar
   195   171   172   ar
   196   178   175    1
   197   115   109   am
   198   133   134    1
   199   133   130    1
   200   173   172    1
   201   111   108    1
   202   118   117    2
   203   144   141    1
   204   169   167   ar
   205   134   135   ar
   206   134   136   ar
   207   185   187    1
   208   185   182    1
   209   135   137   ar
   210   141   140    1
   211   141   142    1
   212   151   150    2
   213   149   150    1
   214   149   148    1
   215   175   174    1
   216   175   176    1
   217   172   170   ar
   218   140   131   am
   219   109   110    2
   220   109   108    1
   221   132   131    2
   222   131   130    1
   223   136   138   ar
   224   137   139   ar
   225   130   129    1
   226   108   107    1
   227   138   139   ar
   228   177   176    2
   229   174   164   am
   230   167   166    1
   231   167   168   ar
   232   143   142    2
   233   183   184    2
   234   183   182    1
   235   182   181    1
   236   170   168   ar
   237   166   163    1
   238   164   165    2
   239   164   163    1
   240   163   162    1
