@<TRIPOS>MOLECULE
tmp/5f15A00.pdb
 100 96 0 0 0
SMALL
GASTEIGER

@<TRIPOS>ATOM
      1  N         37.2180    8.9230   43.7100 N.3   175  ILE175     -0.1245
      2  CA        36.3430    9.4200   44.7660 C.3   175  ILE175      0.1561
      3  C         36.5690    8.6380   46.0510 C.2   175  ILE175      0.2260
      4  O         36.3830    9.1720   47.1510 O.2   175  ILE175     -0.2867
      5  CB        34.8610    9.3960   44.3400 C.3   175  ILE175      0.0252
      6  CG1       34.2760    7.9890   44.4300 C.3   175  ILE175      0.0019
      7  CG2       34.6940    9.9540   42.9370 C.3   175  ILE175      0.0019
      8  CD1       32.7720    7.9650   44.3370 C.3   175  ILE175      0.0001
      9  N         34.0570   13.2960   46.3650 N.3   180  LEU180     -0.1245
     10  CA        33.2490   13.4950   45.1650 C.3   180  LEU180      0.1561
     11  C         33.9300   14.3330   44.0890 C.2   180  LEU180      0.2260
     12  O         33.3570   14.5450   43.0170 O.2   180  LEU180     -0.2867
     13  CB        31.9160   14.1490   45.5360 C.3   180  LEU180      0.0270
     14  CG        30.9400   13.3370   46.3870 C.3   180  LEU180      0.0019
     15  CD1       29.7630   14.1980   46.8120 C.3   180  LEU180      0.0001
     16  CD2       30.4630   12.1060   45.6330 C.3   180  LEU180      0.0001
     17  N         31.5120    1.5030   38.9450 N.3   215  MET215     -0.1230
     18  CA        31.9210    2.5170   39.9110 C.3   215  MET215      0.1702
     19  C         31.2340    2.3070   41.2550 C.2   215  MET215      0.2592
     20  O         31.8690    2.4170   42.3120 O.2   215  MET215     -0.2718
     21  CB        31.6130    3.9050   39.3590 C.3   215  MET215      0.0401
     22  CG        31.9130    5.0430   40.3060 C.3   215  MET215      0.0596
     23  SD        31.3470    6.6000   39.6030 S.3   215  MET215     -0.1393
     24  CE        31.9260    7.7670   40.8260 C.3   215  MET215      0.0692
     25  N         29.9370    1.9960   41.2370 N.am  216  LEU216     -0.1980
     26  CA        29.2050    1.8470   42.4890 C.3   216  LEU216      0.1596
     27  C         29.6500    0.6020   43.2490 C.2   216  LEU216      0.2287
     28  O         29.6720    0.6020   44.4850 O.2   216  LEU216     -0.2864
     29  CB        27.7000    1.8080   42.2180 C.3   216  LEU216      0.0297
     30  CG        27.0860    3.0990   41.6630 C.3   216  LEU216      0.0022
     31  CD1       25.5920    2.9410   41.4060 C.3   216  LEU216      0.0001
     32  CD2       27.3510    4.2710   42.5920 C.3   216  LEU216      0.0001
     33  N         32.8240    1.9060   45.0620 N.3   219  THR219     -0.1203
     34  CA        32.7770    3.0240   45.9970 C.3   219  THR219      0.1994
     35  C         31.7010    2.8800   47.0600 C.2   219  THR219      0.2617
     36  O         31.8900    3.3580   48.1820 O.2   219  THR219     -0.2717
     37  CB        32.5560    4.3350   45.2450 C.3   219  THR219      0.1784
     38  OG1       31.2250    4.3640   44.7200 O.3   219  THR219     -0.2211
     39  CG2       33.5360    4.4350   44.1060 C.3   219  THR219      0.0376
     40  N         30.5780    2.2370   46.7320 N.am  220  VAL220     -0.1979
     41  CA        29.4920    2.0960   47.7060 C.3   220  VAL220      0.1595
     42  C         29.8970    1.2750   48.9240 C.2   220  VAL220      0.2287
     43  O         29.5290    1.6580   50.0440 O.2   220  VAL220     -0.2864
     44  CB        28.2300    1.5680   47.0160 C.3   220  VAL220      0.0276
     45  CG1       27.1620    1.2220   48.0380 C.3   220  VAL220      0.0022
     46  CG2       27.7070    2.5990   46.0310 C.3   220  VAL220      0.0022
     47  N         31.6720    3.3180   51.9240 N.3   223  PHE223     -0.1227
     48  CA        30.7890    4.3650   52.4270 C.3   223  PHE223      0.1736
     49  C         29.6210    3.7740   53.2040 C.2   223  PHE223      0.2595
     50  O         29.2090    4.3190   54.2340 O.2   223  PHE223     -0.2718
     51  CB        30.2910    5.2330   51.2740 C.3   223  PHE223      0.0547
     52  CG        31.3030    6.2270   50.7880 C.ar  223  PHE223     -0.0202
     53  CD1       31.2090    7.5600   51.1440 C.ar  223  PHE223     -0.0042
     54  CD2       32.3560    5.8270   49.9840 C.ar  223  PHE223     -0.0042
     55  CE1       32.1420    8.4760   50.7020 C.ar  223  PHE223     -0.0003
     56  CE2       33.2920    6.7380   49.5390 C.ar  223  PHE223     -0.0003
     57  CZ        33.1850    8.0650   49.8980 C.ar  223  PHE223     -0.0000
     58  N         29.0850    2.6470   52.7330 N.am  224  TYR224     -0.1976
     59  CA        28.0010    1.9910   53.4550 C.3   224  TYR224      0.1639
     60  C         28.4820    1.4300   54.7860 C.2   224  TYR224      0.2290
     61  O         27.7890    1.5530   55.8020 O.2   224  TYR224     -0.2864
     62  CB        27.3890    0.8860   52.5950 C.3   224  TYR224      0.0560
     63  CG        26.3870    0.0250   53.3290 C.ar  224  TYR224     -0.0198
     64  CD1       25.0930    0.4730   53.5560 C.ar  224  TYR224     -0.0009
     65  CD2       26.7340   -1.2380   53.7900 C.ar  224  TYR224     -0.0009
     66  CE1       24.1730   -0.3120   54.2250 C.ar  224  TYR224      0.0417
     67  CE2       25.8210   -2.0290   54.4600 C.ar  224  TYR224      0.0417
     68  CZ        24.5430   -1.5620   54.6740 C.ar  224  TYR224      0.1957
     69  OH        23.6310   -2.3480   55.3410 O.3   224  TYR224     -0.2866
     70  N         29.3080    4.2180   57.1480 N.3   227  SER227     -0.1202
     71  CA        28.0910    4.9540   57.4720 C.3   227  SER227      0.2020
     72  C         27.2120    4.1770   58.4430 C.2   227  SER227      0.2618
     73  O         26.5620    4.7730   59.3080 O.2   227  SER227     -0.2717
     74  CB        27.3190    5.2830   56.1950 C.3   227  SER227      0.2103
     75  OG        28.0490    6.1840   55.3810 O.3   227  SER227     -0.2182
     76  N         27.1800    2.8490   58.3200 N.am  228  VAL228     -0.1979
     77  CA        26.4060    2.0360   59.2520 C.3   228  VAL228      0.1595
     78  C         27.0990    1.9810   60.6070 C.2   228  VAL228      0.2287
     79  O         26.4750    2.2040   61.6510 O.2   228  VAL228     -0.2864
     80  CB        26.1770    0.6280   58.6770 C.3   228  VAL228      0.0276
     81  CG1       25.6720   -0.3110   59.7590 C.3   228  VAL228      0.0022
     82  CG2       25.1900    0.6870   57.5270 C.3   228  VAL228      0.0022
     83  N         28.2200   10.3900   57.1320 N.3   234  PRO234     -0.2116
     84  CA        27.8540   11.0110   55.8450 C.3   234  PRO234      0.1372
     85  C         27.5670   12.4990   55.9340 C.2   234  PRO234      0.2244
     86  O         27.9370   13.2470   55.0190 O.2   234  PRO234     -0.2868
     87  CB        26.6100   10.2160   55.4210 C.3   234  PRO234      0.0268
     88  CG        26.0490    9.6930   56.6880 C.3   234  PRO234      0.0207
     89  CD        27.2330    9.3710   57.5370 C.3   234  PRO234      0.0892
     90  N         30.1200   14.6190   53.6770 N.3   238  PHE238     -0.1241
     91  CA        29.5410   15.1590   52.4540 C.3   238  PHE238      0.1605
     92  C         29.1480   16.6220   52.5750 C.2   238  PHE238      0.2264
     93  O         29.1790   17.3430   51.5720 O.2   238  PHE238     -0.2867
     94  CB        28.3240   14.3340   52.0360 C.3   238  PHE238      0.0534
     95  CG        28.6770   13.0060   51.4430 C.ar  238  PHE238     -0.0203
     96  CD1       29.2090   12.9260   50.1680 C.ar  238  PHE238     -0.0042
     97  CD2       28.4800   11.8360   52.1560 C.ar  238  PHE238     -0.0042
     98  CE1       29.5380   11.7060   49.6140 C.ar  238  PHE238     -0.0003
     99  CE2       28.8060   10.6120   51.6070 C.ar  238  PHE238     -0.0003
    100  CZ        29.3360   10.5470   50.3350 C.ar  238  PHE238     -0.0000
@<TRIPOS>BOND
     1    17    18    1
     2    21    18    1
     3    21    22    1
     4    23    22    1
     5    23    24    1
     6    18    19    1
     7    25    19   am
     8    25    26    1
     9    19    20    2
    10    31    30    1
    11    30    29    1
    12    30    32    1
    13    29    26    1
    14    26    27    1
    15     7     5    1
    16    12    11    2
    17    27    28    2
    18     1     2    1
    19    11    10    1
    20    39    37    1
    21     8     6    1
    22     5     6    1
    23     5     2    1
    24    38    37    1
    25     2     3    1
    26    33    34    1
    27    10    13    1
    28    10     9    1
    29    37    34    1
    30    13    14    1
    31    16    14    1
    32    34    35    1
    33    46    44    1
    34     3     4    2
    35    14    15    1
    36    40    35   am
    37    40    41    1
    38    44    41    1
    39    44    45    1
    40    35    36    2
    41    41    42    1
    42    42    43    2
    43    56    57   ar
    44    56    54   ar
    45    98    96   ar
    46    98   100   ar
    47    57    55   ar
    48    54    52   ar
    49    96    95   ar
    50   100    99   ar
    51    55    53   ar
    52    52    53   ar
    53    52    51    1
    54    51    48    1
    55    95    94    1
    56    95    97   ar
    57    93    92    2
    58    99    97   ar
    59    47    48    1
    60    94    91    1
    61    48    49    1
    62    91    92    1
    63    91    90    1
    64    62    63    1
    65    62    59    1
    66    58    49   am
    67    58    59    1
    68    49    50    2
    69    63    64   ar
    70    63    65   ar
    71    59    60    1
    72    64    66   ar
    73    65    67   ar
    74    66    68   ar
    75    67    68   ar
    76    68    69    1
    77    60    61    2
    78    86    85    2
    79    75    74    1
    80    87    84    1
    81    87    88    1
    82    84    85    1
    83    84    83    1
    84    74    71    1
    85    88    89    1
    86    83    89    1
    87    70    71    1
    88    71    72    1
    89    82    80    1
    90    76    72   am
    91    76    77    1
    92    72    73    2
    93    80    77    1
    94    80    81    1
    95    77    78    1
    96    78    79    2
