@<TRIPOS>MOLECULE
tmp/5f15A21.pdb
 114 107 0 0 0
SMALL
GASTEIGER

@<TRIPOS>ATOM
      1  N         50.8940   17.0190   56.7880 N.3    30  ASP30      -0.1239
      2  CA        50.2700   15.9910   55.9600 C.3    30  ASP30       0.1674
      3  C         51.0040   14.6570   56.0540 C.2    30  ASP30       0.2266
      4  O         50.3790   13.6120   56.2730 O.2    30  ASP30      -0.2867
      5  CB        50.2000   16.4670   54.5100 C.3    30  ASP30       0.1410
      6  CG        49.2080   17.5980   54.3180 C.2    30  ASP30       0.3668
      7  OD1       48.1300   17.5540   54.9460 O.co2  30  ASP30      -0.2456
      8  OD2       49.5050   18.5310   53.5430 O.co2  30  ASP30      -0.2456
      9  N         58.2860   20.1690   38.3070 N.3   121  PRO121     -0.2102
     10  CA        58.5720   20.0950   39.7460 C.3   121  PRO121      0.1504
     11  C         57.3520   19.7860   40.5890 C.2   121  PRO121      0.2575
     12  O         57.4990   19.2310   41.6830 O.2   121  PRO121     -0.2718
     13  CB        59.1410   21.4840   40.0640 C.3   121  PRO121      0.0282
     14  CG        58.5760   22.3660   39.0140 C.3   121  PRO121      0.0208
     15  CD        58.4830   21.5260   37.7740 C.3   121  PRO121      0.0893
     16  N         56.1510   20.1260   40.1240 N.am  122  MET122     -0.1980
     17  CA        54.9610   19.7760   40.8880 C.3   122  MET122      0.1605
     18  C         54.7160   18.2730   40.8640 C.2   122  MET122      0.2287
     19  O         54.3230   17.6860   41.8780 O.2   122  MET122     -0.2864
     20  CB        53.7470   20.5300   40.3530 C.3   122  MET122      0.0413
     21  CG        52.4450   20.1430   41.0250 C.3   122  MET122      0.0598
     22  SD        51.1620   21.3860   40.8170 S.3   122  MET122     -0.1393
     23  CE        51.8490   22.7340   41.7700 C.3   122  MET122      0.0692
     24  N         58.1600   16.5460   42.5290 N.3   125  VAL125     -0.1231
     25  CA        58.2600   16.8910   43.9430 C.3   125  VAL125      0.1692
     26  C         57.0250   16.4120   44.6970 C.2   125  VAL125      0.2591
     27  O         57.1280   15.8230   45.7790 O.2   125  VAL125     -0.2718
     28  CB        58.4770   18.4060   44.1080 C.3   125  VAL125      0.0266
     29  CG1       58.1940   18.8350   45.5390 C.3   125  VAL125      0.0020
     30  CG2       59.8990   18.7770   43.7090 C.3   125  VAL125      0.0020
     31  N         55.8380   16.6490   44.1340 N.am  126  ALA126     -0.1980
     32  CA        54.6130   16.1880   44.7760 C.3   126  ALA126      0.1597
     33  C         54.5050   14.6700   44.7900 C.2   126  ALA126      0.2287
     34  O         53.7420   14.1240   45.5930 O.2   126  ALA126     -0.2864
     35  CB        53.3910   16.7910   44.0830 C.3   126  ALA126      0.0319
     36  N         56.0300   13.5680   48.2050 N.3   129  PHE129     -0.1241
     37  CA        55.4480   14.1630   49.3980 C.3   129  PHE129      0.1605
     38  C         54.2060   13.3710   49.7770 C.2   129  PHE129      0.2264
     39  O         53.3240   13.1600   48.9390 O.2   129  PHE129     -0.2867
     40  CB        55.0960   15.6300   49.1530 C.3   129  PHE129      0.0534
     41  CG        54.9860   16.4450   50.4030 C.ar  129  PHE129     -0.0203
     42  CD1       56.0870   17.1180   50.9000 C.ar  129  PHE129     -0.0042
     43  CD2       53.7820   16.5470   51.0770 C.ar  129  PHE129     -0.0042
     44  CE1       55.9920   17.8740   52.0460 C.ar  129  PHE129     -0.0003
     45  CE2       53.6800   17.3020   52.2270 C.ar  129  PHE129     -0.0003
     46  CZ        54.7870   17.9650   52.7130 C.ar  129  PHE129     -0.0000
     47  N         51.0320   13.0150   50.5930 N.3   131  THR131     -0.1218
     48  CA        49.7530   13.7070   50.6260 C.3   131  THR131      0.1862
     49  C         48.8460   13.0910   49.5710 C.2   131  THR131      0.2287
     50  O         49.3180   12.5240   48.5820 O.2   131  THR131     -0.2866
     51  CB        49.9130   15.2150   50.3900 C.3   131  THR131      0.1770
     52  OG1       48.6430   15.8610   50.5260 O.3   131  THR131     -0.2211
     53  CG2       50.4650   15.4880   49.0000 C.3   131  THR131      0.0375
     54  N         47.0340   14.4230   47.3870 N.3   133  ASP133     -0.1239
     55  CA        46.9280   15.1370   46.1200 C.3   133  ASP133      0.1674
     56  C         47.5610   14.3480   44.9830 C.2   133  ASP133      0.2266
     57  O         46.9890   14.2540   43.8910 O.2   133  ASP133     -0.2867
     58  CB        47.5830   16.5110   46.2430 C.3   133  ASP133      0.1410
     59  CG        47.2270   17.2100   47.5350 C.2   133  ASP133      0.3668
     60  OD1       46.0760   17.0590   47.9980 O.co2 133  ASP133     -0.2456
     61  OD2       48.1000   17.9050   48.0940 O.co2 133  ASP133     -0.2456
     62  N         51.4610   28.9380   41.1580 N.3   260  LEU260     -0.1245
     63  CA        51.6820   27.5280   41.4670 C.3   260  LEU260      0.1561
     64  C         51.6550   26.6630   40.2150 C.2   260  LEU260      0.2260
     65  O         52.3200   25.6230   40.1670 O.2   260  LEU260     -0.2867
     66  CB        50.6410   27.0410   42.4750 C.3   260  LEU260      0.0270
     67  CG        50.7650   27.6250   43.8820 C.3   260  LEU260      0.0019
     68  CD1       49.5820   27.2160   44.7350 C.3   260  LEU260      0.0001
     69  CD2       52.0630   27.1810   44.5260 C.3   260  LEU260      0.0001
     70  N         54.9190   27.9010   38.4790 N.3   263  GLY263     -0.1210
     71  CA        55.9860   27.2990   39.2580 C.3   263  GLY263      0.1956
     72  C         56.0140   25.7890   39.1250 C.2   263  GLY263      0.2612
     73  O         57.0840   25.1890   38.9880 O.2   263  GLY263     -0.2717
     74  N         54.8430   25.1540   39.1470 N.am  264  GLY264     -0.1956
     75  CA        54.7790   23.7070   39.0630 C.3   264  GLY264      0.1869
     76  C         55.0950   23.1450   37.6970 C.2   264  GLY264      0.2309
     77  O         55.2780   21.9290   37.5740 O.2   264  GLY264     -0.2863
     78  N         44.4700   24.9750   48.7630 N.3   308  LEU308     -0.1231
     79  CA        45.7750   24.4510   49.1230 C.3   308  LEU308      0.1678
     80  C         46.5700   24.1980   47.8520 C.2   308  LEU308      0.2434
     81  O         45.9900   23.8800   46.8090 O.2   308  LEU308     -0.2733
     82  CB        45.6630   23.1510   49.9310 C.3   308  LEU308      0.0284
     83  CG        45.3000   23.2930   51.4090 C.3   308  LEU308      0.0019
     84  CD1       45.5910   21.9950   52.1420 C.3   308  LEU308      0.0001
     85  CD2       46.0510   24.4470   52.0490 C.3   308  LEU308      0.0001
     86  N         47.8980   24.3330   47.9060 N.am  309  PRO309     -0.2718
     87  CA        48.6910   24.2320   46.6690 C.3   309  PRO309      0.1535
     88  C         48.5430   22.9050   45.9470 C.2   309  PRO309      0.2599
     89  O         48.6770   22.8650   44.7180 O.2   309  PRO309     -0.2715
     90  CB        50.1300   24.4520   47.1590 C.3   309  PRO309      0.0310
     91  CG        50.0950   24.1330   48.6190 C.3   309  PRO309      0.0237
     92  CD        48.7450   24.5790   49.0840 C.3   309  PRO309      0.0939
     93  N         48.2650   21.8210   46.6630 N.am  310  GLY310     -0.1955
     94  CA        48.1260   20.5270   46.0310 C.3   310  GLY310      0.1869
     95  C         46.8160   20.2780   45.3230 C.2   310  GLY310      0.2309
     96  O         46.5990   19.1780   44.8100 O.2   310  GLY310     -0.2863
     97  N         47.2710   19.8200   41.3250 N.3   313  VAL313     -0.1245
     98  CA        48.1830   18.7820   40.8390 C.3   313  VAL313      0.1561
     99  C         47.5440   17.9310   39.7490 C.2   313  VAL313      0.2260
    100  O         48.2360   17.5970   38.7770 O.2   313  VAL313     -0.2867
    101  CB        48.7230   17.9590   42.0170 C.3   313  VAL313      0.0252
    102  CG1       49.6450   16.8670   41.5260 C.3   313  VAL313      0.0019
    103  CG2       49.4470   18.8670   42.9950 C.3   313  VAL313      0.0019
    104  N         65.5220   19.7370   40.9880 N.3   413  PHE413     -0.1241
    105  CA        64.4100   19.8790   41.9220 C.3   413  PHE413      0.1605
    106  C         64.4220   18.7800   42.9750 C.2   413  PHE413      0.2264
    107  O         63.9310   18.9850   44.0900 O.2   413  PHE413     -0.2867
    108  CB        63.0810   19.8890   41.1650 C.3   413  PHE413      0.0534
    109  CG        62.8130   21.1720   40.4290 C.ar  413  PHE413     -0.0203
    110  CD1       62.4430   22.3160   41.1180 C.ar  413  PHE413     -0.0042
    111  CD2       62.9270   21.2360   39.0510 C.ar  413  PHE413     -0.0042
    112  CE1       62.1950   23.4990   40.4470 C.ar  413  PHE413     -0.0003
    113  CE2       62.6810   22.4160   38.3750 C.ar  413  PHE413     -0.0003
    114  CZ        62.3140   23.5490   39.0740 C.ar  413  PHE413     -0.0000
@<TRIPOS>BOND
     1    77    76    2
     2    76    75    1
     3    15     9    1
     4    15    14    1
     5     9    10    1
     6   113   111   ar
     7   113   114   ar
     8    70    71    1
     9   100    99    2
    10    73    72    2
    11    14    13    1
    12   111   109   ar
    13    75    74    1
    14   114   112   ar
    15    72    74   am
    16    72    71    1
    17    10    13    1
    18    10    11    1
    19    99    98    1
    20    16    11   am
    21    16    17    1
    22    65    64    2
    23    64    63    1
    24    20    17    1
    25    20    21    1
    26   109   110   ar
    27   109   108    1
    28   112   110   ar
    29    11    12    2
    30    22    21    1
    31    22    23    1
    32    98    97    1
    33    98   101    1
    34    18    17    1
    35    18    19    2
    36   104   105    1
    37    62    63    1
    38   108   105    1
    39    63    66    1
    40   102   101    1
    41   105   106    1
    42   101   103    1
    43    66    67    1
    44    24    25    1
    45   106   107    2
    46    30    28    1
    47    67    69    1
    48    67    68    1
    49    57    56    2
    50    25    28    1
    51    25    26    1
    52    35    32    1
    53    28    29    1
    54    31    26   am
    55    31    32    1
    56    26    27    2
    57    89    88    2
    58    32    33    1
    59    33    34    2
    60    96    95    2
    61    56    55    1
    62    95    94    1
    63    88    93   am
    64    88    87    1
    65    94    93    1
    66    55    58    1
    67    55    54    1
    68    58    59    1
    69    87    90    1
    70    87    86    1
    71    81    80    2
    72    90    91    1
    73    59    60   ar
    74    59    61   ar
    75    80    86   am
    76    80    79    1
    77    86    92    1
    78    36    37    1
    79    50    49    2
    80    91    92    1
    81    78    79    1
    82    39    38    2
    83    53    51    1
    84    79    82    1
    85    40    37    1
    86    40    41    1
    87    37    38    1
    88    49    48    1
    89    82    83    1
    90    51    52    1
    91    51    48    1
    92    41    42   ar
    93    41    43   ar
    94    47    48    1
    95    42    44   ar
    96    43    45   ar
    97    83    85    1
    98    83    84    1
    99    44    46   ar
   100    45    46   ar
   101     8     6   ar
   102     6     5    1
   103     6     7   ar
   104     5     2    1
   105     2     3    1
   106     2     1    1
   107     3     4    2
