@<TRIPOS>MOLECULE
tmp/5f15A20.pdb
 135 129 0 0 0
SMALL
GASTEIGER

@<TRIPOS>ATOM
      1  N         70.7080    4.0430   25.7470 N.3     5  TRP5       -0.1227
      2  CA        70.6050    5.3790   26.3220 C.3     5  TRP5        0.1737
      3  C         69.2510    5.5970   26.9850 C.2     5  TRP5        0.2595
      4  O         69.1600    6.3290   27.9770 O.2     5  TRP5       -0.2718
      5  CB        70.8540    6.4340   25.2460 C.3     5  TRP5        0.0564
      6  CG        72.2680    6.4460   24.7540 C.ar    5  TRP5        0.0003
      7  CD1       72.7270    5.9640   23.5640 C.ar    5  TRP5        0.0946
      8  CD2       73.4120    6.9550   25.4500 C.ar    5  TRP5        0.0152
      9  NE1       74.0860    6.1480   23.4720 N.ar    5  TRP5       -0.2442
     10  CE2       74.5300    6.7540   24.6180 C.ar    5  TRP5        0.0810
     11  CE3       73.5980    7.5640   26.6950 C.ar    5  TRP5        0.0012
     12  CZ2       75.8150    7.1390   24.9900 C.ar    5  TRP5        0.0191
     13  CZ3       74.8740    7.9460   27.0630 C.ar    5  TRP5        0.0001
     14  CH2       75.9660    7.7330   26.2140 C.ar    5  TRP5        0.0015
     15  N         68.1970    4.9750   26.4580 N.am    6  VAL6       -0.1980
     16  CA        66.8850    5.0590   27.0940 C.3     6  VAL6        0.1595
     17  C         66.8880    4.2900   28.4090 C.2     6  VAL6        0.2287
     18  O         66.6070    4.8500   29.4760 O.2     6  VAL6       -0.2864
     19  CB        65.7920    4.5400   26.1440 C.3     6  VAL6        0.0276
     20  CG1       64.4230    4.6600   26.7930 C.3     6  VAL6        0.0022
     21  CG2       65.8340    5.2950   24.8290 C.3     6  VAL6        0.0022
     22  N         68.8130    5.8430   31.1420 N.3     9  PHE9       -0.1227
     23  CA        68.0150    6.9850   31.5770 C.3     9  PHE9        0.1736
     24  C         66.9570    6.5490   32.5820 C.2     9  PHE9        0.2595
     25  O         66.9540    6.9920   33.7370 O.2     9  PHE9       -0.2718
     26  CB        67.3700    7.6540   30.3610 C.3     9  PHE9        0.0547
     27  CG        66.6360    8.9270   30.6760 C.ar    9  PHE9       -0.0202
     28  CD1       67.2660   10.1520   30.5480 C.ar    9  PHE9       -0.0042
     29  CD2       65.3130    8.9020   31.0820 C.ar    9  PHE9       -0.0042
     30  CE1       66.5940   11.3250   30.8270 C.ar    9  PHE9       -0.0003
     31  CE2       64.6380   10.0720   31.3660 C.ar    9  PHE9       -0.0003
     32  CZ        65.2800   11.2840   31.2390 C.ar    9  PHE9       -0.0000
     33  N         66.0770    5.6360   32.1600 N.am   10  VAL10      -0.1980
     34  CA        65.0220    5.1440   33.0410 C.3    10  VAL10       0.1595
     35  C         65.6190    4.6280   34.3390 C.2    10  VAL10       0.2287
     36  O         65.1260    4.9340   35.4310 O.2    10  VAL10      -0.2864
     37  CB        64.1910    4.0610   32.3280 C.3    10  VAL10       0.0276
     38  CG1       63.0890    3.5560   33.2390 C.3    10  VAL10       0.0022
     39  CG2       63.6110    4.6100   31.0400 C.3    10  VAL10       0.0022
     40  N         66.5590    7.3460   36.3230 N.3    13  ALA13      -0.1231
     41  CA        65.3300    7.9870   36.7680 C.3    13  ALA13       0.1694
     42  C         64.7010    7.2240   37.9260 C.2    13  ALA13       0.2591
     43  O         64.2500    7.8320   38.9020 O.2    13  ALA13      -0.2718
     44  CB        64.3480    8.1090   35.6040 C.3    13  ALA13       0.0304
     45  N         64.6840    5.8900   37.8500 N.am   14  LEU14      -0.1980
     46  CA        63.9450    5.1150   38.8420 C.3    14  LEU14       0.1596
     47  C         64.6670    5.0870   40.1810 C.2    14  LEU14       0.2287
     48  O         64.0360    5.2460   41.2320 O.2    14  LEU14      -0.2864
     49  CB        63.7040    3.6960   38.3320 C.3    14  LEU14       0.0297
     50  CG        62.6860    3.5600   37.2010 C.3    14  LEU14       0.0022
     51  CD1       62.4160    2.0970   36.8970 C.3    14  LEU14       0.0001
     52  CD2       61.4010    4.2810   37.5590 C.3    14  LEU14       0.0001
     53  N         64.2930    8.0730   41.8920 N.3    17  TRP17      -0.1241
     54  CA        62.8790    8.1790   42.2290 C.3    17  TRP17       0.1605
     55  C         62.5830    7.5490   43.5830 C.2    17  TRP17       0.2264
     56  O         61.8080    8.1010   44.3720 O.2    17  TRP17      -0.2867
     57  CB        62.0270    7.5310   41.1390 C.3    17  TRP17       0.0550
     58  CG        60.5620    7.7790   41.2990 C.ar   17  TRP17       0.0003
     59  CD1       59.6830    7.0440   42.0360 C.ar   17  TRP17       0.0946
     60  CD2       59.8020    8.8370   40.7040 C.ar   17  TRP17       0.0152
     61  NE1       58.4220    7.5790   41.9390 N.ar   17  TRP17      -0.2442
     62  CE2       58.4680    8.6810   41.1270 C.ar   17  TRP17       0.0810
     63  CE3       60.1200    9.9010   39.8550 C.ar   17  TRP17       0.0012
     64  CZ2       57.4530    9.5470   40.7300 C.ar   17  TRP17       0.0191
     65  CZ3       59.1090   10.7620   39.4630 C.ar   17  TRP17       0.0001
     66  CH2       57.7930   10.5790   39.9010 C.ar   17  TRP17       0.0015
     67  N         54.6020    7.4950   39.2470 N.3    91  LEU91      -0.1245
     68  CA        54.9650    6.5820   38.1680 C.3    91  LEU91       0.1561
     69  C         53.7420    6.1860   37.3510 C.2    91  LEU91       0.2260
     70  O         53.8190    6.0560   36.1240 O.2    91  LEU91      -0.2867
     71  CB        55.6520    5.3400   38.7340 C.3    91  LEU91       0.0270
     72  CG        57.0120    5.5390   39.3970 C.3    91  LEU91       0.0019
     73  CD1       57.5430    4.2120   39.8960 C.3    91  LEU91       0.0001
     74  CD2       57.9850    6.1710   38.4210 C.3    91  LEU91       0.0001
     75  N         52.7820    9.1680   35.0300 N.3    94  ILE94      -0.1245
     76  CA        53.7300    9.2610   33.9200 C.3    94  ILE94       0.1561
     77  C         53.4700    8.1550   32.9060 C.2    94  ILE94       0.2260
     78  O         53.3380    8.4080   31.7030 O.2    94  ILE94      -0.2867
     79  CB        55.1780    9.2120   34.4390 C.3    94  ILE94       0.0252
     80  CG1       55.4860   10.4380   35.2980 C.3    94  ILE94       0.0019
     81  CG2       56.1530    9.1210   33.2770 C.3    94  ILE94       0.0019
     82  CD1       56.8940   10.4610   35.8400 C.3    94  ILE94       0.0001
     83  N         51.9070    8.6540   29.1670 N.3    98  MET98      -0.1245
     84  CA        52.6980    8.2400   28.0140 C.3    98  MET98       0.1570
     85  C         51.9390    7.2500   27.1460 C.2    98  MET98       0.2261
     86  O         52.0890    7.2580   25.9200 O.2    98  MET98      -0.2867
     87  CB        54.0220    7.6280   28.4670 C.3    98  MET98       0.0387
     88  CG        55.0280    8.6260   29.0010 C.3    98  MET98       0.0595
     89  SD        56.5750    7.8180   29.4310 S.3    98  MET98      -0.1393
     90  CE        57.0660    7.1780   27.8380 C.3    98  MET98       0.0692
     91  N         57.2910   10.0640   24.3910 N.3   111  ALA111     -0.1245
     92  CA        58.5620   10.2830   25.0710 C.3   111  ALA111      0.1562
     93  C         58.6510   11.7020   25.6100 C.2   111  ALA111      0.2260
     94  O         59.0830   11.9160   26.7500 O.2   111  ALA111     -0.2867
     95  CB        59.7240    9.9930   24.1230 C.3   111  ALA111      0.0290
     96  N         56.6850   11.9300   28.7420 N.3   114  GLY114     -0.1210
     97  CA        57.4170   11.3710   29.8650 C.3   114  GLY114      0.1956
     98  C         58.4840   12.3130   30.3880 C.2   114  GLY114      0.2611
     99  O         58.6520   12.4670   31.6010 O.2   114  GLY114     -0.2717
    100  N         59.2150   12.9640   29.4800 N.am  115  LEU115     -0.1979
    101  CA        60.2230   13.9300   29.9030 C.3   115  LEU115      0.1596
    102  C         59.5810   15.1450   30.5610 C.2   115  LEU115      0.2287
    103  O         60.1170   15.6880   31.5340 O.2   115  LEU115     -0.2864
    104  CB        61.0720   14.3560   28.7070 C.3   115  LEU115      0.0297
    105  CG        61.8240   13.2370   27.9880 C.3   115  LEU115      0.0022
    106  CD1       62.4770   13.7590   26.7220 C.3   115  LEU115      0.0001
    107  CD2       62.8570   12.6290   28.9130 C.3   115  LEU115      0.0001
    108  N         58.3050   14.1740   33.9410 N.3   118  LEU118     -0.1245
    109  CA        59.4510   13.8840   34.7930 C.3   118  LEU118      0.1561
    110  C         60.1480   15.1590   35.2470 C.2   118  LEU118      0.2260
    111  O         60.6680   15.2140   36.3670 O.2   118  LEU118     -0.2867
    112  CB        60.4310   12.9710   34.0580 C.3   118  LEU118      0.0270
    113  CG        61.6690   12.5260   34.8330 C.3   118  LEU118      0.0019
    114  CD1       61.2690   11.8310   36.1210 C.3   118  LEU118      0.0001
    115  CD2       62.5250   11.6140   33.9780 C.3   118  LEU118      0.0001
    116  N         65.2500   15.5310   20.6290 N.3   399  LEU399     -0.1231
    117  CA        64.8390   14.5740   21.6560 C.3   399  LEU399      0.1678
    118  C         65.9190   14.3150   22.6990 C.2   399  LEU399      0.2434
    119  O         65.6050   14.3800   23.9000 O.2   399  LEU399     -0.2733
    120  CB        64.3780   13.2710   20.9950 C.3   399  LEU399      0.0284
    121  CG        63.9390   12.1650   21.9570 C.3   399  LEU399      0.0019
    122  CD1       62.8180   12.6490   22.8590 C.3   399  LEU399      0.0001
    123  CD2       63.5080   10.9290   21.1900 C.3   399  LEU399      0.0001
    124  N         67.1760   14.0170   22.3450 N.am  400  PRO400     -0.2729
    125  CA        68.1780   13.8060   23.4030 C.3   400  PRO400      0.1401
    126  C         68.4740   15.0610   24.2020 C.2   400  PRO400      0.2269
    127  O         68.7400   14.9650   25.4070 O.2   400  PRO400     -0.2865
    128  CB        69.4120   13.3210   22.6310 C.3   400  PRO400      0.0296
    129  CG        69.2340   13.8660   21.2660 C.3   400  PRO400      0.0237
    130  CD        67.7610   13.8150   21.0060 C.3   400  PRO400      0.0939
    131  N         65.8520   15.3340   26.6220 N.3   403  ALA403     -0.1245
    132  CA        66.0140   14.2750   27.6120 C.3   403  ALA403      0.1562
    133  C         67.0230   14.6730   28.6810 C.2   403  ALA403      0.2260
    134  O         66.7630   14.5260   29.8820 O.2   403  ALA403     -0.2867
    135  CB        66.4340   12.9760   26.9260 C.3   403  ALA403      0.0290
@<TRIPOS>BOND
     1   116   117    1
     2   120   117    1
     3   120   121    1
     4   130   129    1
     5   130   124    1
     6   123   121    1
     7   129   128    1
     8   117   118    1
     9   121   122    1
    10   124   118   am
    11   124   125    1
    12   128   125    1
    13   118   119    2
    14   125   126    1
    15     9     7   ar
    16     9    10   ar
    17     7     6   ar
    18    95    92    1
    19   126   127    2
    20    91    92    1
    21    10    12   ar
    22    10     8   ar
    23     6     5    1
    24     6     8   ar
    25    21    19    1
    26    12    14   ar
    27    92    93    1
    28     5     2    1
    29     8    11   ar
    30    93    94    2
    31     1     2    1
    32    86    85    2
    33    19    20    1
    34    19    16    1
    35    14    13   ar
    36     2     3    1
    37    15     3   am
    38    15    16    1
    39   131   132    1
    40    11    13   ar
    41   106   105    1
    42   135   132    1
    43     3     4    2
    44    16    17    1
    45    85    84    1
    46   132   133    1
    47    90    89    1
    48   105   104    1
    49   105   107    1
    50    84    87    1
    51    84    83    1
    52    17    18    2
    53    87    88    1
    54   133   134    2
    55   104   101    1
    56    96    97    1
    57    88    89    1
    58   100   101    1
    59   100    98   am
    60    97    98    1
    61   101   102    1
    62    26    27    1
    63    26    23    1
    64    98    99    2
    65    28    27   ar
    66    28    30   ar
    67   102   103    2
    68    27    29   ar
    69    30    32   ar
    70    39    37    1
    71    29    31   ar
    72    22    23    1
    73    32    31   ar
    74    23    24    1
    75    78    77    2
    76    33    24   am
    77    33    34    1
    78    37    34    1
    79    37    38    1
    80    24    25    2
    81    77    76    1
    82    34    35    1
    83    81    79    1
    84    76    79    1
    85    76    75    1
    86   108   109    1
    87   115   113    1
    88   112   109    1
    89   112   113    1
    90    35    36    2
    91    79    80    1
    92   109   110    1
    93   113   114    1
    94   110   111    2
    95    80    82    1
    96    44    41    1
    97    70    69    2
    98    40    41    1
    99    41    42    1
   100    51    50    1
   101    50    52    1
   102    50    49    1
   103    69    68    1
   104    45    42   am
   105    45    46    1
   106    42    43    2
   107    68    71    1
   108    68    67    1
   109    49    46    1
   110    74    72    1
   111    71    72    1
   112    46    47    1
   113    72    73    1
   114    65    63   ar
   115    65    66   ar
   116    63    60   ar
   117    66    64   ar
   118    47    48    2
   119    60    62   ar
   120    60    58   ar
   121    64    62   ar
   122    62    61   ar
   123    57    58    1
   124    57    54    1
   125    58    59   ar
   126    53    54    1
   127    61    59   ar
   128    54    55    1
   129    55    56    2
