@<TRIPOS>MOLECULE
tmp/5f15A23.pdb
 76 69 0 0 0
SMALL
GASTEIGER

@<TRIPOS>ATOM
      1  N         66.3990   26.4560   25.7440 N.3   339  LEU339     -0.1231
      2  CA        67.5990   26.2320   26.5430 C.3   339  LEU339      0.1693
      3  C         68.2170   27.5500   26.9930 C.2   339  LEU339      0.2591
      4  O         68.6850   27.6660   28.1310 O.2   339  LEU339     -0.2718
      5  CB        68.6130   25.4060   25.7530 C.3   339  LEU339      0.0284
      6  CG        68.2480   23.9400   25.5270 C.3   339  LEU339      0.0019
      7  CD1       69.2920   23.2580   24.6640 C.3   339  LEU339      0.0001
      8  CD2       68.1010   23.2260   26.8560 C.3   339  LEU339      0.0001
      9  N         68.2240   28.5550   26.1170 N.am  340  ILE340     -0.1980
     10  CA        68.7840   29.8520   26.4860 C.3   340  ILE340      0.1595
     11  C         67.9250   30.5210   27.5510 C.2   340  ILE340      0.2287
     12  O         68.4220   30.9320   28.6080 O.2   340  ILE340     -0.2864
     13  CB        68.9330   30.7440   25.2420 C.3   340  ILE340      0.0276
     14  CG1       69.9300   30.1260   24.2630 C.3   340  ILE340      0.0022
     15  CG2       69.3720   32.1400   25.6420 C.3   340  ILE340      0.0022
     16  CD1       70.0370   30.8730   22.9580 C.3   340  ILE340      0.0001
     17  N         68.0470   28.7360   30.7510 N.3   343  ALA343     -0.1245
     18  CA        69.3600   28.9420   31.3500 C.3   343  ALA343      0.1562
     19  C         69.4100   30.2700   32.0920 C.2   343  ALA343      0.2260
     20  O         69.9760   30.3560   33.1890 O.2   343  ALA343     -0.2867
     21  CB        70.4480   28.8820   30.2800 C.3   343  ALA343      0.0290
     22  N         69.7700   30.8840   40.7170 N.3   350  LEU350     -0.1245
     23  CA        71.0390   30.7170   41.4180 C.3   350  LEU350      0.1561
     24  C         71.4440   31.9970   42.1360 C.2   350  LEU350      0.2260
     25  O         71.9280   31.9500   43.2730 O.2   350  LEU350     -0.2867
     26  CB        72.1270   30.2850   40.4380 C.3   350  LEU350      0.0270
     27  CG        73.5290   30.1340   41.0250 C.3   350  LEU350      0.0019
     28  CD1       73.5130   29.1570   42.1880 C.3   350  LEU350      0.0001
     29  CD2       74.5100   29.6830   39.9560 C.3   350  LEU350      0.0001
     30  N         72.4310   24.9340   40.3810 N.3   381  VAL381     -0.1245
     31  CA        73.6530   24.5990   39.6560 C.3   381  VAL381      0.1561
     32  C         73.4530   23.3320   38.8370 C.2   381  VAL381      0.2260
     33  O         73.8570   23.2610   37.6710 O.2   381  VAL381     -0.2867
     34  CB        74.8380   24.4680   40.6310 C.3   381  VAL381      0.0252
     35  CG1       76.0190   23.8070   39.9430 C.3   381  VAL381      0.0019
     36  CG2       75.2370   25.8360   41.1580 C.3   381  VAL381      0.0019
     37  N         71.6410   24.2550   35.7910 N.3   384  LEU384     -0.1231
     38  CA        72.4930   24.8980   34.7940 C.3   384  LEU384      0.1693
     39  C         73.3730   23.8820   34.0750 C.2   384  LEU384      0.2591
     40  O         73.6130   24.0010   32.8670 O.2   384  LEU384     -0.2718
     41  CB        73.3490   25.9770   35.4540 C.3   384  LEU384      0.0284
     42  CG        72.6240   27.2470   35.8970 C.3   384  LEU384      0.0019
     43  CD1       73.5560   28.1380   36.6910 C.3   384  LEU384      0.0001
     44  CD2       72.0800   27.9880   34.6930 C.3   384  LEU384      0.0001
     45  N         73.8650   22.8750   34.8000 N.am  385  LEU385     -0.1980
     46  CA        74.6640   21.8310   34.1670 C.3   385  LEU385      0.1596
     47  C         73.8300   21.0370   33.1730 C.2   385  LEU385      0.2287
     48  O         74.2690   20.7790   32.0460 O.2   385  LEU385     -0.2864
     49  CB        75.2610   20.9060   35.2260 C.3   385  LEU385      0.0297
     50  CG        76.2310   21.5440   36.2200 C.3   385  LEU385      0.0022
     51  CD1       76.8120   20.4900   37.1490 C.3   385  LEU385      0.0001
     52  CD2       77.3360   22.2960   35.4940 C.3   385  LEU385      0.0001
     53  N         71.1750   22.0130   31.5730 N.3   387  ILE387     -0.1231
     54  CA        70.9110   22.8590   30.4140 C.3   387  ILE387      0.1692
     55  C         72.1430   22.9430   29.5220 C.2   387  ILE387      0.2591
     56  O         72.0380   22.9050   28.2890 O.2   387  ILE387     -0.2718
     57  CB        70.4380   24.2510   30.8690 C.3   387  ILE387      0.0266
     58  CG1       69.0920   24.1400   31.5850 C.3   387  ILE387      0.0019
     59  CG2       70.3320   25.1950   29.6860 C.3   387  ILE387      0.0020
     60  CD1       68.5520   25.4570   32.0800 C.3   387  ILE387      0.0001
     61  N         73.3300   23.0440   30.1260 N.am  388  ALA388     -0.1980
     62  CA        74.5580   23.1330   29.3400 C.3   388  ALA388      0.1597
     63  C         74.7830   21.8670   28.5220 C.2   388  ALA388      0.2287
     64  O         75.0010   21.9290   27.3070 O.2   388  ALA388     -0.2864
     65  CB        75.7500   23.3990   30.2600 C.3   388  ALA388      0.0319
     66  N         72.4600   21.7080   25.6660 N.3   391  ARG391     -0.1245
     67  CA        72.9230   22.5050   24.5360 C.3   391  ARG391      0.1563
     68  C         74.0600   21.8110   23.8000 C.2   391  ARG391      0.2260
     69  O         74.1730   21.9350   22.5750 O.2   391  ARG391     -0.2867
     70  CB        73.3570   23.8910   25.0120 C.3   391  ARG391      0.0307
     71  CG        73.8530   24.8020   23.9020 C.3   391  ARG391      0.0489
     72  CD        72.7930   25.0020   22.8320 C.3   391  ARG391      0.2205
     73  NE        73.3060   25.7490   21.6870 N.pl3 391  ARG391     -0.0865
     74  CZ        73.8330   25.1870   20.6030 C.cat 391  ARG391      0.5346
     75  NH1       74.2770   25.9450   19.6100 N.pl3 391  ARG391      0.1354
     76  NH2       73.9160   23.8670   20.5100 N.pl3 391  ARG391      0.1354
@<TRIPOS>BOND
     1    75    74    1
     2    76    74    1
     3    74    73    2
     4    73    72    1
     5    69    68    2
     6    72    71    1
     7    16    14    1
     8    68    67    1
     9    71    70    1
    10    14    13    1
    11    67    70    1
    12    67    66    1
    13     7     6    1
    14    13    15    1
    15    13    10    1
    16     6     5    1
    17     6     8    1
    18     1     2    1
    19     5     2    1
    20     9    10    1
    21     9     3   am
    22    10    11    1
    23     2     3    1
    24     3     4    2
    25    64    63    2
    26    11    12    2
    27    56    55    2
    28    63    62    1
    29    62    61    1
    30    62    65    1
    31    55    61   am
    32    55    54    1
    33    59    57    1
    34    21    18    1
    35    54    57    1
    36    54    53    1
    37    17    18    1
    38    57    58    1
    39    18    19    1
    40    58    60    1
    41    48    47    2
    42    19    20    2
    43    40    39    2
    44    47    46    1
    45    39    38    1
    46    39    45   am
    47    46    45    1
    48    46    49    1
    49    44    42    1
    50    38    41    1
    51    38    37    1
    52    49    50    1
    53    41    42    1
    54    52    50    1
    55    42    43    1
    56    50    51    1
    57    33    32    2
    58    32    31    1
    59    31    30    1
    60    31    34    1
    61    35    34    1
    62    29    27    1
    63    26    27    1
    64    26    23    1
    65    34    36    1
    66    22    23    1
    67    27    28    1
    68    23    24    1
    69    24    25    2
