@<TRIPOS>MOLECULE
tmp/5f15A18.pdb
 101 100 0 0 0
SMALL
GASTEIGER

@<TRIPOS>ATOM
      1  N         63.5060    7.9740   50.9380 N.3    22  ASP22      -0.1225
      2  CA        64.0820    7.6880   52.2460 C.3    22  ASP22       0.1805
      3  C         65.3100    8.5480   52.5320 C.2    22  ASP22       0.2598
      4  O         66.2000    8.1440   53.2830 O.2    22  ASP22      -0.2718
      5  CB        64.4320    6.2040   52.3560 C.3    22  ASP22       0.1424
      6  CG        64.6320    5.7540   53.7910 C.2    22  ASP22       0.3668
      7  OD1       63.9030    6.2480   54.6780 O.co2  22  ASP22      -0.2456
      8  OD2       65.5220    4.9110   54.0310 O.co2  22  ASP22      -0.2456
      9  N         65.3730    9.7360   51.9410 N.am   23  MET23      -0.1965
     10  CA        66.4930   10.6410   52.1490 C.3    23  MET23       0.1736
     11  C         66.1910   11.7340   53.1610 C.2    23  MET23       0.2616
     12  O         67.0860   12.5200   53.4870 O.2    23  MET23      -0.2715
     13  CB        66.9110   11.2770   50.8190 C.3    23  MET23       0.0427
     14  CG        67.6630   10.3530   49.8730 C.3    23  MET23       0.0599
     15  SD        69.4450   10.3300   50.1460 S.3    23  MET23      -0.1393
     16  CE        69.5990    9.0410   51.3820 C.3    23  MET23       0.0692
     17  N         64.9650   11.8010   53.6720 N.am   24  ARG24      -0.1963
     18  CA        64.5840   12.8840   54.5640 C.3    24  ARG24       0.1729
     19  C         63.4690   12.4160   55.4860 C.2    24  ARG24       0.2616
     20  O         62.8080   11.4040   55.2360 O.2    24  ARG24      -0.2715
     21  CB        64.1430   14.1200   53.7780 C.3    24  ARG24       0.0348
     22  CG        62.8400   13.9310   53.0430 C.3    24  ARG24       0.0492
     23  CD        62.5720   15.0660   52.0800 C.3    24  ARG24       0.2205
     24  NE        61.2270   14.9720   51.5270 N.pl3  24  ARG24      -0.0865
     25  CZ        60.8840   14.1500   50.5420 C.cat  24  ARG24       0.5346
     26  NH1       59.6340   14.1270   50.1010 N.pl3  24  ARG24       0.1354
     27  NH2       61.7910   13.3490   49.9980 N.pl3  24  ARG24       0.1354
     28  N         63.2650   13.1750   56.5570 N.am   25  HIS25      -0.1973
     29  CA        62.2780   12.8490   57.5730 C.3    25  HIS25       0.1656
     30  C         60.9050   13.3820   57.1880 C.2    25  HIS25       0.2291
     31  O         60.7620   14.2400   56.3130 O.2    25  HIS25      -0.2864
     32  CB        62.6910   13.4180   58.9310 C.3    25  HIS25       0.0771
     33  CG        63.8600   12.7180   59.5510 C.ar   25  HIS25       0.0820
     34  ND1       65.1370   12.8060   59.0420 N.ar   25  HIS25      -0.2267
     35  CD2       63.9430   11.9180   60.6400 C.ar   25  HIS25       0.1154
     36  CE1       65.9570   12.0900   59.7910 C.ar   25  HIS25       0.1986
     37  NE2       65.2570   11.5410   60.7670 N.ar   25  HIS25      -0.2212
     38  N         57.4460   -0.3580   58.7730 N.3    77  LEU77      -0.1231
     39  CA        57.2360    1.0610   59.0150 C.3    77  LEU77       0.1693
     40  C         58.4690    1.8590   58.6130 C.2    77  LEU77       0.2593
     41  O         59.6000    1.3710   58.6860 O.2    77  LEU77      -0.2718
     42  CB        56.9100    1.3210   60.4870 C.3    77  LEU77       0.0284
     43  CG        55.6280    0.7020   61.0450 C.3    77  LEU77       0.0019
     44  CD1       55.5010    0.9860   62.5310 C.3    77  LEU77       0.0001
     45  CD2       54.4190    1.2280   60.3020 C.3    77  LEU77       0.0001
     46  N         58.2420    3.0930   58.1910 N.am   78  GLY78      -0.1942
     47  CA        59.3320    3.9520   57.7820 C.3    78  GLY78       0.2014
     48  C         58.8220    5.1000   56.9340 C.2    78  GLY78       0.2639
     49  O         57.6180    5.2910   56.7660 O.2    78  GLY78      -0.2714
     50  N         59.7790    5.8570   56.3980 N.am   79  GLU79      -0.1963
     51  CA        59.4490    7.0490   55.6250 C.3    79  GLU79       0.1733
     52  C         59.0930    6.7000   54.1850 C.2    79  GLU79       0.2616
     53  O         58.0300    7.0910   53.6860 O.2    79  GLU79      -0.2715
     54  CB        60.6170    8.0380   55.6640 C.3    79  GLU79       0.0429
     55  CG        60.9870    8.5380   57.0580 C.3    79  GLU79       0.1163
     56  CD        61.8120    7.5410   57.8530 C.2    79  GLU79       0.3649
     57  OE1       62.1800    6.4880   57.2920 O.co2  79  GLU79      -0.2457
     58  OE2       62.0920    7.8110   59.0400 O.co2  79  GLU79      -0.2457
     59  N         59.9700    5.9620   53.5000 N.am   80  TRP80      -0.1960
     60  CA        59.7080    5.6350   52.1040 C.3    80  TRP80       0.1771
     61  C         58.4900    4.7330   51.9590 C.2    80  TRP80       0.2619
     62  O         57.8180    4.7660   50.9220 O.2    80  TRP80      -0.2715
     63  CB        60.9410    4.9930   51.4670 C.3    80  TRP80       0.0590
     64  CG        61.2550    3.6190   51.9500 C.ar   80  TRP80       0.0006
     65  CD1       62.0160    3.2850   53.0290 C.ar   80  TRP80       0.0946
     66  CD2       60.8360    2.3860   51.3560 C.ar   80  TRP80       0.0152
     67  NE1       62.0900    1.9190   53.1510 N.ar   80  TRP80      -0.2442
     68  CE2       61.3730    1.3440   52.1350 C.ar   80  TRP80       0.0810
     69  CE3       60.0540    2.0620   50.2440 C.ar   80  TRP80       0.0012
     70  CZ2       61.1530    0.0020   51.8380 C.ar   80  TRP80       0.0191
     71  CZ3       59.8380    0.7290   49.9500 C.ar   80  TRP80       0.0001
     72  CH2       60.3860   -0.2840   50.7430 C.ar   80  TRP80       0.0015
     73  N         58.1800    3.9340   52.9830 N.am   81  GLN81      -0.1977
     74  CA        56.9290    3.1880   52.9670 C.3    81  GLN81       0.1601
     75  C         55.7310    4.1210   53.0390 C.2    81  GLN81       0.2287
     76  O         54.6770    3.8220   52.4680 O.2    81  GLN81      -0.2864
     77  CB        56.8860    2.1880   54.1220 C.3    81  GLN81       0.0394
     78  CG        57.9650    1.1260   54.0770 C.3    81  GLN81       0.0908
     79  CD        59.2580    1.5830   54.7130 C.2    81  GLN81       0.2608
     80  OE1       59.5000    2.7800   54.8610 O.2    81  GLN81      -0.2717
     81  NE2       60.0960    0.6300   55.1000 N.am   81  GLN81      -0.0878
     82  N         65.3310   18.7470   54.0630 N.3   421  GLU421     -0.1245
     83  CA        65.5640   17.9430   55.2570 C.3   421  GLU421      0.1567
     84  C         66.2480   18.7500   56.3500 C.2   421  GLU421      0.2260
     85  O         66.0020   18.5160   57.5390 O.2   421  GLU421     -0.2867
     86  CB        66.3940   16.7090   54.8970 C.3   421  GLU421      0.0388
     87  CG        67.1390   16.0610   56.0520 C.3   421  GLU421      0.1160
     88  CD        66.2290   15.3390   57.0260 C.2   421  GLU421      0.3649
     89  OE1       65.0100   15.2640   56.7740 O.co2 421  GLU421     -0.2457
     90  OE2       66.7390   14.8380   58.0480 O.co2 421  GLU421     -0.2457
     91  N         55.6840    5.6270   67.5120 N.3   461  ARG461     -0.1245
     92  CA        54.7240    4.5320   67.3830 C.3   461  ARG461      0.1563
     93  C         53.7910    4.4980   68.5900 C.2   461  ARG461      0.2260
     94  O         53.6020    3.4670   69.2380 O.2   461  ARG461     -0.2867
     95  CB        55.4300    3.1870   67.1920 C.3   461  ARG461      0.0307
     96  CG        55.9380    2.9350   65.7800 C.3   461  ARG461      0.0489
     97  CD        57.3520    3.4540   65.5900 C.3   461  ARG461      0.2205
     98  NE        57.8270    3.2630   64.2220 N.pl3 461  ARG461     -0.0865
     99  CZ        59.0850    3.4510   63.8340 C.cat 461  ARG461      0.5346
    100  NH1       59.4270    3.2560   62.5680 N.pl3 461  ARG461      0.1354
    101  NH2       60.0020    3.8280   64.7150 N.pl3 461  ARG461      0.1354
@<TRIPOS>BOND
     1    14    15    1
     2    14    13    1
     3    71    69   ar
     4    71    72   ar
     5    27    25    1
     6    26    25    1
     7    15    16    1
     8    69    66   ar
     9    25    24    2
    10    72    70   ar
    11    13    10    1
    12    62    61    2
    13     1     2    1
    14    66    64   ar
    15    66    68   ar
    16    63    64    1
    17    63    60    1
    18    24    23    1
    19    70    68   ar
    20     9    10    1
    21     9     3   am
    22    64    65   ar
    23    61    60    1
    24    61    73   am
    25    23    22    1
    26    60    59    1
    27    68    67   ar
    28    10    11    1
    29     2     5    1
    30     2     3    1
    31     5     6    1
    32    76    75    2
    33     3     4    2
    34    74    73    1
    35    74    75    1
    36    74    77    1
    37    65    67   ar
    38    22    21    1
    39    11    12    2
    40    11    17   am
    41    59    52   am
    42    17    18    1
    43    53    52    2
    44    21    18    1
    45     6     8   ar
    46     6     7   ar
    47    82    83    1
    48    78    77    1
    49    78    79    1
    50    52    51    1
    51    18    19    1
    52    79    80    2
    53    79    81   am
    54    86    83    1
    55    86    87    1
    56    20    19    2
    57    83    84    1
    58    19    28   am
    59    51    54    1
    60    51    50    1
    61    54    55    1
    62    87    88    1
    63    31    30    2
    64    84    85    2
    65    50    48   am
    66    28    29    1
    67    49    48    2
    68    89    88   ar
    69    48    47    1
    70    88    90   ar
    71    55    56    1
    72    30    29    1
    73    57    56   ar
    74    29    32    1
    75    47    46    1
    76    56    58   ar
    77    46    40   am
    78    40    41    2
    79    40    39    1
    80    38    39    1
    81    32    33    1
    82    39    42    1
    83    34    33   ar
    84    34    36   ar
    85    33    35   ar
    86    36    37   ar
    87    45    43    1
    88    42    43    1
    89    35    37   ar
    90    43    44    1
    91   100    99    1
    92    99    98    2
    93    99   101    1
    94    98    97    1
    95    97    96    1
    96    96    95    1
    97    95    92    1
    98    92    91    1
    99    92    93    1
   100    93    94    2
