@<TRIPOS>MOLECULE
tmp/5f15A05.pdb
 92 91 0 0 0
SMALL
GASTEIGER

@<TRIPOS>ATOM
      1  N         40.0300   -1.5160   58.7460 N.3    47  TRP47      -0.1241
      2  CA        40.2360   -0.7470   57.5270 C.3    47  TRP47       0.1605
      3  C         39.0250    0.0920   57.1490 C.2    47  TRP47       0.2264
      4  O         39.0280    0.7150   56.0840 O.2    47  TRP47      -0.2867
      5  CB        40.6000   -1.6750   56.3660 C.3    47  TRP47       0.0550
      6  CG        41.9420   -2.3350   56.4980 C.ar   47  TRP47       0.0003
      7  CD1       42.6260   -2.5910   57.6520 C.ar   47  TRP47       0.0946
      8  CD2       42.7690   -2.8130   55.4300 C.ar   47  TRP47       0.0152
      9  NE1       43.8210   -3.2050   57.3690 N.ar   47  TRP47      -0.2442
     10  CE2       43.9340   -3.3520   56.0120 C.ar   47  TRP47       0.0810
     11  CE3       42.6370   -2.8400   54.0390 C.ar   47  TRP47       0.0012
     12  CZ2       44.9570   -3.9120   55.2530 C.ar   47  TRP47       0.0191
     13  CZ3       43.6540   -3.3950   53.2870 C.ar   47  TRP47       0.0001
     14  CH2       44.7990   -3.9230   53.8950 C.ar   47  TRP47       0.0015
     15  N         41.4680    5.2750   50.4770 N.3    63  PHE63      -0.1241
     16  CA        42.2530    4.5240   49.5000 C.3    63  PHE63       0.1605
     17  C         43.7480    4.7280   49.7240 C.2    63  PHE63       0.2264
     18  O         44.5290    3.7670   49.7100 O.2    63  PHE63      -0.2867
     19  CB        41.8640    4.9160   48.0760 C.3    63  PHE63       0.0534
     20  CG        42.6200    4.1600   47.0200 C.ar   63  PHE63      -0.0203
     21  CD1       42.2950    2.8470   46.7260 C.ar   63  PHE63      -0.0042
     22  CD2       43.6600    4.7570   46.3310 C.ar   63  PHE63      -0.0042
     23  CE1       42.9900    2.1460   45.7600 C.ar   63  PHE63      -0.0003
     24  CE2       44.3560    4.0620   45.3630 C.ar   63  PHE63      -0.0003
     25  CZ        44.0210    2.7550   45.0780 C.ar   63  PHE63      -0.0000
     26  N         44.7980    2.7320   52.5440 N.3    66  TRP66      -0.1227
     27  CA        44.8620    1.3160   52.1890 C.3    66  TRP66       0.1737
     28  C         46.1850    0.9870   51.5100 C.2    66  TRP66       0.2595
     29  O         46.8760    0.0320   51.8900 O.2    66  TRP66      -0.2718
     30  CB        43.6840    0.9450   51.2870 C.3    66  TRP66       0.0564
     31  CG        42.3610    0.9220   51.9920 C.ar   66  TRP66       0.0003
     32  CD1       42.1520    0.8730   53.3380 C.ar   66  TRP66       0.0946
     33  CD2       41.0620    0.9530   51.3850 C.ar   66  TRP66       0.0152
     34  NE1       40.8050    0.8670   53.6090 N.ar   66  TRP66      -0.2442
     35  CE2       40.1150    0.9170   52.4260 C.ar   66  TRP66       0.0810
     36  CE3       40.6090    1.0060   50.0640 C.ar   66  TRP66       0.0012
     37  CZ2       38.7420    0.9320   52.1870 C.ar   66  TRP66       0.0191
     38  CZ3       39.2470    1.0220   49.8300 C.ar   66  TRP66       0.0001
     39  CH2       38.3310    0.9860   50.8850 C.ar   66  TRP66       0.0015
     40  N         46.5590    1.7820   50.5030 N.am   67  VAL67      -0.1980
     41  CA        47.8240    1.5560   49.8070 C.3    67  VAL67       0.1595
     42  C         48.9880    1.6300   50.7870 C.2    67  VAL67       0.2287
     43  O         49.8660    0.7570   50.8060 O.2    67  VAL67      -0.2864
     44  CB        47.9890    2.5640   48.6560 C.3    67  VAL67       0.0276
     45  CG1       49.2860    2.3060   47.9080 C.3    67  VAL67       0.0022
     46  CG2       46.8010    2.4890   47.7130 C.3    67  VAL67       0.0022
     47  N         49.2320   -1.4240   52.9420 N.3    70  VAL70      -0.1231
     48  CA        49.8620   -2.5140   52.2000 C.3    70  VAL70       0.1692
     49  C         51.3740   -2.3290   52.1760 C.2    70  VAL70       0.2592
     50  O         52.1390   -3.2870   52.3560 O.2    70  VAL70      -0.2718
     51  CB        49.2780   -2.6060   50.7790 C.3    70  VAL70       0.0266
     52  CG1       50.0060   -3.6700   49.9780 C.3    70  VAL70       0.0020
     53  CG2       47.7900   -2.9080   50.8360 C.3    70  VAL70       0.0020
     54  N         51.8280   -1.0900   51.9710 N.am   71  GLY71      -0.1957
     55  CA        53.2520   -0.8160   52.0290 C.3    71  GLY71       0.1869
     56  C         53.8610   -1.1220   53.3830 C.2    71  GLY71       0.2309
     57  O         55.0080   -1.5660   53.4650 O.2    71  GLY71      -0.2863
     58  N         54.1300   -5.0410   53.6450 N.3    74  LEU74      -0.1231
     59  CA        55.1790   -5.6430   52.8300 C.3    74  LEU74       0.1693
     60  C         56.5710   -5.1530   53.2100 C.2    74  LEU74       0.2592
     61  O         57.5390   -5.9110   53.0920 O.2    74  LEU74      -0.2718
     62  CB        54.9190   -5.3620   51.3500 C.3    74  LEU74       0.0284
     63  CG        53.5850   -5.8600   50.7970 C.3    74  LEU74       0.0019
     64  CD1       53.5040   -5.5970   49.3040 C.3    74  LEU74       0.0001
     65  CD2       53.3980   -7.3360   51.0980 C.3    74  LEU74       0.0001
     66  N         56.6960   -3.9060   53.6710 N.am   75  PHE75      -0.1976
     67  CA        58.0010   -3.2860   53.8550 C.3    75  PHE75       0.1639
     68  C         58.1910   -2.6580   55.2330 C.2    75  PHE75       0.2290
     69  O         59.1380   -1.8840   55.4170 O.2    75  PHE75      -0.2864
     70  CB        58.2340   -2.2250   52.7740 C.3    75  PHE75       0.0560
     71  CG        58.0670   -2.7410   51.3750 C.ar   75  PHE75      -0.0200
     72  CD1       58.7050   -3.8990   50.9670 C.ar   75  PHE75      -0.0042
     73  CD2       57.2620   -2.0720   50.4690 C.ar   75  PHE75      -0.0042
     74  CE1       58.5500   -4.3770   49.6820 C.ar   75  PHE75      -0.0003
     75  CE2       57.1020   -2.5450   49.1830 C.ar   75  PHE75      -0.0003
     76  CZ        57.7470   -3.6990   48.7890 C.ar   75  PHE75      -0.0000
     77  N         55.3960    5.6970   49.6000 N.3    84  LEU84      -0.1245
     78  CA        55.3110    4.7320   48.5100 C.3    84  LEU84       0.1561
     79  C         54.0430    4.9160   47.6870 C.2    84  LEU84       0.2260
     80  O         54.0530    4.6860   46.4710 O.2    84  LEU84      -0.2867
     81  CB        55.3850    3.3140   49.0730 C.3    84  LEU84       0.0270
     82  CG        55.6180    2.1900   48.0680 C.3    84  LEU84       0.0019
     83  CD1       56.8740    2.4650   47.2630 C.3    84  LEU84       0.0001
     84  CD2       55.7260    0.8610   48.7910 C.3    84  LEU84       0.0001
     85  N         54.3650    5.5410   43.6870 N.3    88  LEU88      -0.1245
     86  CA        53.7390    4.6920   42.6810 C.3    88  LEU88       0.1561
     87  C         52.6460    5.4340   41.9260 C.2    88  LEU88       0.2260
     88  O         52.3670    5.1130   40.7660 O.2    88  LEU88      -0.2867
     89  CB        53.1750    3.4310   43.3350 C.3    88  LEU88       0.0270
     90  CG        54.1990    2.4930   43.9770 C.3    88  LEU88       0.0019
     91  CD1       53.5080    1.3150   44.6380 C.3    88  LEU88       0.0001
     92  CD2       55.2030    2.0100   42.9460 C.3    88  LEU88       0.0001
@<TRIPOS>BOND
     1    88    87    2
     2    87    86    1
     3    86    89    1
     4    86    85    1
     5    92    90    1
     6    89    90    1
     7    90    91    1
     8    25    24   ar
     9    25    23   ar
    10    24    22   ar
    11    23    21   ar
    12    22    20   ar
    13    80    79    2
    14    21    20   ar
    15    20    19    1
    16    83    82    1
    17    79    78    1
    18    46    44    1
    19    45    44    1
    20    82    84    1
    21    82    81    1
    22    19    16    1
    23    78    81    1
    24    78    77    1
    25    44    41    1
    26    76    75   ar
    27    76    74   ar
    28    75    73   ar
    29    64    63    1
    30    16    17    1
    31    16    15    1
    32    74    72   ar
    33    18    17    2
    34    41    40    1
    35    41    42    1
    36    38    36   ar
    37    38    39   ar
    38    52    51    1
    39    36    33   ar
    40    73    71   ar
    41    40    28   am
    42    51    53    1
    43    51    48    1
    44    42    43    2
    45    63    65    1
    46    63    62    1
    47    39    37   ar
    48    72    71   ar
    49    30    31    1
    50    30    27    1
    51    62    59    1
    52    71    70    1
    53    33    31   ar
    54    33    35   ar
    55    28    29    2
    56    28    27    1
    57    54    55    1
    58    54    49   am
    59    31    32   ar
    60    55    56    1
    61    49    48    1
    62    49    50    2
    63    37    35   ar
    64    27    26    1
    65    48    47    1
    66    35    34   ar
    67    70    67    1
    68    59    60    1
    69    59    58    1
    70    61    60    2
    71    60    66   am
    72    13    14   ar
    73    13    11   ar
    74    32    34   ar
    75    56    57    2
    76    66    67    1
    77    67    68    1
    78    14    12   ar
    79    11     8   ar
    80    68    69    2
    81    12    10   ar
    82     8    10   ar
    83     8     6   ar
    84    10     9   ar
    85     4     3    2
    86     5     6    1
    87     5     2    1
    88     6     7   ar
    89     3     2    1
    90     9     7   ar
    91     2     1    1
