@<TRIPOS>MOLECULE
tmp/5f15A25.pdb
 133 125 0 0 0
SMALL
GASTEIGER

@<TRIPOS>ATOM
      1  N         32.6280   17.5870   34.7560 N.3   188  LEU188     -0.1245
      2  CA        32.6710   18.9830   34.3360 C.3   188  LEU188      0.1561
      3  C         33.4990   19.1460   33.0680 C.2   188  LEU188      0.2260
      4  O         33.0830   19.8330   32.1260 O.2   188  LEU188     -0.2867
      5  CB        33.2300   19.8510   35.4650 C.3   188  LEU188      0.0270
      6  CG        33.4770   21.3270   35.1490 C.3   188  LEU188      0.0019
      7  CD1       32.2080   21.9970   34.6480 C.3   188  LEU188      0.0001
      8  CD2       34.0140   22.0480   36.3750 C.3   188  LEU188      0.0001
      9  N         32.1390   20.6270   29.4660 N.3   192  VAL192     -0.1245
     10  CA        32.7480   21.7340   28.7340 C.3   192  VAL192      0.1561
     11  C         33.2110   21.2770   27.3540 C.2   192  VAL192      0.2260
     12  O         33.0590   22.0030   26.3620 O.2   192  VAL192     -0.2867
     13  CB        33.9020   22.3440   29.5490 C.3   192  VAL192      0.0252
     14  CG1       34.5260   23.5060   28.7950 C.3   192  VAL192      0.0019
     15  CG2       33.4040   22.8010   30.9090 C.3   192  VAL192      0.0019
     16  N         31.9610   22.9670   23.8170 N.3   196  VAL196     -0.1245
     17  CA        32.7630   23.6520   22.8090 C.3   196  VAL196      0.1561
     18  C         32.7980   22.8690   21.5010 C.2   196  VAL196      0.2260
     19  O         32.9270   23.4640   20.4240 O.2   196  VAL196     -0.2867
     20  CB        34.1820   23.9180   23.3390 C.3   196  VAL196      0.0252
     21  CG1       34.1270   24.7760   24.5900 C.3   196  VAL196      0.0019
     22  CG2       34.8970   22.6150   23.6170 C.3   196  VAL196      0.0019
     23  N         34.0260   24.2270   49.9010 N.3   246  TYR246     -0.1241
     24  CA        34.1140   24.9280   48.6240 C.3   246  TYR246      0.1605
     25  C         33.3960   26.2720   48.6650 C.2   246  TYR246      0.2264
     26  O         33.9380   27.2860   48.2120 O.2   246  TYR246     -0.2867
     27  CB        33.5450   24.0580   47.5020 C.3   246  TYR246      0.0534
     28  CG        33.6660   24.6800   46.1270 C.ar  246  TYR246     -0.0201
     29  CD1       34.7930   24.4660   45.3430 C.ar  246  TYR246     -0.0009
     30  CD2       32.6540   25.4800   45.6120 C.ar  246  TYR246     -0.0009
     31  CE1       34.9080   25.0310   44.0860 C.ar  246  TYR246      0.0417
     32  CE2       32.7600   26.0500   44.3580 C.ar  246  TYR246      0.0417
     33  CZ        33.8880   25.8230   43.5990 C.ar  246  TYR246      0.1957
     34  OH        33.9930   26.3890   42.3490 O.3   246  TYR246     -0.2866
     35  N         48.7230   25.8790   24.2130 N.3   276  TRP276     -0.1241
     36  CA        47.4280   26.3280   23.7130 C.3   276  TRP276      0.1605
     37  C         47.2690   25.9980   22.2340 C.2   276  TRP276      0.2264
     38  O         46.1980   25.5590   21.8000 O.2   276  TRP276     -0.2867
     39  CB        47.2690   27.8300   23.9520 C.3   276  TRP276      0.0550
     40  CG        45.9790   28.3920   23.4380 C.ar  276  TRP276      0.0003
     41  CD1       45.7480   28.9150   22.1990 C.ar  276  TRP276      0.0946
     42  CD2       44.7420   28.4920   24.1530 C.ar  276  TRP276      0.0152
     43  NE1       44.4420   29.3310   22.0970 N.ar  276  TRP276     -0.2442
     44  CE2       43.8040   29.0830   23.2840 C.ar  276  TRP276      0.0810
     45  CE3       44.3360   28.1370   25.4430 C.ar  276  TRP276      0.0012
     46  CZ2       42.4870   29.3270   23.6630 C.ar  276  TRP276      0.0191
     47  CZ3       43.0290   28.3810   25.8170 C.ar  276  TRP276      0.0001
     48  CH2       42.1200   28.9700   24.9300 C.ar  276  TRP276      0.0015
     49  N         45.8640   22.6850   21.4060 N.3   279  MET279     -0.1230
     50  CA        44.4150   22.5360   21.4430 C.3   279  MET279      0.1702
     51  C         43.7520   22.8870   20.1190 C.2   279  MET279      0.2592
     52  O         42.5730   22.5710   19.9360 O.2   279  MET279     -0.2718
     53  CB        43.8280   23.4000   22.5590 C.3   279  MET279      0.0401
     54  CG        44.2980   23.0070   23.9460 C.3   279  MET279      0.0596
     55  SD        43.7420   24.1540   25.2160 S.3   279  MET279     -0.1393
     56  CE        41.9690   23.9550   25.1040 C.3   279  MET279      0.0692
     57  N         44.4710   23.5280   19.1960 N.am  280  ARG280     -0.1980
     58  CA        43.8880   23.8340   17.8960 C.3   280  ARG280      0.1597
     59  C         43.9380   22.6230   16.9710 C.2   280  ARG280      0.2287
     60  O         42.9480   22.3020   16.3040 O.2   280  ARG280     -0.2864
     61  CB        44.6050   25.0270   17.2620 C.3   280  ARG280      0.0334
     62  CG        44.1940   25.3000   15.8240 C.3   280  ARG280      0.0492
     63  CD        42.6960   25.5430   15.7080 C.3   280  ARG280      0.2205
     64  NE        42.2450   25.5020   14.3200 N.pl3 280  ARG280     -0.0865
     65  CZ        41.8640   24.3940   13.6920 C.cat 280  ARG280      0.5346
     66  NH1       41.8790   23.2300   14.3270 N.pl3 280  ARG280      0.1354
     67  NH2       41.4680   24.4490   12.4270 N.pl3 280  ARG280      0.1354
     68  N         38.6220   15.0930   19.8240 N.3   285  ARG285     -0.1245
     69  CA        39.7620   15.9990   19.9220 C.3   285  ARG285      0.1563
     70  C         40.4950   15.7690   21.2370 C.2   285  ARG285      0.2260
     71  O         40.0700   16.2820   22.2840 O.2   285  ARG285     -0.2867
     72  CB        39.2980   17.4540   19.8100 C.3   285  ARG285      0.0307
     73  CG        38.3570   17.7000   18.6410 C.3   285  ARG285      0.0489
     74  CD        37.8730   19.1410   18.5880 C.3   285  ARG285      0.2205
     75  NE        38.6370   19.9490   17.6420 N.pl3 285  ARG285     -0.0865
     76  CZ        39.5320   20.8670   17.9910 C.cat 285  ARG285      0.5346
     77  NH1       40.1770   21.5540   17.0580 N.pl3 285  ARG285      0.1354
     78  NH2       39.7770   21.1060   19.2690 N.pl3 285  ARG285      0.1354
     79  N         42.3550   18.9990   22.8120 N.3   288  LEU288     -0.1245
     80  CA        41.3370   19.8740   23.3770 C.3   288  LEU288      0.1561
     81  C         40.7610   19.2930   24.6600 C.2   288  LEU288      0.2260
     82  O         40.3910   20.0460   25.5650 O.2   288  LEU288     -0.2867
     83  CB        40.2210   20.1160   22.3650 C.3   288  LEU288      0.0270
     84  CG        39.2800   21.2650   22.7240 C.3   288  LEU288      0.0019
     85  CD1       39.9370   22.5980   22.4200 C.3   288  LEU288      0.0001
     86  CD2       37.9560   21.1360   21.9980 C.3   288  LEU288      0.0001
     87  N         40.9140   21.3370   28.0960 N.3   292  ILE292     -0.1245
     88  CA        39.7000   21.5710   28.8700 C.3   292  ILE292      0.1561
     89  C         39.8220   20.9450   30.2520 C.2   292  ILE292      0.2260
     90  O         39.2210   21.4270   31.2190 O.2   292  ILE292     -0.2867
     91  CB        38.4830   21.0370   28.0940 C.3   292  ILE292      0.0252
     92  CG1       38.2320   21.9030   26.8610 C.3   292  ILE292      0.0019
     93  CG2       37.2450   20.9950   28.9680 C.3   292  ILE292      0.0019
     94  CD1       37.3500   21.2480   25.8430 C.3   292  ILE292      0.0001
     95  N         42.2600   23.6050   32.1040 N.3   295  ILE295     -0.1231
     96  CA        41.5890   24.8890   32.2890 C.3   295  ILE295      0.1692
     97  C         40.3640   24.7310   33.1820 C.2   295  ILE295      0.2591
     98  O         40.1010   25.5700   34.0520 O.2   295  ILE295     -0.2718
     99  CB        41.2210   25.5010   30.9260 C.3   295  ILE295      0.0266
    100  CG1       42.4840   25.8140   30.1240 C.3   295  ILE295      0.0019
    101  CG2       40.3850   26.7570   31.1100 C.3   295  ILE295      0.0020
    102  CD1       42.2030   26.3450   28.7390 C.3   295  ILE295      0.0001
    103  N         39.6030   23.6560   32.9900 N.am  296  ALA296     -0.1980
    104  CA        38.3940   23.4480   33.7800 C.3   296  ALA296      0.1597
    105  C         38.7260   23.2360   35.2520 C.2   296  ALA296      0.2287
    106  O         38.0980   23.8370   36.1310 O.2   296  ALA296     -0.2864
    107  CB        37.6050   22.2610   33.2260 C.3   296  ALA296      0.0319
    108  N         40.1550   26.5590   36.7820 N.3   299  VAL299     -0.1231
    109  CA        39.1000   27.5110   37.1100 C.3   299  VAL299      0.1692
    110  C         38.2650   27.0020   38.2770 C.2   299  VAL299      0.2592
    111  O         37.8070   27.7920   39.1110 O.2   299  VAL299     -0.2718
    112  CB        38.2350   27.7950   35.8670 C.3   299  VAL299      0.0266
    113  CG1       37.0490   28.6660   36.2280 C.3   299  VAL299      0.0020
    114  CG2       39.0670   28.4690   34.7930 C.3   299  VAL299      0.0020
    115  N         38.0660   25.6860   38.3730 N.am  300  PHE300     -0.1976
    116  CA        37.2670   25.1350   39.4630 C.3   300  PHE300      0.1639
    117  C         37.9080   25.4210   40.8150 C.2   300  PHE300      0.2290
    118  O         37.2290   25.8270   41.7640 O.2   300  PHE300     -0.2864
    119  CB        37.0720   23.6310   39.2670 C.3   300  PHE300      0.0560
    120  CG        36.4020   22.9490   40.4280 C.ar  300  PHE300     -0.0200
    121  CD1       35.0270   22.9970   40.5780 C.ar  300  PHE300     -0.0042
    122  CD2       37.1470   22.2510   41.3650 C.ar  300  PHE300     -0.0042
    123  CE1       34.4090   22.3660   41.6430 C.ar  300  PHE300     -0.0003
    124  CE2       36.5340   21.6190   42.4310 C.ar  300  PHE300     -0.0003
    125  CZ        35.1640   21.6770   42.5700 C.ar  300  PHE300     -0.0000
    126  N         38.3110   29.4420   42.0320 N.3   303  ILE303     -0.1245
    127  CA        37.1730   30.1420   42.6130 C.3   303  ILE303      0.1561
    128  C         36.6730   29.4540   43.8760 C.2   303  ILE303      0.2260
    129  O         35.6220   29.8280   44.4070 O.2   303  ILE303     -0.2867
    130  CB        36.0360   30.3060   41.5910 C.3   303  ILE303      0.0252
    131  CG1       35.5590   28.9410   41.0960 C.3   303  ILE303      0.0019
    132  CG2       36.4920   31.1670   40.4240 C.3   303  ILE303      0.0019
    133  CD1       34.5310   29.0210   39.9910 C.3   303  ILE303      0.0001
@<TRIPOS>BOND
     1    67    65    1
     2    65    64    2
     3    65    66    1
     4    64    63    1
     5    63    62    1
     6    62    61    1
     7    60    59    2
     8    59    58    1
     9    77    76    1
    10    61    58    1
    11    75    76    2
    12    75    74    1
    13    58    57    1
    14    76    78    1
    15    74    73    1
    16    73    72    1
    17    57    51   am
    18    72    69    1
    19    68    69    1
    20    69    70    1
    21    52    51    2
    22    51    50    1
    23    19    18    2
    24    70    71    2
    25    49    50    1
    26    50    53    1
    27    18    17    1
    28    38    37    2
    29    86    84    1
    30    43    41   ar
    31    43    44   ar
    32    41    40   ar
    33    37    36    1
    34    83    84    1
    35    83    80    1
    36    85    84    1
    37    53    54    1
    38    17    20    1
    39    17    16    1
    40    79    80    1
    41    44    46   ar
    42    44    42   ar
    43    20    22    1
    44    20    21    1
    45    80    81    1
    46    40    39    1
    47    40    42   ar
    48    46    48   ar
    49    36    39    1
    50    36    35    1
    51    54    55    1
    52    42    45   ar
    53    81    82    2
    54    48    47   ar
    55    56    55    1
    56    45    47   ar
    57    94    92    1
    58    12    11    2
    59    92    91    1
    60    11    10    1
    61    91    88    1
    62    91    93    1
    63    87    88    1
    64    10     9    1
    65    10    13    1
    66   102   100    1
    67    14    13    1
    68    88    89    1
    69    13    15    1
    70   100    99    1
    71    89    90    2
    72    99   101    1
    73    99    96    1
    74    95    96    1
    75     4     3    2
    76    96    97    1
    77   103    97   am
    78   103   104    1
    79     3     2    1
    80    97    98    2
    81   107   104    1
    82   104   105    1
    83     2     1    1
    84     2     5    1
    85     7     6    1
    86   114   112    1
    87     6     5    1
    88     6     8    1
    89   105   106    2
    90   112   113    1
    91   112   109    1
    92   108   109    1
    93   109   110    1
    94   110   115   am
    95   110   111    2
    96   115   116    1
    97   119   116    1
    98   119   120    1
    99   116   117    1
   100   133   131    1
   101   132   130    1
   102   120   121   ar
   103   120   122   ar
   104   121   123   ar
   105   117   118    2
   106   131   130    1
   107   122   124   ar
   108   130   127    1
   109   123   125   ar
   110   126   127    1
   111    34    33    1
   112   124   125   ar
   113   127   128    1
   114    33    31   ar
   115    33    32   ar
   116   128   129    2
   117    31    29   ar
   118    32    30   ar
   119    29    28   ar
   120    30    28   ar
   121    28    27    1
   122    27    24    1
   123    26    25    2
   124    24    25    1
   125    24    23    1
