@<TRIPOS>MOLECULE
tmp/5f15A02.pdb
 93 87 0 0 0
SMALL
GASTEIGER

@<TRIPOS>ATOM
      1  N         41.4680    5.2750   50.4770 N.3    63  PHE63      -0.1241
      2  CA        42.2530    4.5240   49.5000 C.3    63  PHE63       0.1605
      3  C         43.7480    4.7280   49.7240 C.2    63  PHE63       0.2264
      4  O         44.5290    3.7670   49.7100 O.2    63  PHE63      -0.2867
      5  CB        41.8640    4.9160   48.0760 C.3    63  PHE63       0.0534
      6  CG        42.6200    4.1600   47.0200 C.ar   63  PHE63      -0.0203
      7  CD1       42.2950    2.8470   46.7260 C.ar   63  PHE63      -0.0042
      8  CD2       43.6600    4.7570   46.3310 C.ar   63  PHE63      -0.0042
      9  CE1       42.9900    2.1460   45.7600 C.ar   63  PHE63      -0.0003
     10  CE2       44.3560    4.0620   45.3630 C.ar   63  PHE63      -0.0003
     11  CZ        44.0210    2.7550   45.0780 C.ar   63  PHE63      -0.0000
     12  N         52.6000    5.9990   38.0170 N.3    92  LEU92      -0.1245
     13  CA        51.3710    5.6510   37.3140 C.3    92  LEU92       0.1561
     14  C         50.9430    6.7690   36.3730 C.2    92  LEU92       0.2260
     15  O         50.6330    6.5260   35.2020 O.2    92  LEU92      -0.2867
     16  CB        50.2640    5.3420   38.3220 C.3    92  LEU92       0.0270
     17  CG        48.9350    4.8470   37.7530 C.3    92  LEU92       0.0019
     18  CD1       49.1160    3.5000   37.0750 C.3    92  LEU92       0.0001
     19  CD2       47.8820    4.7630   38.8470 C.3    92  LEU92       0.0001
     20  N         45.4310    8.6770   39.9180 N.3   139  VAL139     -0.1245
     21  CA        44.2050    7.9420   39.6190 C.3   139  VAL139      0.1561
     22  C         43.3830    8.6850   38.5710 C.2   139  VAL139      0.2260
     23  O         42.9290    8.1010   37.5790 O.2   139  VAL139     -0.2867
     24  CB        43.4010    7.6980   40.9080 C.3   139  VAL139      0.0252
     25  CG1       42.1070    6.9990   40.5900 C.3   139  VAL139      0.0019
     26  CG2       44.2180    6.8730   41.8870 C.3   139  VAL139      0.0019
     27  N         44.7740    8.2360   35.2840 N.3   142  CYS142     -0.1235
     28  CA        44.2020    7.0530   34.6490 C.3   142  CYS142      0.1677
     29  C         42.8060    7.3320   34.1090 C.2   142  CYS142      0.2270
     30  O         42.4120    6.7600   33.0880 O.2   142  CYS142     -0.2867
     31  CB        44.1570    5.8850   35.6330 C.3   142  CYS142      0.0956
     32  SG        45.7330    5.0660   35.9000 S.3   142  CYS142     -0.0801
     33  N         42.5630    6.9340   30.1960 N.3   146  PHE146     -0.1241
     34  CA        41.6750    5.8590   29.7630 C.3   146  PHE146      0.1605
     35  C         40.5470    6.3990   28.8950 C.2   146  PHE146      0.2264
     36  O         40.1400    5.7530   27.9210 O.2   146  PHE146     -0.2867
     37  CB        41.1120    5.1130   30.9700 C.3   146  PHE146      0.0534
     38  CG        42.1130    4.2380   31.6630 C.ar  146  PHE146     -0.0203
     39  CD1       43.3330    3.9550   31.0740 C.ar  146  PHE146     -0.0042
     40  CD2       41.8340    3.6990   32.9070 C.ar  146  PHE146     -0.0042
     41  CE1       44.2540    3.1530   31.7120 C.ar  146  PHE146     -0.0003
     42  CE2       42.7500    2.8960   33.5500 C.ar  146  PHE146     -0.0003
     43  CZ        43.9620    2.6210   32.9520 C.ar  146  PHE146     -0.0000
     44  N         35.1550   -3.6650   21.7080 N.3   158  ALA158     -0.1231
     45  CA        35.5570   -4.3010   22.9570 C.3   158  ALA158      0.1694
     46  C         36.6570   -3.5070   23.6480 C.2   158  ALA158      0.2591
     47  O         36.6990   -3.4340   24.8810 O.2   158  ALA158     -0.2718
     48  CB        36.0150   -5.7350   22.6960 C.3   158  ALA158      0.0304
     49  N         37.5570   -2.9050   22.8680 N.am  159  ALA159     -0.1980
     50  CA        38.5940   -2.0630   23.4520 C.3   159  ALA159      0.1597
     51  C         37.9880   -0.8260   24.1010 C.2   159  ALA159      0.2287
     52  O         38.3440   -0.4690   25.2300 O.2   159  ALA159     -0.2864
     53  CB        39.6160   -1.6710   22.3850 C.3   159  ALA159      0.0319
     54  N         36.3980   -1.8390   27.2940 N.3   162  GLY162     -0.1210
     55  CA        37.3750   -2.0670   28.3470 C.3   162  GLY162      0.1956
     56  C         37.9190   -0.7770   28.9270 C.2   162  GLY162      0.2611
     57  O         37.9720   -0.6040   30.1470 O.2   162  GLY162     -0.2717
     58  N         38.3290    0.1510   28.0590 N.am  163  TRP163     -0.1976
     59  CA        38.8870    1.4080   28.5460 C.3   163  TRP163      0.1640
     60  C         37.8380    2.2560   29.2510 C.2   163  TRP163      0.2290
     61  O         38.1810    3.0470   30.1360 O.2   163  TRP163     -0.2864
     62  CB        39.5150    2.1990   27.3970 C.3   163  TRP163      0.0576
     63  CG        40.7200    1.5490   26.7820 C.ar  163  TRP163      0.0006
     64  CD1       40.8440    1.1040   25.4990 C.ar  163  TRP163      0.0946
     65  CD2       41.9710    1.2720   27.4230 C.ar  163  TRP163      0.0152
     66  NE1       42.0920    0.5680   25.3010 N.ar  163  TRP163     -0.2442
     67  CE2       42.8040    0.6590   26.4670 C.ar  163  TRP163      0.0810
     68  CE3       42.4680    1.4820   28.7130 C.ar  163  TRP163      0.0012
     69  CZ2       44.1040    0.2530   26.7590 C.ar  163  TRP163      0.0191
     70  CZ3       43.7600    1.0800   29.0000 C.ar  163  TRP163      0.0001
     71  CH2       44.5620    0.4730   28.0280 C.ar  163  TRP163      0.0015
     72  N         37.2710    0.6370   32.6700 N.3   166  ALA166     -0.1245
     73  CA        38.4390    1.0040   33.4610 C.3   166  ALA166      0.1562
     74  C         38.4430    2.4870   33.8020 C.2   166  ALA166      0.2260
     75  O         39.0320    2.8870   34.8110 O.2   166  ALA166     -0.2867
     76  CB        39.7180    0.6290   32.7140 C.3   166  ALA166      0.0290
     77  N         35.7690    2.7900   36.6690 N.3   169  ALA169     -0.1231
     78  CA        36.4100    2.2340   37.8540 C.3   169  ALA169      0.1694
     79  C         37.5140    3.1550   38.3540 C.2   169  ALA169      0.2591
     80  O         37.7190    3.2960   39.5660 O.2   169  ALA169     -0.2718
     81  CB        36.9640    0.8430   37.5500 C.3   169  ALA169      0.0304
     82  N         38.2250    3.8040   37.4300 N.am  170  ALA170     -0.1980
     83  CA        39.2940    4.7140   37.8190 C.3   170  ALA170      0.1597
     84  C         38.7460    5.8940   38.6100 C.2   170  ALA170      0.2287
     85  O         39.2180    6.1860   39.7140 O.2   170  ALA170     -0.2864
     86  CB        40.0520    5.1910   36.5800 C.3   170  ALA170      0.0319
     87  N         37.7400    4.8200   42.0610 N.3   173  VAL173     -0.1245
     88  CA        38.8700    4.8210   42.9850 C.3   173  VAL173      0.1561
     89  C         39.2520    6.2460   43.3570 C.2   173  VAL173      0.2260
     90  O         39.6740    6.5100   44.4900 O.2   173  VAL173     -0.2867
     91  CB        40.0580    4.0540   42.3720 C.3   173  VAL173      0.0252
     92  CG1       41.2570    4.0970   43.2970 C.3   173  VAL173      0.0019
     93  CG2       39.6650    2.6160   42.0840 C.3   173  VAL173      0.0019
@<TRIPOS>BOND
     1    44    45    1
     2    53    50    1
     3    48    45    1
     4    49    50    1
     5    49    46   am
     6    45    46    1
     7    50    51    1
     8    46    47    2
     9    51    52    2
    10    66    64   ar
    11    66    67   ar
    12    64    63   ar
    13    67    69   ar
    14    67    65   ar
    15    69    71   ar
    16    63    62    1
    17    63    65   ar
    18    54    55    1
    19    62    59    1
    20    65    68   ar
    21    36    35    2
    22    71    70   ar
    23    58    59    1
    24    58    56   am
    25    55    56    1
    26    59    60    1
    27    68    70   ar
    28    35    34    1
    29    56    57    2
    30    60    61    2
    31    34    33    1
    32    34    37    1
    33    37    38    1
    34    39    38   ar
    35    39    41   ar
    36    38    40   ar
    37    41    43   ar
    38    72    73    1
    39    76    73    1
    40    40    42   ar
    41    43    42   ar
    42    30    29    2
    43    73    74    1
    44    74    75    2
    45    29    28    1
    46    28    27    1
    47    28    31    1
    48    15    14    2
    49    31    32    1
    50    14    13    1
    51    86    83    1
    52    77    78    1
    53    18    17    1
    54    13    12    1
    55    13    16    1
    56    82    83    1
    57    82    79   am
    58    81    78    1
    59    23    22    2
    60    17    16    1
    61    17    19    1
    62    83    84    1
    63    78    79    1
    64    79    80    2
    65    22    21    1
    66    84    85    2
    67    21    20    1
    68    21    24    1
    69    25    24    1
    70    24    26    1
    71    87    88    1
    72    93    91    1
    73    91    88    1
    74    91    92    1
    75    88    89    1
    76    89    90    2
    77    11    10   ar
    78    11     9   ar
    79    10     8   ar
    80     9     7   ar
    81     8     6   ar
    82     7     6   ar
    83     6     5    1
    84     5     2    1
    85     2     3    1
    86     2     1    1
    87     4     3    2
