@<TRIPOS>MOLECULE
tmp/5f1aB01.pdb
 127 124 0 0 0
SMALL
GASTEIGER

@<TRIPOS>ATOM
      1  N         30.6750    9.8730  196.2070 N.3   317  TYR317     -0.1227
      2  CA        30.9630   11.1560  195.6180 C.3   317  TYR317      0.1736
      3  C         32.4070   11.4650  195.3230 C.2   317  TYR317      0.2595
      4  O         32.7490   11.7500  194.2150 O.2   317  TYR317     -0.2718
      5  CB        30.3130   12.2460  196.4470 C.3   317  TYR317      0.0548
      6  CG        30.5030   13.6350  195.9460 C.ar  317  TYR317     -0.0200
      7  CD1       29.6660   14.1700  195.0270 C.ar  317  TYR317     -0.0009
      8  CD2       31.5000   14.4080  196.4330 C.ar  317  TYR317     -0.0009
      9  CE1       29.8320   15.4520  194.5840 C.ar  317  TYR317      0.0417
     10  CE2       31.6860   15.6710  195.9940 C.ar  317  TYR317      0.0417
     11  CZ        30.8440   16.1870  195.0790 C.ar  317  TYR317      0.1957
     12  OH        31.0500   17.4380  194.6700 O.3   317  TYR317     -0.2866
     13  N         33.2290   11.4310  196.3400 N.am  318  VAL318     -0.1980
     14  CA        34.6660   11.6280  196.1700 C.3   318  VAL318      0.1595
     15  C         35.2600   10.4270  195.4420 C.2   318  VAL318      0.2287
     16  O         36.2250   10.5580  194.6940 O.2   318  VAL318     -0.2864
     17  CB        35.3790   11.8470  197.5250 C.3   318  VAL318      0.0276
     18  CG1       36.8860   11.9780  197.3270 C.3   318  VAL318      0.0022
     19  CG2       34.8380   13.0910  198.2030 C.3   318  VAL318      0.0022
     20  N         34.5020   11.0350  191.7000 N.3   321  LEU321     -0.1231
     21  CA        35.3820   12.1550  191.4280 C.3   321  LEU321      0.1693
     22  C         36.8460   11.7540  191.2600 C.2   321  LEU321      0.2592
     23  O         37.5140   12.1820  190.3200 O.2   321  LEU321     -0.2718
     24  CB        35.2510   13.1600  192.5740 C.3   321  LEU321      0.0284
     25  CG        35.3140   14.6470  192.2650 C.3   321  LEU321      0.0019
     26  CD1       34.6370   14.9220  190.9390 C.3   321  LEU321      0.0001
     27  CD2       34.6510   15.4230  193.3900 C.3   321  LEU321      0.0001
     28  N         37.3340   10.9290  192.1800 N.am  322  SER322     -0.1952
     29  CA        38.7460   10.5730  192.2290 C.3   322  SER322      0.1924
     30  C         39.1920    9.7500  191.0260 C.2   322  SER322      0.2314
     31  O         40.3180    9.8930  190.5510 O.2   322  SER322     -0.2863
     32  CB        39.0510    9.7920  193.5050 C.3   322  SER322      0.2116
     33  OG        38.6770    8.4320  193.3590 O.3   322  SER322     -0.2180
     34  N         38.3840   27.5580  199.1930 N.3   350  PHE350     -0.1241
     35  CA        37.6920   26.3040  198.9990 C.3   350  PHE350      0.1605
     36  C         36.4000   26.6020  198.2750 C.2   350  PHE350      0.2264
     37  O         35.9890   25.8700  197.4220 O.2   350  PHE350     -0.2867
     38  CB        37.4640   25.5820  200.3210 C.3   350  PHE350      0.0534
     39  CG        36.9230   24.2160  200.1790 C.ar  350  PHE350     -0.0203
     40  CD1       37.2270   23.4550  199.1010 C.ar  350  PHE350     -0.0042
     41  CD2       36.1220   23.6830  201.1370 C.ar  350  PHE350     -0.0042
     42  CE1       36.7530   22.1830  198.9750 C.ar  350  PHE350     -0.0003
     43  CE2       35.6300   22.4140  201.0230 C.ar  350  PHE350     -0.0003
     44  CZ        35.9540   21.6580  199.9360 C.ar  350  PHE350     -0.0000
     45  N         37.3420   27.4800  194.4600 N.3   353  LEU353     -0.1231
     46  CA        37.7130   26.3780  193.5810 C.3   353  LEU353      0.1693
     47  C         36.4980   25.5050  193.2890 C.2   353  LEU353      0.2592
     48  O         36.4800   24.7790  192.2940 O.2   353  LEU353     -0.2718
     49  CB        38.8690   25.5400  194.1620 C.3   353  LEU353      0.0284
     50  CG        38.7900   24.4930  195.2840 C.3   353  LEU353      0.0019
     51  CD1       38.0720   23.2000  194.8870 C.3   353  LEU353      0.0001
     52  CD2       40.2000   24.1660  195.7250 C.3   353  LEU353      0.0001
     53  N         35.4820   25.5980  194.1240 N.am  354  TYR354     -0.1976
     54  CA        34.2830   24.8260  193.9280 C.3   354  TYR354      0.1639
     55  C         33.2880   25.4710  192.9850 C.2   354  TYR354      0.2290
     56  O         32.1920   25.0110  192.8510 O.2   354  TYR354     -0.2864
     57  CB        33.6320   24.4680  195.2440 C.3   354  TYR354      0.0560
     58  CG        33.4840   23.0020  195.5110 C.ar  354  TYR354     -0.0198
     59  CD1       32.6400   22.2300  194.7790 C.ar  354  TYR354     -0.0009
     60  CD2       34.1890   22.4000  196.5050 C.ar  354  TYR354     -0.0009
     61  CE1       32.5120   20.9080  195.0240 C.ar  354  TYR354      0.0417
     62  CE2       34.0690   21.0750  196.7370 C.ar  354  TYR354      0.0417
     63  CZ        33.2260   20.3470  195.9920 C.ar  354  TYR354      0.1957
     64  OH        33.0920   19.0520  196.2440 O.3   354  TYR354     -0.2866
     65  N         32.1910   25.2420  190.0530 N.3   356  TRP356     -0.1241
     66  CA        32.2420   24.3020  188.9390 C.3   356  TRP356      0.1605
     67  C         31.1040   24.4970  187.9450 C.2   356  TRP356      0.2264
     68  O         30.4030   23.5410  187.6040 O.2   356  TRP356     -0.2867
     69  CB        32.1970   22.8630  189.4580 C.3   356  TRP356      0.0550
     70  CG        33.3560   22.4680  190.3030 C.ar  356  TRP356      0.0003
     71  CD1       34.5130   23.1640  190.4890 C.ar  356  TRP356      0.0946
     72  CD2       33.4720   21.2740  191.0890 C.ar  356  TRP356      0.0152
     73  NE1       35.3450   22.4750  191.3430 N.ar  356  TRP356     -0.2442
     74  CE2       34.7280   21.3130  191.7240 C.ar  356  TRP356      0.0810
     75  CE3       32.6370   20.1770  191.3130 C.ar  356  TRP356      0.0012
     76  CZ2       35.1690   20.2950  192.5670 C.ar  356  TRP356      0.0191
     77  CZ3       33.0800   19.1640  192.1490 C.ar  356  TRP356      0.0001
     78  CH2       34.3310   19.2340  192.7690 C.ar  356  TRP356      0.0015
     79  N         39.2920   16.9650  186.1100 N.3   487  PHE487     -0.1241
     80  CA        40.0870   18.0050  186.7620 C.3   487  PHE487      0.1605
     81  C         41.5630   17.9570  186.3890 C.2   487  PHE487      0.2264
     82  O         42.0850   16.9120  185.9990 O.2   487  PHE487     -0.2867
     83  CB        39.9810   17.8860  188.2850 C.3   487  PHE487      0.0534
     84  CG        38.6010   18.0960  188.8290 C.ar  487  PHE487     -0.0203
     85  CD1       37.7440   19.0140  188.2570 C.ar  487  PHE487     -0.0042
     86  CD2       38.1700   17.3840  189.9400 C.ar  487  PHE487     -0.0042
     87  CE1       36.4750   19.2180  188.7790 C.ar  487  PHE487     -0.0003
     88  CE2       36.9050   17.5760  190.4610 C.ar  487  PHE487     -0.0003
     89  CZ        36.0540   18.4930  189.8760 C.ar  487  PHE487     -0.0000
     90  N         43.2810   21.3870  191.0880 N.3   491  MET491     -0.1230
     91  CA        41.9510   21.2430  191.6630 C.3   491  MET491      0.1702
     92  C         41.9310   20.1520  192.7280 C.2   491  MET491      0.2592
     93  O         41.3500   20.3240  193.8020 O.2   491  MET491     -0.2718
     94  CB        40.9210   20.9160  190.5870 C.3   491  MET491      0.0401
     95  CG        39.5090   20.8020  191.1400 C.3   491  MET491      0.0596
     96  SD        38.8440   22.4350  191.4800 S.3   491  MET491     -0.1393
     97  CE        38.5650   23.0020  189.7940 C.3   491  MET491      0.0692
     98  N         42.5810   19.0350  192.4210 N.am  492  VAL492     -0.1980
     99  CA        42.5850   17.8760  193.3030 C.3   492  VAL492      0.1595
    100  C         43.4760   18.0710  194.5260 C.2   492  VAL492      0.2287
    101  O         43.0430   17.8610  195.6580 O.2   492  VAL492     -0.2864
    102  CB        43.0510   16.6140  192.5550 C.3   492  VAL492      0.0276
    103  CG1       43.1560   15.4360  193.5100 C.3   492  VAL492      0.0022
    104  CG2       42.1080   16.3010  191.4030 C.3   492  VAL492      0.0022
    105  N         41.9060   20.9470  196.5950 N.3   495  GLY495     -0.1210
    106  CA        40.5440   20.6940  197.0330 C.3   495  GLY495      0.1956
    107  C         40.3820   19.5300  197.9910 C.2   495  GLY495      0.2611
    108  O         39.5670   19.5950  198.9120 O.2   495  GLY495     -0.2717
    109  N         41.1530   18.4650  197.7880 N.am  496  ALA496     -0.1979
    110  CA        41.0310   17.2750  198.6350 C.3   496  ALA496      0.1597
    111  C         41.4020   17.5100  200.1140 C.2   496  ALA496      0.2287
    112  O         40.7260   16.9850  200.9940 O.2   496  ALA496     -0.2864
    113  CB        41.8620   16.1290  198.0590 C.3   496  ALA496      0.0319
    114  N         38.4590   19.3420  201.6420 N.3   499  SER499     -0.1202
    115  CA        37.3460   18.4310  201.6780 C.3   499  SER499      0.2020
    116  C         37.3920   17.3020  202.6810 C.2   499  SER499      0.2618
    117  O         36.4350   17.0350  203.3500 O.2   499  SER499     -0.2717
    118  CB        37.1030   17.9030  200.2920 C.3   499  SER499      0.2103
    119  OG        36.1880   16.8800  200.3080 O.3   499  SER499     -0.2182
    120  N         38.5180   16.6340  202.7570 N.am  500  LEU500     -0.1979
    121  CA        38.6430   15.5160  203.6840 C.3   500  LEU500      0.1596
    122  C         38.7210   15.9940  205.1330 C.2   500  LEU500      0.2287
    123  O         38.1490   15.3740  206.0290 O.2   500  LEU500     -0.2864
    124  CB        39.8630   14.6720  203.3230 C.3   500  LEU500      0.0297
    125  CG        39.6250   13.7840  202.1010 C.3   500  LEU500      0.0022
    126  CD1       40.9290   13.2460  201.5530 C.3   500  LEU500      0.0001
    127  CD2       38.6940   12.6440  202.4630 C.3   500  LEU500      0.0001
@<TRIPOS>BOND
     1    82    81    2
     2    79    80    1
     3    81    80    1
     4    80    83    1
     5    68    67    2
     6    67    66    1
     7    85    87   ar
     8    85    84   ar
     9    83    84    1
    10    87    89   ar
    11    84    86   ar
    12    66    69    1
    13    66    65    1
    14    69    70    1
    15    97    96    1
    16    89    88   ar
    17    86    88   ar
    18    70    71   ar
    19    70    72   ar
    20    23    22    2
    21    71    73   ar
    22    31    30    2
    23    94    95    1
    24    94    91    1
    25    26    25    1
    26    30    29    1
    27    90    91    1
    28    72    75   ar
    29    72    74   ar
    30    95    96    1
    31    22    21    1
    32    22    28   am
    33    75    77   ar
    34    73    74   ar
    35   104   102    1
    36    21    20    1
    37    21    24    1
    38    91    92    1
    39    74    76   ar
    40    77    78   ar
    41    28    29    1
    42    29    32    1
    43    25    24    1
    44    25    27    1
    45    48    47    2
    46    98    92   am
    47    98    99    1
    48   102    99    1
    49   102   103    1
    50    76    78   ar
    51    92    93    2
    52    56    55    2
    53    55    54    1
    54    47    46    1
    55    47    53   am
    56    99   100    1
    57    33    32    1
    58    46    49    1
    59    46    45    1
    60    54    53    1
    61    54    57    1
    62    49    50    1
    63     4     3    2
    64   100   101    2
    65     9     7   ar
    66     9    11   ar
    67    12    11    1
    68    16    15    2
    69    59    61   ar
    70    59    58   ar
    71    51    50    1
    72    61    63   ar
    73     7     6   ar
    74    11    10   ar
    75    57    58    1
    76    50    52    1
    77     3     2    1
    78     3    13   am
    79    15    14    1
    80    58    60   ar
    81     2     1    1
    82     2     5    1
    83     6     8   ar
    84     6     5    1
    85    63    64    1
    86    63    62   ar
    87    10     8   ar
    88    14    13    1
    89    14    17    1
    90    60    62   ar
    91   105   106    1
    92   106   107    1
    93    18    17    1
    94    37    36    2
    95    17    19    1
    96   109   107   am
    97   109   110    1
    98   107   108    2
    99   113   110    1
   100    36    35    1
   101   110   111    1
   102    42    40   ar
   103    42    44   ar
   104    35    34    1
   105    35    38    1
   106    40    39   ar
   107    44    43   ar
   108   111   112    2
   109    39    38    1
   110    39    41   ar
   111   118   119    1
   112   118   115    1
   113    43    41   ar
   114   126   125    1
   115   114   115    1
   116   115   116    1
   117   125   127    1
   118   125   124    1
   119   116   120   am
   120   116   117    2
   121   120   121    1
   122   124   121    1
   123   121   122    1
   124   122   123    2
