@<TRIPOS>MOLECULE
tmp/5f1aB05.pdb
 119 115 0 0 0
SMALL
GASTEIGER

@<TRIPOS>ATOM
      1  N         10.7890   34.5370  193.1700 N.3   245  PRO245     -0.2116
      2  CA        10.2350   35.6340  192.3720 C.3   245  PRO245      0.1372
      3  C          8.7130   35.6370  192.4640 C.2   245  PRO245      0.2244
      4  O          8.1260   34.5740  192.6610 O.2   245  PRO245     -0.2868
      5  CB        10.7110   35.3140  190.9500 C.3   245  PRO245      0.0268
      6  CG        10.9310   33.8440  190.9510 C.3   245  PRO245      0.0207
      7  CD        11.4200   33.5060  192.3280 C.3   245  PRO245      0.0892
      8  N          6.4760   35.5650  190.4740 N.3   247  GLN247     -0.1231
      9  CA         5.8090   34.7220  189.4870 C.3   247  GLN247      0.1698
     10  C          5.4080   33.3680  190.0600 C.2   247  GLN247      0.2592
     11  O          4.4620   32.7460  189.5820 O.2   247  GLN247     -0.2718
     12  CB         6.7070   34.5170  188.2630 C.3   247  GLN247      0.0381
     13  CG         6.7160   35.6900  187.2930 C.3   247  GLN247      0.0905
     14  CD         7.3770   36.9290  187.8700 C.2   247  GLN247      0.2608
     15  OE1        8.2750   36.8340  188.7120 O.2   247  GLN247     -0.2717
     16  NE2        6.9320   38.1030  187.4220 N.am  247  GLN247     -0.0878
     17  N          6.1300   32.9060  191.0740 N.am  248  VAL248     -0.1966
     18  CA         5.8120   31.6250  191.6960 C.3   248  VAL248      0.1712
     19  C          4.6050   31.7530  192.6260 C.2   248  VAL248      0.2458
     20  O          4.6190   32.5340  193.5810 O.2   248  VAL248     -0.2730
     21  CB         7.0050   31.0680  192.4840 C.3   248  VAL248      0.0289
     22  CG1        6.6350   29.7410  193.1420 C.3   248  VAL248      0.0023
     23  CG2        8.2070   30.8980  191.5720 C.3   248  VAL248      0.0023
     24  N          3.5450   30.9820  192.3450 N.am  249  PRO249     -0.2727
     25  CA         2.3410   31.0380  193.1780 C.3   249  PRO249      0.1402
     26  C          2.6000   30.4570  194.5690 C.2   249  PRO249      0.2269
     27  O          3.5630   29.7080  194.7530 O.2   249  PRO249     -0.2865
     28  CB         1.3300   30.1970  192.3910 C.3   249  PRO249      0.0296
     29  CG         2.1710   29.2400  191.6150 C.3   249  PRO249      0.0237
     30  CD         3.4340   29.9800  191.2700 C.3   249  PRO249      0.0939
     31  N          3.2860   26.7240  195.4210 N.3   252  LEU252     -0.1245
     32  CA         4.4830   26.1290  194.8410 C.3   252  LEU252      0.1561
     33  C          5.7590   26.6210  195.5130 C.2   252  LEU252      0.2260
     34  O          6.8590   26.1930  195.1630 O.2   252  LEU252     -0.2867
     35  CB         4.5410   26.4080  193.3390 C.3   252  LEU252      0.0270
     36  CG         3.6200   25.5350  192.4850 C.3   252  LEU252      0.0019
     37  CD1        3.7470   25.8950  191.0060 C.3   252  LEU252      0.0001
     38  CD2        3.9430   24.0640  192.7160 C.3   252  LEU252      0.0001
     39  N         11.0100   16.0550  177.6450 N.3   369  GLN369     -0.1245
     40  CA        11.0850   17.5080  177.5760 C.3   369  GLN369      0.1566
     41  C         12.4930   18.0460  177.7960 C.2   369  GLN369      0.2260
     42  O         13.2890   17.4730  178.5440 O.2   369  GLN369     -0.2867
     43  CB        10.1320   18.1330  178.5980 C.3   369  GLN369      0.0367
     44  CG         8.6790   18.1770  178.1490 C.3   369  GLN369      0.0905
     45  CD         8.1910   19.5930  177.9060 C.2   369  GLN369      0.2608
     46  OE1        7.5870   20.2120  178.7840 O.2   369  GLN369     -0.2717
     47  NE2        8.4590   20.1170  176.7170 N.am  369  GLN369     -0.0878
     48  N         14.4070   21.7790  178.8310 N.3   371  TYR371     -0.1241
     49  CA        14.1760   23.1170  179.3630 C.3   371  TYR371      0.1605
     50  C         15.4450   23.9500  179.2670 C.2   371  TYR371      0.2264
     51  O         16.5210   23.4910  179.6500 O.2   371  TYR371     -0.2867
     52  CB        13.7060   23.0570  180.8220 C.3   371  TYR371      0.0534
     53  CG        12.5470   22.1180  181.0760 C.ar  371  TYR371     -0.0201
     54  CD1       11.2360   22.5380  180.9040 C.ar  371  TYR371     -0.0009
     55  CD2       12.7660   20.8130  181.4990 C.ar  371  TYR371     -0.0009
     56  CE1       10.1750   21.6830  181.1390 C.ar  371  TYR371      0.0417
     57  CE2       11.7120   19.9510  181.7390 C.ar  371  TYR371      0.0417
     58  CZ        10.4180   20.3910  181.5570 C.ar  371  TYR371      0.1957
     59  OH         9.3640   19.5390  181.7910 O.3   371  TYR371     -0.2866
     60  N         16.0670   29.6550  181.4680 N.3   374  GLN374     -0.1231
     61  CA        14.9370   30.5230  181.7700 C.3   374  GLN374      0.1698
     62  C         13.6960   29.7450  182.2100 C.2   374  GLN374      0.2592
     63  O         12.9340   30.2110  183.0570 O.2   374  GLN374     -0.2718
     64  CB        14.6070   31.3830  180.5470 C.3   374  GLN374      0.0381
     65  CG        13.6810   32.5460  180.8340 C.3   374  GLN374      0.0905
     66  CD        14.3370   33.6110  181.6910 C.2   374  GLN374      0.2608
     67  OE1       15.5510   33.5910  181.9060 O.2   374  GLN374     -0.2717
     68  NE2       13.5360   34.5510  182.1850 N.am  374  GLN374     -0.0878
     69  N         13.5050   28.5590  181.6430 N.am  375  GLN375     -0.1979
     70  CA        12.3470   27.7340  181.9650 C.3   375  GLN375      0.1601
     71  C         12.5770   26.9090  183.2200 C.2   375  GLN375      0.2287
     72  O         11.6480   26.6190  183.9660 O.2   375  GLN375     -0.2864
     73  CB        12.0220   26.7960  180.8050 C.3   375  GLN375      0.0394
     74  CG        11.8520   27.4750  179.4630 C.3   375  GLN375      0.0908
     75  CD        11.6470   26.4730  178.3450 C.2   375  GLN375      0.2608
     76  OE1       12.5860   25.7990  177.9190 O.2   375  GLN375     -0.2717
     77  NE2       10.4130   26.3600  177.8710 N.am  375  GLN375     -0.0878
     78  N         14.8160   27.4900  185.8530 N.3   377  ILE377     -0.1231
     79  CA        15.0120   28.2730  187.0690 C.3   377  ILE377      0.1692
     80  C         13.6910   28.5110  187.8120 C.2   377  ILE377      0.2592
     81  O         12.6520   28.7880  187.2050 O.2   377  ILE377     -0.2718
     82  CB        15.7180   29.6170  186.7290 C.3   377  ILE377      0.0266
     83  CG1       17.0940   29.6750  187.3890 C.3   377  ILE377      0.0019
     84  CG2       14.8780   30.8260  187.0920 C.3   377  ILE377      0.0020
     85  CD1       18.0650   28.6240  186.8620 C.3   377  ILE377      0.0001
     86  N         13.7440   28.3440  189.1320 N.am  378  TYR378     -0.1962
     87  CA        12.5930   28.5070  190.0250 C.3   378  TYR378      0.1771
     88  C         11.3600   27.6920  189.6510 C.2   378  TYR378      0.2619
     89  O         10.2590   28.0180  190.0800 O.2   378  TYR378     -0.2715
     90  CB        12.2030   29.9840  190.1190 C.3   378  TYR378      0.0574
     91  CG        13.1850   30.7810  190.9370 C.ar  378  TYR378     -0.0198
     92  CD1       13.2980   30.5740  192.3070 C.ar  378  TYR378     -0.0009
     93  CD2       14.0130   31.7250  190.3440 C.ar  378  TYR378     -0.0009
     94  CE1       14.2010   31.2890  193.0670 C.ar  378  TYR378      0.0417
     95  CE2       14.9210   32.4460  191.0940 C.ar  378  TYR378      0.0417
     96  CZ        15.0100   32.2220  192.4580 C.ar  378  TYR378      0.1957
     97  OH        15.9110   32.9350  193.2140 O.3   378  TYR378     -0.2866
     98  N         11.5370   26.6190  188.8860 N.am  379  ASN379     -0.1972
     99  CA        10.3760   25.8810  188.4160 C.3   379  ASN379      0.1688
    100  C         10.0480   24.6260  189.2100 C.2   379  ASN379      0.2292
    101  O         10.3080   23.5110  188.7730 O.2   379  ASN379     -0.2864
    102  CB        10.5200   25.5150  186.9380 C.3   379  ASN379      0.1181
    103  CG         9.2390   25.7550  186.2060 C.2   379  ASN379      0.2629
    104  OD1        8.1750   25.4760  186.7530 O.2   379  ASN379     -0.2716
    105  ND2        9.2960   26.2980  184.9990 N.am  379  ASN379     -0.0877
    106  N          7.1110   23.7180  189.5860 N.3   381  SER381     -0.1202
    107  CA         5.9780   23.1690  188.8610 C.3   381  SER381      0.2020
    108  C          6.3590   21.9610  188.0020 C.2   381  SER381      0.2618
    109  O          5.5720   21.0280  187.8550 O.2   381  SER381     -0.2717
    110  CB         5.3440   24.2470  187.9870 C.3   381  SER381      0.2103
    111  OG         4.1530   23.7640  187.3980 O.3   381  SER381     -0.2182
    112  N          7.5630   21.9660  187.4410 N.am  382  ILE382     -0.1979
    113  CA         7.9680   20.8540  186.5920 C.3   382  ILE382      0.1595
    114  C          8.5600   19.7160  187.4240 C.2   382  ILE382      0.2287
    115  O          8.6840   18.5860  186.9510 O.2   382  ILE382     -0.2864
    116  CB         8.9630   21.3050  185.4940 C.3   382  ILE382      0.0276
    117  CG1       10.2980   21.7420  186.0870 C.3   382  ILE382      0.0022
    118  CG2        8.3570   22.4330  184.6660 C.3   382  ILE382      0.0022
    119  CD1       11.1890   22.4320  185.0690 C.3   382  ILE382      0.0001
@<TRIPOS>BOND
     1    47    45   am
     2    40    39    1
     3    40    41    1
     4    40    43    1
     5    41    42    2
     6    77    75   am
     7    45    44    1
     8    45    46    2
     9    76    75    2
    10    44    43    1
    11    75    74    1
    12    48    49    1
    13    50    49    1
    14    50    51    2
    15    49    52    1
    16    74    73    1
    17    64    65    1
    18    64    61    1
    19    73    70    1
    20    52    53    1
    21    65    66    1
    22    54    53   ar
    23    54    56   ar
    24    53    55   ar
    25    56    58   ar
    26    60    61    1
    27    55    57   ar
    28    58    57   ar
    29    58    59    1
    30    69    70    1
    31    69    62   am
    32    66    67    2
    33    66    68   am
    34    61    62    1
    35    70    71    1
    36    62    63    2
    37    71    72    2
    38   118   116    1
    39   105   103   am
    40   119   117    1
    41   116   117    1
    42   116   113    1
    43    78    79    1
    44   103   104    2
    45   103   102    1
    46   113   114    1
    47   113   112    1
    48    82    79    1
    49    82    84    1
    50    82    83    1
    51    85    83    1
    52   102    99    1
    53   115   114    2
    54    79    80    1
    55    81    80    2
    56    13    14    1
    57    13    12    1
    58   111   110    1
    59    16    14   am
    60   112   108   am
    61    80    86   am
    62   109   108    2
    63    14    15    2
    64   110   107    1
    65   108   107    1
    66    12     9    1
    67    99    98    1
    68    99   100    1
    69   101   100    2
    70   107   106    1
    71    98    88   am
    72    86    87    1
    73     9    10    1
    74     9     8    1
    75    11    10    2
    76    88    87    1
    77    88    89    2
    78    87    90    1
    79    10    17   am
    80    90    91    1
    81    93    91   ar
    82    93    95   ar
    83    91    92   ar
    84     5     6    1
    85     5     2    1
    86     6     7    1
    87    37    36    1
    88    17    18    1
    89    95    96   ar
    90    30    29    1
    91    30    24    1
    92    23    21    1
    93    29    28    1
    94    18    21    1
    95    18    19    1
    96    92    94   ar
    97     7     1    1
    98    24    19   am
    99    24    25    1
   100     2     3    1
   101     2     1    1
   102    28    25    1
   103    96    94   ar
   104    96    97    1
   105     3     4    2
   106    21    22    1
   107    36    38    1
   108    36    35    1
   109    19    20    2
   110    25    26    1
   111    35    32    1
   112    26    27    2
   113    32    31    1
   114    32    33    1
   115    34    33    2
