@<TRIPOS>MOLECULE
tmp/5f1fA00.pdb
 148 141 0 0 0
SMALL
GASTEIGER

@<TRIPOS>ATOM
      1  N         -2.2360    1.8430  -14.4790 N.3    67  SER67      -0.1217
      2  CA        -1.0090    2.2030  -13.7510 C.3    67  SER67       0.1889
      3  C         -0.8890    3.6460  -13.2590 C.2    67  SER67       0.2288
      4  O          0.0540    3.9510  -12.5430 O.2    67  SER67      -0.2866
      5  CB         0.2330    1.8850  -14.6050 C.3    67  SER67       0.2089
      6  OG         0.2720    0.4950  -14.8790 O.3    67  SER67      -0.2183
      7  N         -0.4220    3.8050   -9.6520 N.3    70  LYS70      -0.1245
      8  CA         0.9030    3.7040   -9.0270 C.3    70  LYS70       0.1561
      9  C          1.3260    5.0200   -8.3600 C.2    70  LYS70       0.2260
     10  O          2.0970    5.0050   -7.3890 O.2    70  LYS70      -0.2867
     11  CB         1.9660    3.2680  -10.0470 C.3    70  LYS70       0.0271
     12  CG         1.7730    1.8050  -10.4970 C.3    70  LYS70       0.0035
     13  CD         2.7610    1.4700  -11.6290 C.3    70  LYS70       0.0206
     14  CE         2.7560   -0.0260  -11.9850 C.3    70  LYS70       0.1093
     15  NZ         1.4880   -0.5010  -12.5500 N.3    70  LYS70      -0.1314
     16  N          7.2620   -7.5700  -15.6320 N.3   122  LEU122     -0.1231
     17  CA         6.1510   -6.6260  -15.8140 C.3   122  LEU122      0.1693
     18  C          4.8770   -7.1010  -15.1220 C.2   122  LEU122      0.2592
     19  O          4.2370   -6.3440  -14.4150 O.2   122  LEU122     -0.2718
     20  CB         5.8830   -6.4320  -17.2960 C.3   122  LEU122      0.0284
     21  CG         4.7270   -5.4650  -17.5780 C.3   122  LEU122      0.0019
     22  CD1        5.0780   -4.0790  -17.0810 C.3   122  LEU122      0.0001
     23  CD2        4.4080   -5.4470  -19.0800 C.3   122  LEU122      0.0001
     24  N          4.5710   -8.3830  -15.2940 N.am  123  GLN123     -0.1966
     25  CA         3.3710   -8.9940  -14.7090 C.3   123  GLN123      0.1733
     26  C          3.7270  -10.2400  -13.9050 C.2   123  GLN123      0.2616
     27  O          4.7260  -10.8900  -14.1830 O.2   123  GLN123     -0.2715
     28  CB         2.3820   -9.3450  -15.8220 C.3   123  GLN123      0.0408
     29  CG         1.9410   -8.1310  -16.6370 C.3   123  GLN123      0.0908
     30  CD         0.9410   -8.4440  -17.7350 C.2   123  GLN123      0.2608
     31  OE1        0.4820   -9.5750  -17.8830 O.2   123  GLN123     -0.2717
     32  NE2        0.6050   -7.4250  -18.5180 N.am  123  GLN123     -0.0878
     33  N          2.9100  -10.5660  -12.9080 N.am  124  PHE124     -0.1974
     34  CA         2.9490  -11.9120  -12.3510 C.3   124  PHE124      0.1639
     35  C          2.7180  -12.9280  -13.4620 C.2   124  PHE124      0.2290
     36  O          1.8740  -12.7010  -14.3560 O.2   124  PHE124     -0.2864
     37  CB         1.8620  -12.1110  -11.2720 C.3   124  PHE124      0.0560
     38  CG         2.1580  -11.4270   -9.9610 C.ar  124  PHE124     -0.0200
     39  CD1        3.2020  -11.8540   -9.1400 C.ar  124  PHE124     -0.0042
     40  CD2        1.3710  -10.3850   -9.5360 C.ar  124  PHE124     -0.0042
     41  CE1        3.4470  -11.2190   -7.9260 C.ar  124  PHE124     -0.0003
     42  CE2        1.6270   -9.7470   -8.3400 C.ar  124  PHE124     -0.0003
     43  CZ         2.6370  -10.1700   -7.5210 C.ar  124  PHE124     -0.0000
     44  N          0.8590  -15.9040  -15.1150 N.3   126  GLU126     -0.1245
     45  CA        -0.5920  -16.0650  -15.0420 C.3   126  GLU126      0.1567
     46  C         -0.9870  -17.1380  -14.0290 C.2   126  GLU126      0.2260
     47  O         -2.0660  -17.0930  -13.4890 O.2   126  GLU126     -0.2867
     48  CB        -1.1770  -16.3890  -16.4230 C.3   126  GLU126      0.0388
     49  CG        -0.7870  -15.3680  -17.4930 C.3   126  GLU126      0.1160
     50  CD        -1.9790  -14.7760  -18.2210 C.2   126  GLU126      0.3649
     51  OE1       -3.0080  -14.5050  -17.5580 O.co2 126  GLU126     -0.2457
     52  OE2       -1.8810  -14.5710  -19.4540 O.co2 126  GLU126     -0.2457
     53  N         10.2460   -2.0480  -15.4350 N.3   153  TYR153     -0.1241
     54  CA         8.9070   -1.6310  -15.0080 C.3   153  TYR153      0.1605
     55  C          8.0880   -2.8570  -14.6390 C.2   153  TYR153      0.2264
     56  O          8.0790   -3.8540  -15.3710 O.2   153  TYR153     -0.2867
     57  CB         8.2820   -0.8190  -16.1380 C.3   153  TYR153      0.0534
     58  CG         6.9060   -0.2570  -15.8810 C.ar  153  TYR153     -0.0201
     59  CD1        6.6880    0.6600  -14.8500 C.ar  153  TYR153     -0.0009
     60  CD2        5.8600   -0.5730  -16.7180 C.ar  153  TYR153     -0.0009
     61  CE1        5.4440    1.2000  -14.6280 C.ar  153  TYR153      0.0417
     62  CE2        4.5980   -0.0360  -16.5080 C.ar  153  TYR153      0.0417
     63  CZ         4.4000    0.8590  -15.4640 C.ar  153  TYR153      0.1957
     64  OH         3.1460    1.3980  -15.2440 O.3   153  TYR153     -0.2866
     65  N          4.6870   -4.5680  -12.1940 N.3   155  ASN155     -0.1240
     66  CA         3.5580   -4.5930  -11.2770 C.3   155  ASN155      0.1653
     67  C          3.8700   -5.3780  -10.0040 C.2   155  ASN155      0.2266
     68  O          3.5400   -4.8790   -8.9200 O.2   155  ASN155     -0.2867
     69  CB         2.3130   -5.1320  -12.0000 C.3   155  ASN155      0.1155
     70  CG         1.8380   -4.1860  -13.0720 C.2   155  ASN155      0.2627
     71  OD1        1.4140   -3.0790  -12.7670 O.2   155  ASN155     -0.2716
     72  ND2        1.9910   -4.5730  -14.3510 N.am  155  ASN155     -0.0877
     73  N        -11.9110   -4.1150  -15.5500 N.3   215  VAL215     -0.1231
     74  CA       -10.6500   -4.7250  -15.1400 C.3   215  VAL215      0.1692
     75  C        -10.8530   -6.1190  -14.5290 C.2   215  VAL215      0.2592
     76  O        -11.8270   -6.3650  -13.8170 O.2   215  VAL215     -0.2718
     77  CB        -9.9050   -3.8000  -14.1490 C.3   215  VAL215      0.0266
     78  CG1      -10.6910   -3.6440  -12.8390 C.3   215  VAL215      0.0020
     79  CG2       -8.4980   -4.3030  -13.8890 C.3   215  VAL215      0.0020
     80  N         -9.9620   -7.0390  -14.8730 N.am  216  ASN216     -0.1974
     81  CA       -10.0040   -8.3920  -14.3330 C.3   216  ASN216      0.1688
     82  C         -9.2850   -8.4340  -12.9870 C.2   216  ASN216      0.2292
     83  O         -8.3300   -7.6890  -12.7640 O.2   216  ASN216     -0.2864
     84  CB        -9.3690   -9.3800  -15.3170 C.3   216  ASN216      0.1181
     85  CG        -9.9490   -9.2690  -16.7230 C.2   216  ASN216      0.2629
     86  OD1       -9.2160   -9.1660  -17.7200 O.2   216  ASN216     -0.2716
     87  ND2      -11.2700   -9.2830  -16.8100 N.am  216  ASN216     -0.0877
     88  N         -2.6240   -1.2840  -10.0160 N.3   225  TYR225     -0.1241
     89  CA        -3.3920   -0.7000  -11.1180 C.3   225  TYR225      0.1605
     90  C         -4.8940   -0.6250  -10.8630 C.2   225  TYR225      0.2264
     91  O         -5.6630   -0.5970  -11.8020 O.2   225  TYR225     -0.2867
     92  CB        -3.1240   -1.4900  -12.4140 C.3   225  TYR225      0.0534
     93  CG        -3.3130   -2.9960  -12.3290 C.ar  225  TYR225     -0.0201
     94  CD1       -4.5700   -3.5750  -12.5140 C.ar  225  TYR225     -0.0009
     95  CD2       -2.2230   -3.8350  -12.1100 C.ar  225  TYR225     -0.0009
     96  CE1       -4.7410   -4.9530  -12.4340 C.ar  225  TYR225      0.0417
     97  CE2       -2.3850   -5.2100  -12.0230 C.ar  225  TYR225      0.0417
     98  CZ        -3.6380   -5.7520  -12.1980 C.ar  225  TYR225      0.1957
     99  OH        -3.7840   -7.1200  -12.1140 O.3   225  TYR225     -0.2866
    100  N          9.1980    1.0190  -21.1440 N.3   294  ILE294     -0.1245
    101  CA         8.1640    0.2370  -20.4750 C.3   294  ILE294      0.1561
    102  C          8.4930   -1.2490  -20.3770 C.2   294  ILE294      0.2260
    103  O          8.2190   -1.8940  -19.3550 O.2   294  ILE294     -0.2867
    104  CB         6.8010    0.4040  -21.2000 C.3   294  ILE294      0.0252
    105  CG1        6.3740    1.8730  -21.1530 C.3   294  ILE294      0.0019
    106  CG2        5.7420   -0.5250  -20.6360 C.3   294  ILE294      0.0019
    107  CD1        5.2380    2.1990  -22.1230 C.3   294  ILE294      0.0001
    108  N          2.2790   10.3510  -15.6300 N.3   314  LYS314     -0.1231
    109  CA         2.1330    8.9050  -15.5390 C.3   314  LYS314      0.1693
    110  C          1.0680    8.4400  -16.5240 C.2   314  LYS314      0.2593
    111  O          0.0080    9.0590  -16.5990 O.2   314  LYS314     -0.2718
    112  CB         1.7470    8.4590  -14.1260 C.3   314  LYS314      0.0285
    113  CG         1.7130    6.9360  -13.9490 C.3   314  LYS314      0.0035
    114  CD         3.1690    6.3800  -13.8990 C.3   314  LYS314      0.0206
    115  CE         3.1790    4.8460  -13.9090 C.3   314  LYS314      0.1093
    116  NZ         2.9560    4.3190  -15.3050 N.3   314  LYS314     -0.1314
    117  N          1.3730    7.3680  -17.2650 N.am  315  THR315     -0.1939
    118  CA         0.4120    6.6690  -18.1320 C.3   315  THR315      0.2028
    119  C         -0.2030    5.4970  -17.3900 C.2   315  THR315      0.2643
    120  O          0.3800    4.9330  -16.4590 O.2   315  THR315     -0.2714
    121  CB         1.1020    6.1240  -19.3980 C.3   315  THR315      0.1808
    122  OG1        2.1050    5.1770  -19.0130 O.3   315  THR315     -0.2208
    123  CG2        1.7960    7.2300  -20.1730 C.3   315  THR315      0.0379
    124  N         -1.3710    5.0680  -17.8260 N.am  316  GLY316     -0.1939
    125  CA        -1.9510    3.8540  -17.2740 C.3   316  GLY316      0.2014
    126  C         -2.9900    3.3370  -18.2180 C.2   316  GLY316      0.2640
    127  O         -3.6380    4.1330  -18.9090 O.2   316  GLY316     -0.2714
    128  N         -3.1530    2.0210  -18.2480 N.am  317  SER317     -0.1935
    129  CA        -4.2110    1.4150  -19.0730 C.3   317  SER317      0.2055
    130  C         -4.7280    0.1550  -18.4300 C.2   317  SER317      0.2644
    131  O         -4.0510   -0.4740  -17.6150 O.2   317  SER317     -0.2714
    132  CB        -3.7000    1.0690  -20.4830 C.3   317  SER317      0.2130
    133  OG        -2.8590    2.0770  -21.0530 O.3   317  SER317     -0.2179
    134  N         -5.9420   -0.2130  -18.8250 N.am  318  THR318     -0.1936
    135  CA        -6.4610   -1.5500  -18.5870 C.3   318  THR318      0.2028
    136  C         -6.9530   -2.0290  -19.9550 C.2   318  THR318      0.2642
    137  O         -6.8580   -1.2860  -20.9330 O.2   318  THR318     -0.2714
    138  CB        -7.6150   -1.5730  -17.5530 C.3   318  THR318      0.1808
    139  OG1       -8.6910   -0.7380  -18.0290 O.3   318  THR318     -0.2208
    140  CG2       -7.1480   -1.0500  -16.2030 C.3   318  THR318      0.0379
    141  N         -7.4950   -3.2370  -20.0460 N.am  319  ASN319     -0.1971
    142  CA        -7.9210   -3.7020  -21.3670 C.3   319  ASN319      0.1688
    143  C         -8.9390   -2.7790  -22.0500 C.2   319  ASN319      0.2292
    144  O         -8.9600   -2.6650  -23.2800 O.2   319  ASN319     -0.2864
    145  CB        -8.5110   -5.1160  -21.2970 C.3   319  ASN319      0.1181
    146  CG        -7.4650   -6.1700  -21.0120 C.2   319  ASN319      0.2629
    147  OD1       -6.2630   -5.9540  -21.2260 O.2   319  ASN319     -0.2716
    148  ND2       -7.9080   -7.3100  -20.5030 N.am  319  ASN319     -0.0877
@<TRIPOS>BOND
     1   144   143    2
     2   107   105    1
     3   143   142    1
     4   142   145    1
     5   142   141    1
     6   145   146    1
     7   147   146    2
     8   104   105    1
     9   104   106    1
    10   104   101    1
    11   100   101    1
    12   133   132    1
    13   146   148   am
    14   137   136    2
    15   132   129    1
    16   101   102    1
    17   102   103    2
    18   123   121    1
    19   141   136   am
    20   136   135    1
    21    52    50   ar
    22   121   122    1
    23   121   118    1
    24    23    21    1
    25   129   130    1
    26   129   128    1
    27   127   126    2
    28   134   135    1
    29   134   130   am
    30   135   138    1
    31    32    30   am
    32   130   131    2
    33   128   126   am
    34    50    51   ar
    35    50    49    1
    36   126   125    1
    37   118   119    1
    38   118   117    1
    39   139   138    1
    40    31    30    2
    41   124   119   am
    42   124   125    1
    43    30    29    1
    44    86    85    2
    45    21    20    1
    46    21    22    1
    47   138   140    1
    48    49    48    1
    49   119   120    2
    50    20    17    1
    51   117   110   am
    52    87    85   am
    53    85    84    1
    54    60    62   ar
    55    60    58   ar
    56    29    28    1
    57   111   110    2
    58   110   109    1
    59    62    63   ar
    60    48    45    1
    61    57    58    1
    62    57    54    1
    63    58    59   ar
    64    28    25    1
    65    17    16    1
    66    17    18    1
    67   108   109    1
    68    73    74    1
    69   109   112    1
    70    63    64    1
    71    63    61   ar
    72    53    54    1
    73    56    55    2
    74    84    81    1
    75   116   115    1
    76    24    18   am
    77    24    25    1
    78    74    75    1
    79    74    77    1
    80    18    19    2
    81    44    45    1
    82    45    46    1
    83    54    55    1
    84     6     5    1
    85    80    75   am
    86    80    81    1
    87    59    61   ar
    88    25    26    1
    89     5     2    1
    90    75    76    2
    91     1     2    1
    92    36    35    2
    93    72    70   am
    94    81    82    1
    95    27    26    2
    96    77    79    1
    97    77    78    1
    98   112   113    1
    99    46    47    2
   100   113   114    1
   101   115   114    1
   102    26    33   am
   103     2     3    1
   104    35    34    1
   105     3     4    2
   106    70    71    2
   107    70    69    1
   108    82    83    2
   109    33    34    1
   110    15    14    1
   111    94    96   ar
   112    94    93   ar
   113    96    98   ar
   114    92    93    1
   115    92    89    1
   116    34    37    1
   117    93    95   ar
   118    98    99    1
   119    98    97   ar
   120    65    66    1
   121    95    97   ar
   122    69    66    1
   123    14    13    1
   124    91    90    2
   125    13    12    1
   126    66    67    1
   127    37    38    1
   128    89    90    1
   129    89    88    1
   130    12    11    1
   131    11     8    1
   132    67    68    2
   133    38    40   ar
   134    38    39   ar
   135     7     8    1
   136    40    42   ar
   137    39    41   ar
   138     8     9    1
   139     9    10    2
   140    42    43   ar
   141    41    43   ar
