@<TRIPOS>MOLECULE
tmp/5f1gA00.pdb
 118 111 0 0 0
SMALL
GASTEIGER

@<TRIPOS>ATOM
      1  N        -34.9880    5.8640  -11.9740 N.3    61  GLY61      -0.1210
      2  CA       -34.4140    6.7340  -12.9960 C.3    61  GLY61       0.1956
      3  C        -33.1840    6.0760  -13.5950 C.2    61  GLY61       0.2612
      4  O        -33.2020    4.8790  -13.8690 O.2    61  GLY61      -0.2717
      5  N        -32.0980    6.8290  -13.7650 N.am   62  SER62      -0.1952
      6  CA       -30.9150    6.2890  -14.4430 C.3    62  SER62       0.1924
      7  C        -30.1540    5.2060  -13.6820 C.2    62  SER62       0.2314
      8  O        -29.2190    4.6240  -14.2320 O.2    62  SER62      -0.2863
      9  CB       -29.9430    7.4180  -14.7770 C.3    62  SER62       0.2116
     10  OG       -30.4670    8.2020  -15.8380 O.3    62  SER62      -0.2180
     11  N        -29.7710    2.0670  -15.5230 N.3    65  LYS65      -0.1245
     12  CA       -28.6740    1.7730  -16.4400 C.3    65  LYS65       0.1561
     13  C        -27.7100    0.7150  -15.8920 C.2    65  LYS65       0.2260
     14  O        -27.0200    0.0330  -16.6680 O.2    65  LYS65      -0.2867
     15  CB       -27.9070    3.0650  -16.7770 C.3    65  LYS65       0.0271
     16  CG       -28.7340    4.0580  -17.5840 C.3    65  LYS65       0.0035
     17  CD       -28.0050    5.4050  -17.7280 C.3    65  LYS65       0.0206
     18  CE       -28.7020    6.2970  -18.7430 C.3    65  LYS65       0.1093
     19  NZ       -29.9510    6.8830  -18.2160 N.3    65  LYS65      -0.1314
     20  N        -31.7170   12.8500  -24.8060 N.3   118  GLN118     -0.1231
     21  CA       -33.0910   12.3570  -24.8510 C.3   118  GLN118      0.1698
     22  C        -33.4630   11.7730  -26.2190 C.2   118  GLN118      0.2592
     23  O        -33.1170   12.3260  -27.2750 O.2   118  GLN118     -0.2718
     24  CB       -34.0860   13.4870  -24.5210 C.3   118  GLN118      0.0381
     25  CG       -33.9740   14.1130  -23.1400 C.3   118  GLN118      0.0905
     26  CD       -34.9060   15.3160  -22.9770 C.2   118  GLN118      0.2608
     27  OE1      -35.9000   15.4550  -23.6990 O.2   118  GLN118     -0.2717
     28  NE2      -34.5740   16.2000  -22.0380 N.am  118  GLN118     -0.0878
     29  N        -34.1860   10.6600  -26.2090 N.am  119  VAL119     -0.1980
     30  CA       -34.8470   10.2000  -27.4220 C.3   119  VAL119      0.1595
     31  C        -36.0390   11.1260  -27.6510 C.2   119  VAL119      0.2287
     32  O        -36.7600   11.4250  -26.7110 O.2   119  VAL119     -0.2864
     33  CB       -35.3300    8.7380  -27.2960 C.3   119  VAL119      0.0276
     34  CG1      -36.0960    8.3230  -28.5370 C.3   119  VAL119      0.0022
     35  CG2      -34.1470    7.8080  -27.0190 C.3   119  VAL119      0.0022
     36  N        -39.5020   12.7270  -28.0040 N.3   121  ASP121     -0.1239
     37  CA       -40.7320   12.2590  -27.3550 C.3   121  ASP121      0.1674
     38  C        -41.7430   11.6390  -28.3120 C.2   121  ASP121      0.2266
     39  O        -42.5400   10.7770  -27.9170 O.2   121  ASP121     -0.2867
     40  CB       -41.4240   13.4090  -26.6200 C.3   121  ASP121      0.1410
     41  CG       -40.6690   13.8620  -25.3980 C.2   121  ASP121      0.3668
     42  OD1      -39.8340   13.0910  -24.8880 O.co2 121  ASP121     -0.2456
     43  OD2      -40.9370   14.9900  -24.9320 O.co2 121  ASP121     -0.2456
     44  N        -22.8600   11.7080  -21.7360 N.3   148  TYR148     -0.1241
     45  CA       -23.8250   10.8970  -20.9920 C.3   148  TYR148      0.1605
     46  C        -25.2300   11.0590  -21.5750 C.2   148  TYR148      0.2264
     47  O        -25.7290   12.1810  -21.6860 O.2   148  TYR148     -0.2867
     48  CB       -23.7870   11.3010  -19.5260 C.3   148  TYR148      0.0534
     49  CG       -24.8170   10.6260  -18.6620 C.ar  148  TYR148     -0.0201
     50  CD1      -24.7110    9.2840  -18.3490 C.ar  148  TYR148     -0.0009
     51  CD2      -25.8810   11.3460  -18.1340 C.ar  148  TYR148     -0.0009
     52  CE1      -25.6410    8.6700  -17.5320 C.ar  148  TYR148      0.0417
     53  CE2      -26.8260   10.7380  -17.3160 C.ar  148  TYR148      0.0417
     54  CZ       -26.6930    9.3940  -17.0210 C.ar  148  TYR148      0.1957
     55  OH       -27.6140    8.7780  -16.2080 O.3   148  TYR148     -0.2866
     56  N        -29.2460    8.9990  -22.6820 N.3   150  ASN150     -0.1240
     57  CA       -30.1970    7.8990  -22.6900 C.3   150  ASN150      0.1653
     58  C        -30.2630    7.1790  -24.0380 C.2   150  ASN150      0.2266
     59  O        -30.4630    5.9670  -24.0760 O.2   150  ASN150     -0.2867
     60  CB       -31.5870    8.4190  -22.2910 C.3   150  ASN150      0.1155
     61  CG       -31.6150    8.9660  -20.8790 C.2   150  ASN150      0.2627
     62  OD1      -31.4870    8.2130  -19.9180 O.2   150  ASN150     -0.2716
     63  ND2      -31.7660   10.2920  -20.7420 N.am  150  ASN150     -0.0877
     64  N        -43.1870    8.7680  -13.6480 N.3   209  VAL209     -0.1245
     65  CA       -42.3770    8.9160  -14.8460 C.3   209  VAL209      0.1561
     66  C        -43.2060    8.6680  -16.1070 C.2   209  VAL209      0.2260
     67  O        -44.1180    7.8450  -16.1020 O.2   209  VAL209     -0.2867
     68  CB       -41.1690    7.9580  -14.8070 C.3   209  VAL209      0.0252
     69  CG1      -41.6310    6.4980  -14.8310 C.3   209  VAL209      0.0019
     70  CG2      -40.2010    8.2710  -15.9580 C.3   209  VAL209      0.0019
     71  N        -34.1110    4.2220  -18.0430 N.3   219  TYR219     -0.1241
     72  CA       -34.5480    4.9260  -16.8430 C.3   219  TYR219      0.1605
     73  C        -35.8650    4.4460  -16.2310 C.2   219  TYR219      0.2264
     74  O        -36.3830    5.0740  -15.3130 O.2   219  TYR219     -0.2867
     75  CB       -34.6610    6.4410  -17.1450 C.3   219  TYR219      0.0534
     76  CG       -35.5880    6.7950  -18.2870 C.ar  219  TYR219     -0.0201
     77  CD1      -36.9560    6.9360  -18.0800 C.ar  219  TYR219     -0.0009
     78  CD2      -35.0870    7.0400  -19.5630 C.ar  219  TYR219     -0.0009
     79  CE1      -37.8150    7.2680  -19.1370 C.ar  219  TYR219      0.0417
     80  CE2      -35.9350    7.3750  -20.6240 C.ar  219  TYR219      0.0417
     81  CZ       -37.2910    7.4910  -20.4030 C.ar  219  TYR219      0.1957
     82  OH       -38.1320    7.8190  -21.4500 O.3   219  TYR219     -0.2866
     83  N        -23.9120    5.0960   -8.9140 N.3   305  LYS305     -0.1231
     84  CA       -24.7530    5.6310   -9.9810 C.3   305  LYS305      0.1693
     85  C        -25.8540    6.4910   -9.3700 C.2   305  LYS305      0.2593
     86  O        -26.4820    6.0980   -8.3820 O.2   305  LYS305     -0.2718
     87  CB       -25.3810    4.5060  -10.8230 C.3   305  LYS305      0.0285
     88  CG       -26.1450    5.0130  -12.0480 C.3   305  LYS305      0.0035
     89  CD       -25.1930    5.5360  -13.1250 C.3   305  LYS305      0.0206
     90  CE       -25.9170    6.3560  -14.2050 C.3   305  LYS305      0.1093
     91  NZ       -26.2210    7.7550  -13.7570 N.3   305  LYS305     -0.1314
     92  N        -26.0870    7.6630   -9.9560 N.am  306  THR306     -0.1939
     93  CA       -27.2280    8.4920   -9.5710 C.3   306  THR306      0.2028
     94  C        -28.3920    8.2910  -10.5260 C.2   306  THR306      0.2643
     95  O        -28.2120    7.8880  -11.6680 O.2   306  THR306     -0.2714
     96  CB       -26.8670    9.9980   -9.5740 C.3   306  THR306      0.1808
     97  OG1      -26.4480   10.3750  -10.8930 O.3   306  THR306     -0.2208
     98  CG2      -25.7540   10.2650   -8.6300 C.3   306  THR306      0.0379
     99  N        -29.5990    8.5900  -10.0750 N.am  307  GLY307     -0.1939
    100  CA       -30.7250    8.5270  -10.9820 C.3   307  GLY307      0.2014
    101  C        -31.7600    9.5450  -10.5740 C.2   307  GLY307      0.2639
    102  O        -31.8750    9.8760   -9.3980 O.2   307  GLY307     -0.2714
    103  N        -32.5020   10.0470  -11.5510 N.am  308  ALA308     -0.1963
    104  CA       -33.6070   10.9540  -11.2570 C.3   308  ALA308      0.1728
    105  C        -34.7650   10.7200  -12.2080 C.2   308  ALA308      0.2617
    106  O        -34.5750   10.3020  -13.3470 O.2   308  ALA308     -0.2715
    107  CB       -33.1390   12.4160  -11.3440 C.3   308  ALA308      0.0334
    108  N        -35.9740   10.9960  -11.7330 N.am  309  THR309     -0.1937
    109  CA       -37.1230   11.1680  -12.6120 C.3   309  THR309      0.2028
    110  C        -37.7240   12.5000  -12.1960 C.2   309  THR309      0.2642
    111  O        -37.1830   13.1650  -11.3130 O.2   309  THR309     -0.2714
    112  CB       -38.1800   10.0490  -12.4870 C.3   309  THR309      0.1808
    113  OG1      -38.6610    9.9730  -11.1340 O.3   309  THR309     -0.2208
    114  CG2      -37.6150    8.6820  -12.9040 C.3   309  THR309      0.0379
    115  N        -38.8450   12.8730  -12.7940 N.am  310  GLY310     -0.1954
    116  CA       -39.4490   14.1520  -12.4580 C.3   310  GLY310      0.1869
    117  C        -39.6990   14.2690  -10.9640 C.2   310  GLY310      0.2309
    118  O        -39.4970   15.3330  -10.3620 O.2   310  GLY310     -0.2863
@<TRIPOS>BOND
     1    34    33    1
     2    38    39    2
     3    38    37    1
     4    36    37    1
     5    31    30    1
     6    31    32    2
     7    30    33    1
     8    30    29    1
     9    37    40    1
    10    33    35    1
    11    23    22    2
    12    40    41    1
    13    22    29   am
    14    22    21    1
    15    41    43   ar
    16    41    42   ar
    17    21    20    1
    18    21    24    1
    19    24    25    1
    20    59    58    2
    21    58    57    1
    22    27    26    2
    23    25    26    1
    24    26    28   am
    25    57    56    1
    26    57    60    1
    27    60    61    1
    28    44    45    1
    29    47    46    2
    30    46    45    1
    31    82    81    1
    32    45    48    1
    33    61    63   am
    34    61    62    2
    35    80    81   ar
    36    80    78   ar
    37    81    79   ar
    38    78    76   ar
    39    48    49    1
    40    79    77   ar
    41    18    19    1
    42    18    17    1
    43    49    50   ar
    44    49    51   ar
    45    50    52   ar
    46    76    77   ar
    47    76    75    1
    48    51    53   ar
    49    71    72    1
    50    17    16    1
    51    16    15    1
    52    52    54   ar
    53    53    54   ar
    54    75    72    1
    55    54    55    1
    56    72    73    1
    57    15    12    1
    58    14    13    2
    59    12    13    1
    60    12    11    1
    61    73    74    2
    62    66    67    2
    63    66    65    1
    64    70    68    1
    65    10     9    1
    66    65    68    1
    67    65    64    1
    68    69    68    1
    69     9     6    1
    70     6     5    1
    71     6     7    1
    72     8     7    2
    73    90    91    1
    74    90    89    1
    75     4     3    2
    76     5     3   am
    77     3     2    1
    78   106   105    2
    79    89    88    1
    80     2     1    1
    81   114   112    1
    82   115   116    1
    83   115   110   am
    84   109   112    1
    85   109   110    1
    86   109   108    1
    87   112   113    1
    88   116   117    1
    89   105   108   am
    90   105   104    1
    91   110   111    2
    92    88    87    1
    93    95    94    2
    94   103   104    1
    95   103   101   am
    96   107   104    1
    97   100   101    1
    98   100    99    1
    99   117   118    2
   100    97    96    1
   101    87    84    1
   102   101   102    2
   103    94    99   am
   104    94    93    1
   105    84    85    1
   106    84    83    1
   107    92    93    1
   108    92    85   am
   109    96    93    1
   110    96    98    1
   111    85    86    2
