@<TRIPOS>MOLECULE
tmp/5f1hB00.pdb
 123 124 0 0 0
SMALL
GASTEIGER

@<TRIPOS>ATOM
      1  N         -5.6200   40.7510   12.2390 N.3    22  HIS22      -0.1226
      2  CA        -6.5800   41.5180   11.4320 C.3    22  HIS22       0.1752
      3  C         -6.1200   41.7890    9.9790 C.2    22  HIS22       0.2597
      4  O         -6.8870   42.3400    9.1880 O.2    22  HIS22      -0.2718
      5  CB        -6.9720   42.8240   12.1400 C.3    22  HIS22       0.0759
      6  CG        -7.6180   42.6110   13.4700 C.ar   22  HIS22       0.0818
      7  ND1       -8.9290   42.1730   13.5750 N.ar   22  HIS22      -0.2268
      8  CD2       -7.1040   42.7530   14.7130 C.ar   22  HIS22       0.1154
      9  CE1       -9.1770   42.0910   14.8720 C.ar   22  HIS22       0.1986
     10  NE2       -8.1040   42.4070   15.5960 N.ar   22  HIS22      -0.2212
     11  N         -4.8990   41.3860    9.6470 N.am   23  GLY23      -0.1942
     12  CA        -4.3380   41.5330    8.3080 C.3    23  GLY23       0.2014
     13  C         -4.0820   42.9540    7.8390 C.2    23  GLY23       0.2639
     14  O         -4.1550   43.2250    6.6330 O.2    23  GLY23      -0.2714
     15  N         -3.7400   43.8730    8.7720 N.am   24  PHE24      -0.1959
     16  CA        -3.4210   45.2680    8.4190 C.3    24  PHE24       0.1771
     17  C         -2.1840   45.3530    7.5160 C.2    24  PHE24       0.2619
     18  O         -2.0930   46.2530    6.6820 O.2    24  PHE24      -0.2715
     19  CB        -3.2040   46.1280    9.6790 C.3    24  PHE24       0.0574
     20  CG        -4.3890   46.2040   10.6140 C.ar   24  PHE24      -0.0200
     21  CD1       -5.6710   46.4390   10.1260 C.ar   24  PHE24      -0.0042
     22  CD2       -4.2170   46.0830   11.9890 C.ar   24  PHE24      -0.0042
     23  CE1       -6.7630   46.5240   10.9930 C.ar   24  PHE24      -0.0003
     24  CE2       -5.3110   46.1600   12.8530 C.ar   24  PHE24      -0.0003
     25  CZ        -6.5740   46.4000   12.3510 C.ar   24  PHE24      -0.0000
     26  N         -1.2530   44.3950    7.6730 N.am   25  PHE25      -0.1974
     27  CA         0.0030   44.3170    6.9240 C.3    25  PHE25       0.1639
     28  C          0.0080   43.2670    5.8120 C.2    25  PHE25       0.2290
     29  O          1.0430   43.0580    5.1790 O.2    25  PHE25      -0.2864
     30  CB         1.1680   44.0960    7.9030 C.3    25  PHE25       0.0560
     31  CG         1.3840   45.2760    8.8250 C.ar   25  PHE25      -0.0200
     32  CD1        1.9880   46.4400    8.3610 C.ar   25  PHE25      -0.0042
     33  CD2        0.9730   45.2260   10.1530 C.ar   25  PHE25      -0.0042
     34  CE1        2.1720   47.5350    9.2050 C.ar   25  PHE25      -0.0003
     35  CE2        1.1710   46.3160   11.0020 C.ar   25  PHE25      -0.0003
     36  CZ         1.7560   47.4700   10.5190 C.ar   25  PHE25      -0.0000
     37  N         -1.6220   43.3130    2.8270 N.3    27  PHE27      -0.1228
     38  CA        -1.6790   43.8710    1.4700 C.3    27  PHE27       0.1721
     39  C         -1.1520   45.3030    1.3980 C.2    27  PHE27       0.2437
     40  O         -1.0750   45.9500    2.4400 O.2    27  PHE27      -0.2733
     41  CB        -3.1280   43.8310    0.9530 C.3    27  PHE27       0.0547
     42  CG        -3.6500   42.4300    0.7950 C.ar   27  PHE27      -0.0202
     43  CD1       -3.3310   41.6750   -0.3290 C.ar   27  PHE27      -0.0042
     44  CD2       -4.4270   41.8460    1.7880 C.ar   27  PHE27      -0.0042
     45  CE1       -3.7790   40.3590   -0.4540 C.ar   27  PHE27      -0.0003
     46  CE2       -4.8540   40.5220    1.6720 C.ar   27  PHE27      -0.0003
     47  CZ        -4.5480   39.7970    0.5410 C.ar   27  PHE27      -0.0000
     48  N         -0.8500   45.8480    0.1900 N.am   28  PRO28      -0.2718
     49  CA        -0.3670   47.2410    0.1230 C.3    28  PRO28       0.1535
     50  C         -1.4470   48.2450    0.5260 C.2    28  PRO28       0.2598
     51  O         -2.6250   48.0270    0.2540 O.2    28  PRO28      -0.2715
     52  CB         0.0230   47.4170   -1.3490 C.3    28  PRO28       0.0310
     53  CG         0.1480   46.0260   -1.9100 C.3    28  PRO28       0.0237
     54  CD        -0.8660   45.2240   -1.1520 C.3    28  PRO28       0.0939
     55  N         -1.0390   49.3310    1.1820 N.am   29  VAL29      -0.1978
     56  CA        -1.9230   50.4160    1.6170 C.3    29  VAL29       0.1596
     57  C         -2.2030   51.2970    0.3880 C.2    29  VAL29       0.2287
     58  O         -1.2630   51.7670   -0.2530 O.2    29  VAL29      -0.2864
     59  CB        -1.2840   51.2520    2.7690 C.3    29  VAL29       0.0276
     60  CG1       -2.2370   52.3390    3.2540 C.3    29  VAL29       0.0022
     61  CG2       -0.8510   50.3660    3.9330 C.3    29  VAL29       0.0022
     62  N         -7.6980   54.5390    1.0120 N.3    33  ILE33      -0.1231
     63  CA        -7.8800   54.3290    2.4580 C.3    33  ILE33       0.1692
     64  C         -6.8920   55.1580    3.2980 C.2    33  ILE33       0.2591
     65  O         -7.1150   55.3430    4.4940 O.2    33  ILE33      -0.2718
     66  CB        -7.8600   52.8270    2.8550 C.3    33  ILE33       0.0266
     67  CG1       -6.4590   52.1900    2.6430 C.3    33  ILE33       0.0019
     68  CG2       -8.9750   52.0500    2.1560 C.3    33  ILE33       0.0020
     69  CD1       -6.2890   50.7720    3.2710 C.3    33  ILE33       0.0001
     70  N         -5.7940   55.6310    2.6820 N.am   34  ALA34      -0.1980
     71  CA        -4.7970   56.4330    3.3850 C.3    34  ALA34       0.1597
     72  C         -4.3530   57.6100    2.5010 C.2    34  ALA34       0.2287
     73  O         -3.3620   57.5020    1.7720 O.2    34  ALA34      -0.2864
     74  CB        -3.6250   55.5660    3.8090 C.3    34  ALA34       0.0319
     75  N         -0.6880   58.6090    1.0000 N.3    37  TYR37      -0.1241
     76  CA         0.2220   57.4940    1.2920 C.3    37  TYR37       0.1605
     77  C          1.3520   57.3310    0.2600 C.2    37  TYR37       0.2264
     78  O          2.5060   57.1870    0.6550 O.2    37  TYR37      -0.2867
     79  CB        -0.5510   56.1710    1.4590 C.3    37  TYR37       0.0534
     80  CG         0.2530   55.1100    2.1700 C.ar   37  TYR37      -0.0201
     81  CD1        0.2660   55.0330    3.5600 C.ar   37  TYR37      -0.0009
     82  CD2        1.0650   54.2300    1.4570 C.ar   37  TYR37      -0.0009
     83  CE1        1.0180   54.0660    4.2230 C.ar   37  TYR37       0.0417
     84  CE2        1.8350   53.2700    2.1120 C.ar   37  TYR37       0.0417
     85  CZ         1.8150   53.2010    3.4950 C.ar   37  TYR37       0.1957
     86  OH         2.5830   52.2820    4.1550 O.3    37  TYR37      -0.2866
     87  N          4.8390   52.2320    8.4290 N.3    76  ALA76      -0.1245
     88  CA         3.6760   52.3900    9.3020 C.3    76  ALA76       0.1562
     89  C          3.9260   53.3900   10.4240 C.2    76  ALA76       0.2260
     90  O          3.0190   54.1340   10.7840 O.2    76  ALA76      -0.2867
     91  CB         3.2510   51.0430    9.8650 C.3    76  ALA76       0.0290
     92  N          4.0390   57.1180    8.4680 N.3    79  TYR79      -0.1227
     93  CA         2.7580   57.6380    7.9990 C.3    79  TYR79       0.1736
     94  C          1.7620   57.8610    9.1440 C.2    79  TYR79       0.2595
     95  O          1.0900   58.8910    9.1740 O.2    79  TYR79      -0.2718
     96  CB         2.1620   56.7090    6.9050 C.3    79  TYR79       0.0548
     97  CG         0.8240   57.1900    6.3870 C.ar   79  TYR79      -0.0200
     98  CD1        0.7460   58.1660    5.3970 C.ar   79  TYR79      -0.0009
     99  CD2       -0.3700   56.7050    6.9240 C.ar   79  TYR79      -0.0009
    100  CE1       -0.4840   58.6580    4.9600 C.ar   79  TYR79       0.0417
    101  CE2       -1.6050   57.1910    6.4960 C.ar   79  TYR79       0.0417
    102  CZ        -1.6570   58.1540    5.5000 C.ar   79  TYR79       0.1957
    103  OH        -2.8690   58.6360    5.0660 O.3    79  TYR79      -0.2866
    104  N          1.6540   56.8900   10.0600 N.am   80  ASN80      -0.1974
    105  CA         0.6780   56.9160   11.1520 C.3    80  ASN80       0.1688
    106  C          1.1810   57.5750   12.4190 C.2    80  ASN80       0.2292
    107  O          2.3580   57.4580   12.7620 O.2    80  ASN80      -0.2864
    108  CB         0.1900   55.4990   11.4550 C.3    80  ASN80       0.1181
    109  CG        -0.3760   54.7860   10.2530 C.2    80  ASN80       0.2629
    110  OD1       -1.4920   55.0620    9.8090 O.2    80  ASN80      -0.2716
    111  ND2        0.4030   53.8870    9.6750 N.am   80  ASN80      -0.0877
    112  N         -2.0240   51.1260   13.8670 N.3    86  TYR86      -0.1241
    113  CA        -0.9750   50.7970   12.8960 C.3    86  TYR86       0.1605
    114  C          0.4220   51.0740   13.4180 C.2    86  TYR86       0.2264
    115  O          1.2830   50.2030   13.2920 O.2    86  TYR86      -0.2867
    116  CB        -1.2380   51.4790   11.5440 C.3    86  TYR86       0.0534
    117  CG        -2.6830   51.3460   11.1100 C.ar   86  TYR86      -0.0201
    118  CD1       -3.2460   50.0940   10.8700 C.ar   86  TYR86      -0.0009
    119  CD2       -3.5080   52.4620   11.0100 C.ar   86  TYR86      -0.0009
    120  CE1       -4.5910   49.9580   10.5320 C.ar   86  TYR86       0.0417
    121  CE2       -4.8530   52.3400   10.6580 C.ar   86  TYR86       0.0417
    122  CZ        -5.3900   51.0840   10.4220 C.ar   86  TYR86       0.1957
    123  OH        -6.7080   50.9450   10.0650 O.3    86  TYR86      -0.2866
@<TRIPOS>BOND
     1    53    52    1
     2    53    54    1
     3    52    49    1
     4    54    48    1
     5    45    43   ar
     6    45    47   ar
     7    43    42   ar
     8    58    57    2
     9    49    48    1
    10    49    50    1
    11    48    39   am
    12    51    50    2
    13    77    78    2
    14    77    76    1
    15    57    56    1
    16    50    55   am
    17    47    46   ar
    18    42    41    1
    19    42    44   ar
    20    41    38    1
    21    75    76    1
    22    62    63    1
    23    55    56    1
    24    76    79    1
    25    39    38    1
    26    39    40    2
    27    82    84   ar
    28    82    80   ar
    29    79    80    1
    30    38    37    1
    31    56    59    1
    32    46    44   ar
    33    73    72    2
    34    84    85   ar
    35    68    66    1
    36    80    81   ar
    37    63    66    1
    38    63    64    1
    39    72    71    1
    40    67    66    1
    41    67    69    1
    42    70    64   am
    43    70    71    1
    44    59    60    1
    45    59    61    1
    46    64    65    2
    47    71    74    1
    48    85    86    1
    49    85    83   ar
    50    81    83   ar
    51   100    98   ar
    52   100   102   ar
    53   103   102    1
    54    29    28    2
    55    98    97   ar
    56   102   101   ar
    57    28    27    1
    58    97    96    1
    59    97    99   ar
    60   101    99   ar
    61    14    13    2
    62    18    17    2
    63    96    93    1
    64    27    26    1
    65    27    30    1
    66    17    26   am
    67    17    16    1
    68    13    12    1
    69    13    15   am
    70    30    31    1
    71    93    92    1
    72    93    94    1
    73    12    11    1
    74    32    31   ar
    75    32    34   ar
    76    16    15    1
    77    16    19    1
    78    87    88    1
    79    31    33   ar
    80    94    95    2
    81    94   104   am
    82     4     3    2
    83    34    36   ar
    84    88    91    1
    85    88    89    1
    86    11     3   am
    87   111   109   am
    88    19    20    1
    89   110   109    2
    90     3     2    1
    91   104   105    1
    92   123   122    1
    93    21    20   ar
    94    21    23   ar
    95    33    35   ar
    96   109   108    1
    97   122   120   ar
    98   122   121   ar
    99    89    90    2
   100    36    35   ar
   101   120   118   ar
   102    20    22   ar
   103   121   119   ar
   104   118   117   ar
   105    23    25   ar
   106   119   117   ar
   107   117   116    1
   108   105   108    1
   109   105   106    1
   110     2     5    1
   111     2     1    1
   112   116   113    1
   113    22    24   ar
   114     5     6    1
   115    25    24   ar
   116   106   107    2
   117   113   114    1
   118   113   112    1
   119   115   114    2
   120     6     7   ar
   121     6     8   ar
   122     7     9   ar
   123     8    10   ar
   124     9    10   ar
