@<TRIPOS>MOLECULE
tmp/5f1lB00.pdb
 123 124 0 0 0
SMALL
GASTEIGER

@<TRIPOS>ATOM
      1  N         -5.9110   41.0030   11.7720 N.3    22  HIS22      -0.1226
      2  CA        -6.8520   41.7780   10.9550 C.3    22  HIS22       0.1752
      3  C         -6.3490   42.0500    9.5320 C.2    22  HIS22       0.2597
      4  O         -7.0840   42.6130    8.7220 O.2    22  HIS22      -0.2718
      5  CB        -7.2940   43.0660   11.6810 C.3    22  HIS22       0.0759
      6  CG        -7.9170   42.7730   13.0120 C.ar   22  HIS22       0.0818
      7  ND1       -7.2900   43.1270   14.1950 N.ar   22  HIS22      -0.2268
      8  CD2       -9.0310   42.0570   13.3080 C.ar   22  HIS22       0.1154
      9  CE1       -8.0640   42.6630   15.1670 C.ar   22  HIS22       0.1986
     10  NE2       -9.1200   42.0100   14.6830 N.ar   22  HIS22      -0.2212
     11  N         -5.1530   41.5650    9.2200 N.am   23  GLY23      -0.1942
     12  CA        -4.5700   41.6800    7.8910 C.3    23  GLY23       0.2014
     13  C         -4.2080   43.0780    7.4250 C.2    23  GLY23       0.2639
     14  O         -4.1550   43.3140    6.2140 O.2    23  GLY23      -0.2714
     15  N         -3.9000   44.0020    8.3670 N.am   24  PHE24      -0.1959
     16  CA        -3.4720   45.3660    8.0320 C.3    24  PHE24       0.1771
     17  C         -2.1950   45.4120    7.2190 C.2    24  PHE24       0.2619
     18  O         -2.0420   46.3210    6.4100 O.2    24  PHE24      -0.2715
     19  CB        -3.3560   46.2670    9.2710 C.3    24  PHE24       0.0574
     20  CG        -4.6850   46.5590    9.9200 C.ar   24  PHE24      -0.0200
     21  CD1       -5.7490   47.0610    9.1750 C.ar   24  PHE24      -0.0042
     22  CD2       -4.8790   46.3270   11.2770 C.ar   24  PHE24      -0.0042
     23  CE1       -6.9880   47.3230    9.7790 C.ar   24  PHE24      -0.0003
     24  CE2       -6.1190   46.5800   11.8780 C.ar   24  PHE24      -0.0003
     25  CZ        -7.1610   47.0820   11.1260 C.ar   24  PHE24      -0.0000
     26  N         -1.3110   44.4100    7.3890 N.am   25  PHE25      -0.1974
     27  CA        -0.0280   44.2980    6.6870 C.3    25  PHE25       0.1639
     28  C          0.0000   43.2120    5.6260 C.2    25  PHE25       0.2290
     29  O          1.0410   43.0100    4.9950 O.2    25  PHE25      -0.2864
     30  CB         1.1120   44.0920    7.6950 C.3    25  PHE25       0.0560
     31  CG         1.3330   45.2710    8.6100 C.ar   25  PHE25      -0.0200
     32  CD1        2.0540   46.3820    8.1780 C.ar   25  PHE25      -0.0042
     33  CD2        0.8360   45.2660    9.9070 C.ar   25  PHE25      -0.0042
     34  CE1        2.2570   47.4790    9.0230 C.ar   25  PHE25      -0.0003
     35  CE2        1.0290   46.3670   10.7540 C.ar   25  PHE25      -0.0003
     36  CZ         1.7340   47.4670   10.3070 C.ar   25  PHE25      -0.0000
     37  N         -1.6130   43.1040    2.6530 N.3    27  PHE27      -0.1228
     38  CA        -1.5730   43.6510    1.2940 C.3    27  PHE27       0.1721
     39  C         -1.1370   45.1170    1.2710 C.2    27  PHE27       0.2437
     40  O         -1.0920   45.7320    2.3400 O.2    27  PHE27      -0.2733
     41  CB        -2.9190   43.4130    0.5760 C.3    27  PHE27       0.0547
     42  CG        -3.2530   41.9420    0.4720 C.ar   27  PHE27      -0.0202
     43  CD1       -2.6250   41.1340   -0.4720 C.ar   27  PHE27      -0.0042
     44  CD2       -4.1460   41.3500    1.3590 C.ar   27  PHE27      -0.0042
     45  CE1       -2.8960   39.7660   -0.5360 C.ar   27  PHE27      -0.0003
     46  CE2       -4.4080   39.9790    1.3000 C.ar   27  PHE27      -0.0003
     47  CZ        -3.7820   39.1980    0.3540 C.ar   27  PHE27      -0.0000
     48  N         -0.7430   45.6960    0.0970 N.am   28  PRO28      -0.2718
     49  CA        -0.3140   47.1040    0.0880 C.3    28  PRO28       0.1535
     50  C         -1.3900   48.0860    0.5380 C.2    28  PRO28       0.2598
     51  O         -2.5730   47.8290    0.3420 O.2    28  PRO28      -0.2715
     52  CB         0.0620   47.3520   -1.3790 C.3    28  PRO28       0.0310
     53  CG         0.3040   45.9950   -1.9570 C.3    28  PRO28       0.0237
     54  CD        -0.6760   45.1190   -1.2620 C.3    28  PRO28       0.0939
     55  N         -0.9680   49.2070    1.1580 N.am   29  VAL29      -0.1978
     56  CA        -1.8620   50.2870    1.5770 C.3    29  VAL29       0.1596
     57  C         -2.2180   51.0720    0.2930 C.2    29  VAL29       0.2287
     58  O         -1.3300   51.3390   -0.5240 O.2    29  VAL29      -0.2864
     59  CB        -1.2170   51.2310    2.6360 C.3    29  VAL29       0.0276
     60  CG1       -2.2190   52.2630    3.1240 C.3    29  VAL29       0.0022
     61  CG2       -0.6270   50.4590    3.8130 C.3    29  VAL29       0.0022
     62  N         -7.7080   54.4440    0.8930 N.3    33  ILE33      -0.1231
     63  CA        -7.8070   54.1160    2.3110 C.3    33  ILE33       0.1692
     64  C         -6.8680   55.0250    3.1600 C.2    33  ILE33       0.2591
     65  O         -7.1550   55.2780    4.3310 O.2    33  ILE33      -0.2718
     66  CB        -7.5760   52.5740    2.4690 C.3    33  ILE33       0.0266
     67  CG1       -8.9230   51.8370    2.6720 C.3    33  ILE33       0.0019
     68  CG2       -6.5320   52.1870    3.5360 C.3    33  ILE33       0.0020
     69  CD1       -8.9480   50.3300    2.2610 C.3    33  ILE33       0.0001
     70  N         -5.7620   55.5210    2.5620 N.am   34  ALA34      -0.1980
     71  CA        -4.7950   56.3850    3.2470 C.3    34  ALA34       0.1597
     72  C         -4.3360   57.5340    2.3410 C.2    34  ALA34       0.2287
     73  O         -3.2940   57.4230    1.6980 O.2    34  ALA34      -0.2864
     74  CB        -3.6100   55.5690    3.7390 C.3    34  ALA34       0.0319
     75  N         -0.5810   58.5480    0.9250 N.3    37  TYR37      -0.1241
     76  CA         0.3020   57.4060    1.1590 C.3    37  TYR37       0.1605
     77  C          1.4140   57.2370    0.1080 C.2    37  TYR37       0.2264
     78  O          2.5810   57.1930    0.4850 O.2    37  TYR37      -0.2867
     79  CB        -0.4920   56.0990    1.3220 C.3    37  TYR37       0.0534
     80  CG         0.3200   55.0440    2.0240 C.ar   37  TYR37      -0.0201
     81  CD1        0.3360   54.9640    3.4130 C.ar   37  TYR37      -0.0009
     82  CD2        1.1200   54.1530    1.3030 C.ar   37  TYR37      -0.0009
     83  CE1        1.1170   54.0270    4.0700 C.ar   37  TYR37       0.0417
     84  CE2        1.9040   53.2040    1.9530 C.ar   37  TYR37       0.0417
     85  CZ         1.8980   53.1470    3.3390 C.ar   37  TYR37       0.1957
     86  OH         2.6850   52.2590    4.0230 O.3    37  TYR37      -0.2866
     87  N          4.7420   52.2730    8.4100 N.3    76  ALA76      -0.1245
     88  CA         3.5930   52.3880    9.2960 C.3    76  ALA76       0.1562
     89  C          3.8770   53.3610   10.4430 C.2    76  ALA76       0.2260
     90  O          2.9610   54.0600   10.8780 O.2    76  ALA76      -0.2867
     91  CB         3.2070   51.0150    9.8330 C.3    76  ALA76       0.0290
     92  N          4.0150   57.0710    8.4080 N.3    79  TYR79      -0.1227
     93  CA         2.7350   57.5720    7.9200 C.3    79  TYR79       0.1736
     94  C          1.7300   57.8280    9.0320 C.2    79  TYR79       0.2595
     95  O          1.0010   58.8200    8.9710 O.2    79  TYR79      -0.2718
     96  CB         2.1300   56.6210    6.8590 C.3    79  TYR79       0.0548
     97  CG         0.8070   57.1170    6.3120 C.ar   79  TYR79      -0.0200
     98  CD1        0.7630   58.0150    5.2490 C.ar   79  TYR79      -0.0009
     99  CD2       -0.4010   56.7470    6.9070 C.ar   79  TYR79      -0.0009
    100  CE1       -0.4510   58.5300    4.7860 C.ar   79  TYR79       0.0417
    101  CE2       -1.6150   57.2770    6.4700 C.ar   79  TYR79       0.0417
    102  CZ        -1.6370   58.1500    5.3940 C.ar   79  TYR79       0.1957
    103  OH        -2.8330   58.6400    4.9280 O.3    79  TYR79      -0.2866
    104  N          1.6460   56.9140   10.0110 N.am   80  ASN80      -0.1974
    105  CA         0.6680   56.9980   11.0950 C.3    80  ASN80       0.1688
    106  C          1.2380   57.6120   12.3490 C.2    80  ASN80       0.2292
    107  O          2.4450   57.5230   12.6110 O.2    80  ASN80      -0.2864
    108  CB         0.0840   55.6170   11.4010 C.3    80  ASN80       0.1181
    109  CG        -0.4520   54.8860   10.1960 C.2    80  ASN80       0.2629
    110  OD1       -1.5940   55.0810    9.7760 O.2    80  ASN80      -0.2716
    111  ND2        0.3820   54.0690    9.5800 N.am   80  ASN80      -0.0877
    112  N         -2.1810   51.2060   13.6480 N.3    86  TYR86      -0.1241
    113  CA        -1.1310   50.8430   12.6920 C.3    86  TYR86       0.1605
    114  C          0.2730   51.0180   13.2470 C.2    86  TYR86       0.2264
    115  O          1.1090   50.1510   13.0310 O.2    86  TYR86      -0.2867
    116  CB        -1.3170   51.5780   11.3540 C.3    86  TYR86       0.0534
    117  CG        -2.7440   51.5150   10.8350 C.ar   86  TYR86      -0.0201
    118  CD1       -3.3500   50.2940   10.5500 C.ar   86  TYR86      -0.0009
    119  CD2       -3.4820   52.6770   10.6210 C.ar   86  TYR86      -0.0009
    120  CE1       -4.6550   50.2300   10.0660 C.ar   86  TYR86       0.0417
    121  CE2       -4.7870   52.6250   10.1280 C.ar   86  TYR86       0.0417
    122  CZ        -5.3690   51.3980    9.8540 C.ar   86  TYR86       0.1957
    123  OH        -6.6570   51.3300    9.3850 O.3    86  TYR86      -0.2866
@<TRIPOS>BOND
     1    53    52    1
     2    53    54    1
     3    52    49    1
     4    54    48    1
     5    45    43   ar
     6    45    47   ar
     7    58    57    2
     8    43    42   ar
     9    49    48    1
    10    49    50    1
    11    48    39   am
    12    77    78    2
    13    77    76    1
    14    57    56    1
    15    51    50    2
    16    47    46   ar
    17    42    41    1
    18    42    44   ar
    19    50    55   am
    20    41    38    1
    21    62    63    1
    22    75    76    1
    23    55    56    1
    24    76    79    1
    25    39    38    1
    26    39    40    2
    27    38    37    1
    28    46    44   ar
    29    82    84   ar
    30    82    80   ar
    31    79    80    1
    32    56    59    1
    33    73    72    2
    34    84    85   ar
    35    80    81   ar
    36    69    67    1
    37    63    66    1
    38    63    64    1
    39    72    71    1
    40    66    67    1
    41    66    68    1
    42    70    64   am
    43    70    71    1
    44    59    60    1
    45    59    61    1
    46    64    65    2
    47    71    74    1
    48    85    86    1
    49    85    83   ar
    50    81    83   ar
    51   100    98   ar
    52   100   102   ar
    53   103   102    1
    54    29    28    2
    55    98    97   ar
    56   102   101   ar
    57    28    27    1
    58    14    13    2
    59    97    96    1
    60    97    99   ar
    61    18    17    2
    62   101    99   ar
    63    27    26    1
    64    27    30    1
    65    96    93    1
    66    17    26   am
    67    17    16    1
    68    13    12    1
    69    13    15   am
    70    30    31    1
    71    12    11    1
    72    93    92    1
    73    93    94    1
    74    16    15    1
    75    16    19    1
    76    32    31   ar
    77    32    34   ar
    78    87    88    1
    79    31    33   ar
    80     4     3    2
    81    95    94    2
    82    34    36   ar
    83    94   104   am
    84    21    23   ar
    85    21    20   ar
    86    11     3   am
    87    19    20    1
    88    88    91    1
    89    88    89    1
    90   123   122    1
    91     3     2    1
    92   111   109   am
    93   110   109    2
    94    23    25   ar
    95   122   120   ar
    96   122   121   ar
    97    33    35   ar
    98    20    22   ar
    99   104   105    1
   100   120   118   ar
   101   121   119   ar
   102   109   108    1
   103    36    35   ar
   104    89    90    2
   105   118   117   ar
   106   119   117   ar
   107   117   116    1
   108     2     5    1
   109     2     1    1
   110   105   108    1
   111   105   106    1
   112    25    24   ar
   113    22    24   ar
   114   116   113    1
   115     5     6    1
   116   106   107    2
   117   113   114    1
   118   113   112    1
   119     6     8   ar
   120     6     7   ar
   121   115   114    2
   122     8    10   ar
   123     7     9   ar
   124    10     9   ar
