@<TRIPOS>MOLECULE
tmp/5f1qA01.pdb
 137 136 0 0 0
SMALL
GASTEIGER

@<TRIPOS>ATOM
      1  N         43.5820  -30.0390    4.9010 N.3    20  THR20      -0.1203
      2  CA        44.6320  -30.9560    5.3540 C.3    20  THR20       0.1994
      3  C         46.0260  -30.7470    4.7580 C.2    20  THR20       0.2619
      4  O         46.9700  -31.4440    5.1510 O.2    20  THR20      -0.2717
      5  CB        44.2330  -32.4110    5.0590 C.3    20  THR20       0.1784
      6  OG1       44.1730  -32.6080    3.6420 O.3    20  THR20      -0.2211
      7  CG2       42.8830  -32.7240    5.6640 C.3    20  THR20       0.0376
      8  N         46.1900  -29.8180    3.8160 N.am   21  SER21      -0.1937
      9  CA        47.4910  -29.7060    3.1440 C.3    21  SER21       0.2055
     10  C         48.4780  -28.7880    3.8850 C.2    21  SER21       0.2643
     11  O         48.0950  -27.7690    4.4870 O.2    21  SER21      -0.2714
     12  CB        47.3230  -29.2130    1.6960 C.3    21  SER21       0.2130
     13  OG        47.2200  -27.7960    1.6270 O.3    21  SER21      -0.2179
     14  N         49.7540  -29.1630    3.8380 N.am   22  GLY22      -0.1954
     15  CA        50.8210  -28.3280    4.3760 C.3    22  GLY22       0.1869
     16  C         50.8380  -26.9600    3.6990 C.2    22  GLY22       0.2309
     17  O         51.2020  -25.9590    4.3020 O.2    22  GLY22      -0.2863
     18  N         48.4160  -24.9470    5.6230 N.3    25  TYR25      -0.1241
     19  CA        48.8360  -24.7120    6.9920 C.3    25  TYR25       0.1605
     20  C         49.9570  -23.6660    7.0590 C.2    25  TYR25       0.2264
     21  O         49.9440  -22.7980    7.9400 O.2    25  TYR25      -0.2867
     22  CB        49.2870  -26.0210    7.6540 C.3    25  TYR25       0.0534
     23  CG        48.1240  -26.9580    7.9650 C.ar   25  TYR25      -0.0201
     24  CD1       46.8100  -26.5000    7.9330 C.ar   25  TYR25      -0.0009
     25  CD2       48.3470  -28.2950    8.2860 C.ar   25  TYR25      -0.0009
     26  CE1       45.7500  -27.3480    8.2280 C.ar   25  TYR25       0.0417
     27  CE2       47.3030  -29.1520    8.5770 C.ar   25  TYR25       0.0417
     28  CZ        46.0060  -28.6750    8.5430 C.ar   25  TYR25       0.1957
     29  OH        44.9690  -29.5190    8.8450 O.3    25  TYR25      -0.2866
     30  N         40.2870  -33.5270    9.4890 N.3   113  TYR113     -0.1241
     31  CA        41.0180  -34.0440   10.6520 C.3   113  TYR113      0.1605
     32  C         40.1310  -34.3890   11.8360 C.2   113  TYR113      0.2264
     33  O         40.2230  -35.4860   12.4040 O.2   113  TYR113     -0.2867
     34  CB        42.0370  -33.0350   11.1260 C.3   113  TYR113      0.0534
     35  CG        43.4000  -33.1740   10.5150 C.ar  113  TYR113     -0.0201
     36  CD1       44.3240  -34.0650   11.0360 C.ar  113  TYR113     -0.0009
     37  CD2       43.7810  -32.3760    9.4370 C.ar  113  TYR113     -0.0009
     38  CE1       45.5990  -34.1740   10.4810 C.ar  113  TYR113      0.0417
     39  CE2       45.0400  -32.4790    8.8800 C.ar  113  TYR113      0.0417
     40  CZ        45.9490  -33.3640    9.4070 C.ar  113  TYR113      0.1957
     41  OH        47.2160  -33.4370    8.8500 O.3   113  TYR113     -0.2866
     42  N         60.9380  -28.1920   -1.4170 N.3   233  TYR233     -0.1241
     43  CA        60.8620  -29.2270   -2.4660 C.3   233  TYR233      0.1605
     44  C         61.6490  -28.9140   -3.7380 C.2   233  TYR233      0.2264
     45  O         61.0760  -28.7990   -4.8220 O.2   233  TYR233     -0.2867
     46  CB        59.3880  -29.5030   -2.8220 C.3   233  TYR233      0.0534
     47  CG        58.4850  -29.3850   -1.6150 C.ar  233  TYR233     -0.0201
     48  CD1       58.8220  -30.0150   -0.4080 C.ar  233  TYR233     -0.0009
     49  CD2       57.3290  -28.6100   -1.6530 C.ar  233  TYR233     -0.0009
     50  CE1       58.0380  -29.8850    0.7120 C.ar  233  TYR233      0.0417
     51  CE2       56.5230  -28.4820   -0.5230 C.ar  233  TYR233      0.0417
     52  CZ        56.8940  -29.1170    0.6570 C.ar  233  TYR233      0.1957
     53  OH        56.1320  -29.0000    1.8040 O.3   233  TYR233     -0.2866
     54  N         55.2220  -32.2690   -3.4220 N.3   344  ARG344     -0.1231
     55  CA        54.9340  -32.5610   -2.0130 C.3   344  ARG344      0.1679
     56  C         56.2250  -32.9960   -1.3140 C.2   344  ARG344      0.2434
     57  O         57.1400  -33.4800   -1.9740 O.2   344  ARG344     -0.2733
     58  CB        53.8830  -33.6820   -1.8850 C.3   344  ARG344      0.0321
     59  CG        52.5490  -33.4170   -2.5660 C.3   344  ARG344      0.0489
     60  CD        52.0850  -31.9960   -2.3420 C.3   344  ARG344      0.2205
     61  NE        51.8590  -31.6560   -0.9310 N.pl3 344  ARG344     -0.0865
     62  CZ        52.2180  -30.5000   -0.3630 C.cat 344  ARG344      0.5346
     63  NH1       51.8980  -30.2550    0.9030 N.pl3 344  ARG344      0.1354
     64  NH2       52.8910  -29.5760   -1.0600 N.pl3 344  ARG344      0.1354
     65  N         56.2870  -32.8950    0.0230 N.am  345  PRO345     -0.2718
     66  CA        57.5150  -33.3680    0.6830 C.3   345  PRO345      0.1535
     67  C         57.7800  -34.8620    0.4590 C.2   345  PRO345      0.2598
     68  O         58.9250  -35.2690    0.4470 O.2   345  PRO345     -0.2715
     69  CB        57.2660  -33.0740    2.1680 C.3   345  PRO345      0.0310
     70  CG        55.8050  -32.8440    2.2890 C.3   345  PRO345      0.0237
     71  CD        55.3290  -32.3050    0.9770 C.3   345  PRO345      0.0939
     72  N         56.7350  -35.6460    0.2230 N.am  346  TYR346     -0.1974
     73  CA        56.8790  -37.0880    0.0170 C.3   346  TYR346      0.1639
     74  C         56.8450  -37.4810   -1.4680 C.2   346  TYR346      0.2290
     75  O         56.9210  -38.6620   -1.8030 O.2   346  TYR346     -0.2864
     76  CB        55.7510  -37.8190    0.7460 C.3   346  TYR346      0.0560
     77  CG        54.3930  -37.2130    0.4340 C.ar  346  TYR346     -0.0198
     78  CD1       53.7300  -37.5050   -0.7590 C.ar  346  TYR346     -0.0009
     79  CD2       53.7900  -36.3340    1.3190 C.ar  346  TYR346     -0.0009
     80  CE1       52.4960  -36.9380   -1.0530 C.ar  346  TYR346      0.0417
     81  CE2       52.5590  -35.7480    1.0300 C.ar  346  TYR346      0.0417
     82  CZ        51.9160  -36.0640   -0.1510 C.ar  346  TYR346      0.1957
     83  OH        50.6890  -35.5090   -0.4270 O.3   346  TYR346     -0.2866
     84  N         50.0060  -38.9930    0.2510 N.3   389  GLY389     -0.1210
     85  CA        51.1370  -39.0540    1.1590 C.3   389  GLY389      0.1956
     86  C         50.9120  -38.2910    2.4520 C.2   389  GLY389      0.2612
     87  O         49.8310  -37.7540    2.6970 O.2   389  GLY389     -0.2717
     88  N         51.9350  -38.2390    3.2900 N.am  390  TRP390     -0.1962
     89  CA        51.7630  -37.6650    4.6100 C.3   390  TRP390      0.1771
     90  C         53.0980  -37.2560    5.1880 C.2   390  TRP390      0.2620
     91  O         54.0530  -37.9830    5.0520 O.2   390  TRP390     -0.2715
     92  CB        51.0940  -38.6990    5.5090 C.3   390  TRP390      0.0590
     93  CG        50.4340  -38.2440    6.7680 C.ar  390  TRP390      0.0006
     94  CD1       50.8370  -38.5160    8.0580 C.ar  390  TRP390      0.0946
     95  CD2       49.2000  -37.5320    6.8740 C.ar  390  TRP390      0.0152
     96  NE1       49.9320  -37.9860    8.9560 N.ar  390  TRP390     -0.2442
     97  CE2       48.9110  -37.3940    8.2540 C.ar  390  TRP390      0.0810
     98  CE3       48.2960  -37.0060    5.9330 C.ar  390  TRP390      0.0012
     99  CZ2       47.7590  -36.7410    8.7180 C.ar  390  TRP390      0.0191
    100  CZ3       47.1510  -36.3630    6.3940 C.ar  390  TRP390      0.0001
    101  CH2       46.9020  -36.2210    7.7750 C.ar  390  TRP390      0.0015
    102  N         53.1520  -36.0900    5.8280 N.am  391  THR391     -0.1951
    103  CA        54.1900  -35.7940    6.8080 C.3   391  THR391      0.1897
    104  C         53.4830  -35.8440    8.1640 C.2   391  THR391      0.2313
    105  O         52.4120  -35.2540    8.3140 O.2   391  THR391     -0.2863
    106  CB        54.8330  -34.4160    6.5590 C.3   391  THR391      0.1794
    107  OG1       55.4250  -34.4060    5.2510 O.3   391  THR391     -0.2208
    108  CG2       55.9110  -34.0730    7.6370 C.3   391  THR391      0.0378
    109  N         52.1020  -35.2020   11.8080 N.3   393  ASP393     -0.1239
    110  CA        51.7460  -33.9490   12.4570 C.3   393  ASP393      0.1674
    111  C         52.1270  -33.8540   13.9180 C.2   393  ASP393      0.2266
    112  O         52.1750  -32.7570   14.4570 O.2   393  ASP393     -0.2867
    113  CB        50.2430  -33.7250   12.3400 C.3   393  ASP393      0.1410
    114  CG        49.7690  -33.7560   10.8940 C.2   393  ASP393      0.3668
    115  OD1       50.2150  -32.8930   10.1030 O.co2 393  ASP393     -0.2456
    116  OD2       48.9290  -34.6180   10.5570 O.co2 393  ASP393     -0.2456
    117  N         57.9420  -32.0150   11.2920 N.3   480  LEU480     -0.1231
    118  CA        56.5040  -32.1070   11.0240 C.3   480  LEU480      0.1693
    119  C         56.0860  -31.3600    9.7370 C.2   480  LEU480      0.2593
    120  O         54.8980  -31.2860    9.4150 O.2   480  LEU480     -0.2718
    121  CB        55.7210  -31.5900   12.2360 C.3   480  LEU480      0.0284
    122  CG        56.2110  -32.1640   13.5800 C.3   480  LEU480      0.0019
    123  CD1       55.3790  -31.5890   14.7270 C.3   480  LEU480      0.0001
    124  CD2       56.1510  -33.6890   13.5930 C.3   480  LEU480      0.0001
    125  N         57.0590  -30.8260    8.9960 N.am  481  GLY481     -0.1942
    126  CA        56.8270  -30.4270    7.6100 C.3   481  GLY481      0.2014
    127  C         56.3160  -29.0150    7.3350 C.2   481  GLY481      0.2638
    128  O         56.0890  -28.6350    6.1870 O.2   481  GLY481     -0.2714
    129  N         56.1070  -28.2190    8.3720 N.am  482  LYS482     -0.1977
    130  CA        55.6830  -26.8550    8.1100 C.3   482  LYS482      0.1596
    131  C         56.8950  -25.9360    8.0280 C.2   482  LYS482      0.2287
    132  O         57.9990  -26.3100    8.4100 O.2   482  LYS482     -0.2864
    133  CB        54.6840  -26.3850    9.1730 C.3   482  LYS482      0.0298
    134  CG        53.2480  -26.7050    8.7580 C.3   482  LYS482      0.0038
    135  CD        52.3800  -27.0830    9.9240 C.3   482  LYS482      0.0206
    136  CE        53.0120  -28.2030   10.6940 C.3   482  LYS482      0.1093
    137  NZ        52.0560  -28.8020   11.6590 N.3   482  LYS482     -0.1314
@<TRIPOS>BOND
     1    45    44    2
     2    44    43    1
     3    54    55    1
     4    46    43    1
     5    46    47    1
     6    59    60    1
     7    59    58    1
     8    43    42    1
     9    60    61    1
    10    55    58    1
    11    55    56    1
    12    57    56    2
    13    75    74    2
    14    49    47   ar
    15    49    51   ar
    16    47    48   ar
    17    74    73    1
    18    56    65   am
    19    64    62    1
    20    80    78   ar
    21    80    82   ar
    22    61    62    2
    23    78    77   ar
    24    51    52   ar
    25    83    82    1
    26    48    50   ar
    27    62    63    1
    28    82    81   ar
    29    73    72    1
    30    73    76    1
    31    65    66    1
    32    65    71    1
    33    72    67   am
    34    84    85    1
    35    77    76    1
    36    77    79   ar
    37    68    67    2
    38    67    66    1
    39    52    50   ar
    40    52    53    1
    41    66    69    1
    42    71    70    1
    43    81    79   ar
    44    85    86    1
    45    13    12    1
    46    12     9    1
    47    69    70    1
    48    86    87    2
    49    86    88   am
    50     9     8    1
    51     9    10    1
    52    88    89    1
    53     6     5    1
    54    16    17    2
    55    16    15    1
    56     8     3   am
    57    14    10   am
    58    14    15    1
    59    10    11    2
    60    89    90    1
    61    89    92    1
    62     3     4    2
    63     3     2    1
    64     1     2    1
    65    91    90    2
    66     5     2    1
    67     5     7    1
    68    90   102   am
    69   107   106    1
    70    92    93    1
    71    18    19    1
    72   102   103    1
    73    98   100   ar
    74    98    95   ar
    75   128   127    2
    76   100   101   ar
    77   106   103    1
    78   106   108    1
    79    93    95   ar
    80    93    94   ar
    81   103   104    1
    82    95    97   ar
    83    19    20    1
    84    19    22    1
    85    20    21    2
    86   127   126    1
    87   127   129   am
    88   126   125    1
    89    22    23    1
    90   101    99   ar
    91    24    23   ar
    92    24    26   ar
    93    23    25   ar
    94   131   130    1
    95   131   132    2
    96    94    96   ar
    97   130   129    1
    98   130   133    1
    99   104   105    2
   100    26    28   ar
   101    97    99   ar
   102    97    96   ar
   103    25    27   ar
   104    28    27   ar
   105    28    29    1
   106   134   133    1
   107   134   135    1
   108    41    40    1
   109    39    40   ar
   110    39    37   ar
   111   125   119   am
   112    40    38   ar
   113   120   119    2
   114    37    35   ar
   115    30    31    1
   116   119   118    1
   117   135   136    1
   118   115   114   ar
   119    38    36   ar
   120    35    36   ar
   121    35    34    1
   122   116   114   ar
   123    31    34    1
   124    31    32    1
   125   136   137    1
   126   114   113    1
   127   118   117    1
   128   118   121    1
   129   109   110    1
   130    32    33    2
   131   121   122    1
   132   113   110    1
   133   110   111    1
   134   122   124    1
   135   122   123    1
   136   111   112    2
