@<TRIPOS>MOLECULE
tmp/5f1qA02.pdb
 132 131 0 0 0
SMALL
GASTEIGER

@<TRIPOS>ATOM
      1  N         43.5820  -30.0390    4.9010 N.3    20  THR20      -0.1203
      2  CA        44.6320  -30.9560    5.3540 C.3    20  THR20       0.1994
      3  C         46.0260  -30.7470    4.7580 C.2    20  THR20       0.2619
      4  O         46.9700  -31.4440    5.1510 O.2    20  THR20      -0.2717
      5  CB        44.2330  -32.4110    5.0590 C.3    20  THR20       0.1784
      6  OG1       44.1730  -32.6080    3.6420 O.3    20  THR20      -0.2211
      7  CG2       42.8830  -32.7240    5.6640 C.3    20  THR20       0.0376
      8  N         46.1900  -29.8180    3.8160 N.am   21  SER21      -0.1937
      9  CA        47.4910  -29.7060    3.1440 C.3    21  SER21       0.2055
     10  C         48.4780  -28.7880    3.8850 C.2    21  SER21       0.2643
     11  O         48.0950  -27.7690    4.4870 O.2    21  SER21      -0.2714
     12  CB        47.3230  -29.2130    1.6960 C.3    21  SER21       0.2130
     13  OG        47.2200  -27.7960    1.6270 O.3    21  SER21      -0.2179
     14  N         49.7540  -29.1630    3.8380 N.am   22  GLY22      -0.1954
     15  CA        50.8210  -28.3280    4.3760 C.3    22  GLY22       0.1869
     16  C         50.8380  -26.9600    3.6990 C.2    22  GLY22       0.2309
     17  O         51.2020  -25.9590    4.3020 O.2    22  GLY22      -0.2863
     18  N         40.2870  -33.5270    9.4890 N.3   113  TYR113     -0.1241
     19  CA        41.0180  -34.0440   10.6520 C.3   113  TYR113      0.1605
     20  C         40.1310  -34.3890   11.8360 C.2   113  TYR113      0.2264
     21  O         40.2230  -35.4860   12.4040 O.2   113  TYR113     -0.2867
     22  CB        42.0370  -33.0350   11.1260 C.3   113  TYR113      0.0534
     23  CG        43.4000  -33.1740   10.5150 C.ar  113  TYR113     -0.0201
     24  CD1       44.3240  -34.0650   11.0360 C.ar  113  TYR113     -0.0009
     25  CD2       43.7810  -32.3760    9.4370 C.ar  113  TYR113     -0.0009
     26  CE1       45.5990  -34.1740   10.4810 C.ar  113  TYR113      0.0417
     27  CE2       45.0400  -32.4790    8.8800 C.ar  113  TYR113      0.0417
     28  CZ        45.9490  -33.3640    9.4070 C.ar  113  TYR113      0.1957
     29  OH        47.2160  -33.4370    8.8500 O.3   113  TYR113     -0.2866
     30  N         55.2220  -32.2690   -3.4220 N.3   344  ARG344     -0.1231
     31  CA        54.9340  -32.5610   -2.0130 C.3   344  ARG344      0.1679
     32  C         56.2250  -32.9960   -1.3140 C.2   344  ARG344      0.2434
     33  O         57.1400  -33.4800   -1.9740 O.2   344  ARG344     -0.2733
     34  CB        53.8830  -33.6820   -1.8850 C.3   344  ARG344      0.0321
     35  CG        52.5490  -33.4170   -2.5660 C.3   344  ARG344      0.0489
     36  CD        52.0850  -31.9960   -2.3420 C.3   344  ARG344      0.2205
     37  NE        51.8590  -31.6560   -0.9310 N.pl3 344  ARG344     -0.0865
     38  CZ        52.2180  -30.5000   -0.3630 C.cat 344  ARG344      0.5346
     39  NH1       51.8980  -30.2550    0.9030 N.pl3 344  ARG344      0.1354
     40  NH2       52.8910  -29.5760   -1.0600 N.pl3 344  ARG344      0.1354
     41  N         56.2870  -32.8950    0.0230 N.am  345  PRO345     -0.2718
     42  CA        57.5150  -33.3680    0.6830 C.3   345  PRO345      0.1535
     43  C         57.7800  -34.8620    0.4590 C.2   345  PRO345      0.2598
     44  O         58.9250  -35.2690    0.4470 O.2   345  PRO345     -0.2715
     45  CB        57.2660  -33.0740    2.1680 C.3   345  PRO345      0.0310
     46  CG        55.8050  -32.8440    2.2890 C.3   345  PRO345      0.0237
     47  CD        55.3290  -32.3050    0.9770 C.3   345  PRO345      0.0939
     48  N         56.7350  -35.6460    0.2230 N.am  346  TYR346     -0.1974
     49  CA        56.8790  -37.0880    0.0170 C.3   346  TYR346      0.1639
     50  C         56.8450  -37.4810   -1.4680 C.2   346  TYR346      0.2290
     51  O         56.9210  -38.6620   -1.8030 O.2   346  TYR346     -0.2864
     52  CB        55.7510  -37.8190    0.7460 C.3   346  TYR346      0.0560
     53  CG        54.3930  -37.2130    0.4340 C.ar  346  TYR346     -0.0198
     54  CD1       53.7300  -37.5050   -0.7590 C.ar  346  TYR346     -0.0009
     55  CD2       53.7900  -36.3340    1.3190 C.ar  346  TYR346     -0.0009
     56  CE1       52.4960  -36.9380   -1.0530 C.ar  346  TYR346      0.0417
     57  CE2       52.5590  -35.7480    1.0300 C.ar  346  TYR346      0.0417
     58  CZ        51.9160  -36.0640   -0.1510 C.ar  346  TYR346      0.1957
     59  OH        50.6890  -35.5090   -0.4270 O.3   346  TYR346     -0.2866
     60  N         45.2160  -28.6010   -7.0340 N.3   373  TRP373     -0.1241
     61  CA        45.5020  -29.2020   -5.7160 C.3   373  TRP373      0.1605
     62  C         44.3330  -29.2580   -4.7230 C.2   373  TRP373      0.2264
     63  O         44.0180  -30.3240   -4.1970 O.2   373  TRP373     -0.2867
     64  CB        46.6810  -28.4280   -5.0800 C.3   373  TRP373      0.0550
     65  CG        47.2760  -28.9270   -3.7690 C.ar  373  TRP373      0.0003
     66  CD1       47.7560  -28.1370   -2.7520 C.ar  373  TRP373      0.0946
     67  CD2       47.5180  -30.2890   -3.3590 C.ar  373  TRP373      0.0152
     68  NE1       48.2660  -28.9200   -1.7340 N.ar  373  TRP373     -0.2442
     69  CE2       48.1370  -30.2400   -2.0810 C.ar  373  TRP373      0.0810
     70  CE3       47.2790  -31.5440   -3.9440 C.ar  373  TRP373      0.0012
     71  CZ2       48.5030  -31.3980   -1.3710 C.ar  373  TRP373      0.0191
     72  CZ3       47.6350  -32.6950   -3.2340 C.ar  373  TRP373      0.0001
     73  CH2       48.2470  -32.6150   -1.9660 C.ar  373  TRP373      0.0015
     74  N         42.2110  -32.8560   -3.6430 N.3   377  LEU377     -0.1245
     75  CA        41.9460  -33.3690   -2.3060 C.3   377  LEU377      0.1561
     76  C         40.4640  -33.4850   -2.0280 C.2   377  LEU377      0.2260
     77  O         40.0220  -34.4560   -1.4240 O.2   377  LEU377     -0.2867
     78  CB        42.6190  -32.4790   -1.2590 C.3   377  LEU377      0.0270
     79  CG        44.1470  -32.5310   -1.3640 C.3   377  LEU377      0.0019
     80  CD1       44.8120  -31.4940   -0.4730 C.3   377  LEU377      0.0001
     81  CD2       44.6420  -33.9030   -0.9960 C.3   377  LEU377      0.0001
     82  N         50.0060  -38.9930    0.2510 N.3   389  GLY389     -0.1210
     83  CA        51.1370  -39.0540    1.1590 C.3   389  GLY389      0.1956
     84  C         50.9120  -38.2910    2.4520 C.2   389  GLY389      0.2612
     85  O         49.8310  -37.7540    2.6970 O.2   389  GLY389     -0.2717
     86  N         51.9350  -38.2390    3.2900 N.am  390  TRP390     -0.1962
     87  CA        51.7630  -37.6650    4.6100 C.3   390  TRP390      0.1771
     88  C         53.0980  -37.2560    5.1880 C.2   390  TRP390      0.2620
     89  O         54.0530  -37.9830    5.0520 O.2   390  TRP390     -0.2715
     90  CB        51.0940  -38.6990    5.5090 C.3   390  TRP390      0.0590
     91  CG        50.4340  -38.2440    6.7680 C.ar  390  TRP390      0.0006
     92  CD1       50.8370  -38.5160    8.0580 C.ar  390  TRP390      0.0946
     93  CD2       49.2000  -37.5320    6.8740 C.ar  390  TRP390      0.0152
     94  NE1       49.9320  -37.9860    8.9560 N.ar  390  TRP390     -0.2442
     95  CE2       48.9110  -37.3940    8.2540 C.ar  390  TRP390      0.0810
     96  CE3       48.2960  -37.0060    5.9330 C.ar  390  TRP390      0.0012
     97  CZ2       47.7590  -36.7410    8.7180 C.ar  390  TRP390      0.0191
     98  CZ3       47.1510  -36.3630    6.3940 C.ar  390  TRP390      0.0001
     99  CH2       46.9020  -36.2210    7.7750 C.ar  390  TRP390      0.0015
    100  N         53.1520  -36.0900    5.8280 N.am  391  THR391     -0.1951
    101  CA        54.1900  -35.7940    6.8080 C.3   391  THR391      0.1897
    102  C         53.4830  -35.8440    8.1640 C.2   391  THR391      0.2313
    103  O         52.4120  -35.2540    8.3140 O.2   391  THR391     -0.2863
    104  CB        54.8330  -34.4160    6.5590 C.3   391  THR391      0.1794
    105  OG1       55.4250  -34.4060    5.2510 O.3   391  THR391     -0.2208
    106  CG2       55.9110  -34.0730    7.6370 C.3   391  THR391      0.0378
    107  N         44.9990  -42.0530    8.7810 N.3   404  LEU404     -0.1245
    108  CA        45.0130  -42.3830    7.3450 C.3   404  LEU404      0.1561
    109  C         44.2710  -43.6610    6.9510 C.2   404  LEU404      0.2260
    110  O         43.9240  -43.8220    5.7760 O.2   404  LEU404     -0.2867
    111  CB        46.4550  -42.4980    6.8460 C.3   404  LEU404      0.0270
    112  CG        47.2880  -41.2180    7.0020 C.3   404  LEU404      0.0019
    113  CD1       48.7680  -41.4500    6.6120 C.3   404  LEU404      0.0001
    114  CD2       46.6690  -40.0730    6.2090 C.3   404  LEU404      0.0001
    115  N         40.8220  -38.6240    5.8110 N.3   414  SER414     -0.1217
    116  CA        41.8240  -38.7250    4.7550 C.3   414  SER414      0.1889
    117  C         42.1850  -40.1650    4.3570 C.2   414  SER414      0.2288
    118  O         43.2440  -40.4000    3.7940 O.2   414  SER414     -0.2866
    119  CB        43.1050  -37.9780    5.1870 C.3   414  SER414      0.2089
    120  OG        42.8170  -36.6330    5.5390 O.3   414  SER414     -0.2183
    121  N         41.7210  -42.3480    1.7780 N.3   416  TYR416     -0.1241
    122  CA        41.1800  -42.3220    0.4210 C.3   416  TYR416      0.1605
    123  C         41.1280  -43.7330   -0.1880 C.2   416  TYR416      0.2264
    124  O         40.5900  -43.9250   -1.2790 O.2   416  TYR416     -0.2867
    125  CB        41.9830  -41.3480   -0.4640 C.3   416  TYR416      0.0534
    126  CG        41.9150  -39.8830    0.0130 C.ar  416  TYR416     -0.0201
    127  CD1       40.9940  -39.4830    0.9880 C.ar  416  TYR416     -0.0009
    128  CD2       42.7740  -38.9210   -0.4990 C.ar  416  TYR416     -0.0009
    129  CE1       40.9330  -38.1700    1.4330 C.ar  416  TYR416      0.0417
    130  CE2       42.7240  -37.5980   -0.0640 C.ar  416  TYR416      0.0417
    131  CZ        41.8040  -37.2220    0.9020 C.ar  416  TYR416      0.1957
    132  OH        41.7560  -35.9030    1.3480 O.3   416  TYR416     -0.2866
@<TRIPOS>BOND
     1    60    61    1
     2    61    64    1
     3    61    62    1
     4    64    65    1
     5    62    63    2
     6    70    67   ar
     7    70    72   ar
     8    65    67   ar
     9    65    66   ar
    10    74    75    1
    11    30    31    1
    12    67    69   ar
    13    72    73   ar
    14    66    68   ar
    15    35    36    1
    16    35    34    1
    17    36    37    1
    18    75    76    1
    19    75    78    1
    20    69    68   ar
    21    69    71   ar
    22    76    77    2
    23    31    34    1
    24    31    32    1
    25    33    32    2
    26    73    71   ar
    27    51    50    2
    28    50    49    1
    29    79    78    1
    30    79    81    1
    31    79    80    1
    32    32    41   am
    33   124   123    2
    34    40    38    1
    35    56    54   ar
    36    56    58   ar
    37    37    38    2
    38    54    53   ar
    39   128   130   ar
    40   128   126   ar
    41   125   126    1
    42   125   122    1
    43    59    58    1
    44    38    39    1
    45   123   122    1
    46    58    57   ar
    47   130   131   ar
    48   126   127   ar
    49    49    48    1
    50    49    52    1
    51    41    42    1
    52    41    47    1
    53    48    43   am
    54    82    83    1
    55   122   121    1
    56    53    52    1
    57    53    55   ar
    58    44    43    2
    59    43    42    1
    60    42    45    1
    61   131   132    1
    62   131   129   ar
    63    47    46    1
    64   127   129   ar
    65    57    55   ar
    66    83    84    1
    67    13    12    1
    68    12     9    1
    69    45    46    1
    70    84    85    2
    71    84    86   am
    72     9     8    1
    73     9    10    1
    74    86    87    1
    75     6     5    1
    76    16    17    2
    77    16    15    1
    78   118   117    2
    79     8     3   am
    80    14    10   am
    81    14    15    1
    82    10    11    2
    83   117   116    1
    84    87    88    1
    85    87    90    1
    86   116   119    1
    87   116   115    1
    88     3     4    2
    89     3     2    1
    90     1     2    1
    91    89    88    2
    92     5     2    1
    93     5     7    1
    94   119   120    1
    95    88   100   am
    96   105   104    1
    97    90    91    1
    98   110   109    2
    99   100   101    1
   100    96    98   ar
   101    96    93   ar
   102   114   112    1
   103    98    99   ar
   104   104   101    1
   105   104   106    1
   106   113   112    1
   107    91    93   ar
   108    91    92   ar
   109   101   102    1
   110   111   112    1
   111   111   108    1
   112    93    95   ar
   113   109   108    1
   114   108   107    1
   115    99    97   ar
   116    92    94   ar
   117   102   103    2
   118    95    97   ar
   119    95    94   ar
   120    29    28    1
   121    27    28   ar
   122    27    25   ar
   123    28    26   ar
   124    25    23   ar
   125    18    19    1
   126    26    24   ar
   127    23    24   ar
   128    23    22    1
   129    19    22    1
   130    19    20    1
   131    20    21    2
