@<TRIPOS>MOLECULE
tmp/5f1uA00.pdb
 105 102 0 0 0
SMALL
GASTEIGER

@<TRIPOS>ATOM
      1  N         16.8450    5.7280   42.0910 N.3    50  SER50      -0.1202
      2  CA        17.6130    6.8380   42.6430 C.3    50  SER50       0.2020
      3  C         18.0730    6.5480   44.0650 C.2    50  SER50       0.2618
      4  O         19.0880    7.0740   44.5140 O.2    50  SER50      -0.2717
      5  CB        16.7930    8.1310   42.6140 C.3    50  SER50       0.2103
      6  OG        15.6200    8.0160   43.3960 O.3    50  SER50      -0.2182
      7  N         17.3240    5.7020   44.7660 N.am   51  ALA51      -0.1979
      8  CA        17.6170    5.3960   46.1610 C.3    51  ALA51       0.1597
      9  C         18.9710    4.7160   46.3290 C.2    51  ALA51       0.2287
     10  O         19.7090    5.0180   47.2640 O.2    51  ALA51      -0.2864
     11  CB        16.5200    4.5280   46.7470 C.3    51  ALA51       0.0319
     12  N         21.4610    4.5140   43.9130 N.3    53  LEU53      -0.1231
     13  CA        22.5610    5.1480   43.1990 C.3    53  LEU53       0.1693
     14  C         23.3050    6.0810   44.1400 C.2    53  LEU53       0.2593
     15  O         22.7060    6.6560   45.0440 O.2    53  LEU53      -0.2718
     16  CB        22.0580    5.9240   41.9790 C.3    53  LEU53       0.0284
     17  CG        21.6660    5.1070   40.7480 C.3    53  LEU53       0.0019
     18  CD1       21.3760    6.0280   39.5830 C.3    53  LEU53       0.0001
     19  CD2       22.7680    4.1220   40.3900 C.3    53  LEU53       0.0001
     20  N         24.6090    6.2280   43.9370 N.am   54  THR54      -0.1939
     21  CA        25.3560    7.2300   44.6830 C.3    54  THR54       0.2028
     22  C         25.0440    8.5970   44.0930 C.2    54  THR54       0.2642
     23  O         24.4860    8.6940   42.9990 O.2    54  THR54      -0.2714
     24  CB        26.8780    6.9820   44.6500 C.3    54  THR54       0.1808
     25  OG1       27.3240    6.8860   43.2920 O.3    54  THR54      -0.2208
     26  CG2       27.2210    5.6980   45.3830 C.3    54  THR54       0.0379
     27  N         25.3960    9.6520   44.8190 N.am   55  HIS55      -0.1973
     28  CA        25.1720   11.0000   44.3260 C.3    55  HIS55       0.1656
     29  C         25.9810   11.2490   43.0630 C.2    55  HIS55       0.2291
     30  O         25.5300   11.9450   42.1530 O.2    55  HIS55      -0.2864
     31  CB        25.5160   12.0310   45.3990 C.3    55  HIS55       0.0771
     32  CG        24.3500   12.4090   46.2570 C.ar   55  HIS55       0.0820
     33  ND1       23.4260   13.3600   45.8770 N.ar   55  HIS55      -0.2267
     34  CD2       23.9470   11.9560   47.4680 C.ar   55  HIS55       0.1154
     35  CE1       22.5080   13.4800   46.8200 C.ar   55  HIS55       0.1986
     36  NE2       22.8010   12.6380   47.7960 N.ar   55  HIS55      -0.2212
     37  N         24.3370    9.2680   40.2410 N.3    58  HIS58      -0.1241
     38  CA        23.1180   10.0110   39.9450 C.3    58  HIS58       0.1621
     39  C         23.4230   11.1530   38.9800 C.2    58  HIS58       0.2264
     40  O         22.6980   11.3840   38.0110 O.2    58  HIS58      -0.2867
     41  CB        22.5030   10.5440   41.2440 C.3    58  HIS58       0.0745
     42  CG        21.1540   11.1720   41.0740 C.ar   58  HIS58       0.0817
     43  ND1       20.0570   10.7840   41.8140 N.ar   58  HIS58      -0.2268
     44  CD2       20.7260   12.1700   40.2670 C.ar   58  HIS58       0.1154
     45  CE1       19.0120   11.5110   41.4640 C.ar   58  HIS58       0.1986
     46  NE2       19.3910   12.3590   40.5240 N.ar   58  HIS58      -0.2212
     47  N         14.7540   14.7070   46.9770 N.3    82  SER82      -0.1202
     48  CA        15.3390   14.1100   48.1700 C.3    82  SER82       0.2020
     49  C         14.4650   14.3990   49.3760 C.2    82  SER82       0.2619
     50  O         13.6130   15.2820   49.3310 O.2    82  SER82      -0.2717
     51  CB        16.7520   14.6380   48.4200 C.3    82  SER82       0.2103
     52  OG        17.2590   14.1410   49.6480 O.3    82  SER82      -0.2182
     53  N         14.6750   13.6520   50.4550 N.am   83  ASN83      -0.1960
     54  CA        13.9770   13.9330   51.7000 C.3    83  ASN83       0.1819
     55  C         14.7880   14.8860   52.5720 C.2    83  ASN83       0.2621
     56  O         14.3600   15.2630   53.6610 O.2    83  ASN83      -0.2715
     57  CB        13.6660   12.6400   52.4570 C.3    83  ASN83       0.1195
     58  CG        14.9070   11.8350   52.7970 C.2    83  ASN83       0.2630
     59  OD1       16.0060   12.1270   52.3300 O.2    83  ASN83      -0.2716
     60  ND2       14.7270   10.7980   53.6080 N.am   83  ASN83      -0.0877
     61  N         15.9660   15.2600   52.0820 N.am   84  ALA84      -0.1977
     62  CA        16.7660   16.3120   52.6940 C.3    84  ALA84       0.1597
     63  C         16.8790   17.4740   51.7150 C.2    84  ALA84       0.2287
     64  O         17.3510   17.3020   50.5930 O.2    84  ALA84      -0.2864
     65  CB        18.1440   15.7950   53.0810 C.3    84  ALA84       0.0319
     66  N         20.1490   18.2630   49.9940 N.3    87  GLU87      -0.1245
     67  CA        20.5010   17.3060   48.9470 C.3    87  GLU87       0.1567
     68  C         19.7690   17.6190   47.6460 C.2    87  GLU87       0.2260
     69  O         20.3550   17.5710   46.5630 O.2    87  GLU87      -0.2867
     70  CB        20.1840   15.8720   49.3890 C.3    87  GLU87       0.0388
     71  CG        21.2320   15.2510   50.3000 C.3    87  GLU87       0.1160
     72  CD        20.9680   13.7820   50.5840 C.2    87  GLU87       0.3649
     73  OE1       21.3950   12.9340   49.7740 O.co2  87  GLU87      -0.2457
     74  OE2       20.3400   13.4730   51.6190 O.co2  87  GLU87      -0.2457
     75  N         21.2060   18.6720   43.9120 N.3    91  LEU91      -0.1245
     76  CA        20.8770   17.9990   42.6580 C.3    91  LEU91       0.1561
     77  C         20.2710   18.9680   41.6480 C.2    91  LEU91       0.2260
     78  O         20.5760   18.9030   40.4570 O.2    91  LEU91      -0.2867
     79  CB        19.9200   16.8330   42.9120 C.3    91  LEU91       0.0270
     80  CG        20.5430   15.5860   43.5490 C.3    91  LEU91       0.0019
     81  CD1       19.4730   14.6800   44.1410 C.3    91  LEU91       0.0001
     82  CD2       21.3810   14.8280   42.5300 C.3    91  LEU91       0.0001
     83  N         10.3970   11.8270   51.2590 N.3   109  PHE109     -0.1227
     84  CA         9.9420   10.5540   51.7150 C.3   109  PHE109      0.1736
     85  C         10.4630   10.2790   53.1000 C.2   109  PHE109      0.2595
     86  O         11.5130   10.6770   53.4390 O.2   109  PHE109     -0.2718
     87  CB        10.3850    9.4660   50.7430 C.3   109  PHE109      0.0547
     88  CG        11.7530    9.6610   50.2090 C.ar  109  PHE109     -0.0202
     89  CD1       11.9690   10.4020   49.0920 C.ar  109  PHE109     -0.0042
     90  CD2       12.8330    9.1070   50.8410 C.ar  109  PHE109     -0.0042
     91  CE1       13.2340   10.5950   48.6140 C.ar  109  PHE109     -0.0003
     92  CE2       14.0930    9.2900   50.3700 C.ar  109  PHE109     -0.0003
     93  CZ        14.2960   10.0380   49.2630 C.ar  109  PHE109     -0.0000
     94  N          9.6640    9.6160   53.8900 N.am  110  TYR110     -0.1976
     95  CA        10.0790    9.0650   55.1560 C.3   110  TYR110      0.1639
     96  C          9.9780    9.9930   56.3500 C.2   110  TYR110      0.2290
     97  O          9.4630    9.6010   57.3320 O.2   110  TYR110     -0.2864
     98  CB        11.4680    8.4430   55.0590 C.3   110  TYR110      0.0560
     99  CG        11.9470    7.8580   56.3330 C.ar  110  TYR110     -0.0198
    100  CD1       11.3340    6.7770   56.8840 C.ar  110  TYR110     -0.0009
    101  CD2       12.9880    8.4100   56.9960 C.ar  110  TYR110     -0.0009
    102  CE1       11.7690    6.2470   58.0530 C.ar  110  TYR110      0.0417
    103  CE2       13.4230    7.9020   58.1670 C.ar  110  TYR110      0.0417
    104  CZ        12.8100    6.8080   58.6890 C.ar  110  TYR110      0.1957
    105  OH        13.2500    6.2750   59.8590 O.3   110  TYR110     -0.2866
@<TRIPOS>BOND
     1    40    39    2
     2    39    38    1
     3    18    17    1
     4    38    37    1
     5    38    41    1
     6    44    46   ar
     7    44    42   ar
     8    19    17    1
     9    78    77    2
    10    46    45   ar
    11    17    16    1
    12    42    41    1
    13    42    43   ar
    14    45    43   ar
    15    77    76    1
    16    16    13    1
    17     1     2    1
    18    30    29    2
    19    82    80    1
    20     5     2    1
    21     5     6    1
    22     2     3    1
    23    76    79    1
    24    76    75    1
    25    79    80    1
    26    23    22    2
    27    29    28    1
    28    13    12    1
    29    13    14    1
    30    25    24    1
    31    80    81    1
    32    20    14   am
    33    20    21    1
    34     3     4    2
    35     3     7   am
    36    22    21    1
    37    22    27   am
    38    14    15    2
    39    28    27    1
    40    28    31    1
    41    24    21    1
    42    24    26    1
    43     7     8    1
    44    31    32    1
    45    33    32   ar
    46    33    35   ar
    47     8     9    1
    48     8    11    1
    49    32    34   ar
    50     9    10    2
    51    69    68    2
    52    35    36   ar
    53    47    48    1
    54    34    36   ar
    55    68    67    1
    56    48    51    1
    57    48    49    1
    58    51    52    1
    59    91    89   ar
    60    91    93   ar
    61    67    70    1
    62    67    66    1
    63    89    88   ar
    64    93    92   ar
    65    50    49    2
    66    49    53   am
    67    70    71    1
    68    73    72   ar
    69    88    87    1
    70    88    90   ar
    71    71    72    1
    72    92    90   ar
    73    53    54    1
    74    72    74   ar
    75    64    63    2
    76    87    84    1
    77    83    84    1
    78    54    57    1
    79    54    55    1
    80    84    85    1
    81    63    62    1
    82    61    55   am
    83    61    62    1
    84    59    58    2
    85    57    58    1
    86    55    56    2
    87    62    65    1
    88    58    60   am
    89    85    86    2
    90    85    94   am
    91    94    95    1
    92    98    95    1
    93    98    99    1
    94    95    96    1
    95    99   100   ar
    96    99   101   ar
    97    96    97    2
    98   100   102   ar
    99   101   103   ar
   100   102   104   ar
   101   103   104   ar
   102   104   105    1
