@<TRIPOS>MOLECULE
tmp/5f1vD02.pdb
 106 102 0 0 0
SMALL
GASTEIGER

@<TRIPOS>ATOM
      1  N        -28.9820    6.1510    1.2010 N.3    64  VAL64      -0.1245
      2  CA       -29.8110    5.0530    0.7040 C.3    64  VAL64       0.1561
      3  C        -30.8060    5.5390   -0.3460 C.2    64  VAL64       0.2260
      4  O        -30.9540    4.9290   -1.4080 O.2    64  VAL64      -0.2867
      5  CB       -30.5870    4.3570    1.8520 C.3    64  VAL64       0.0252
      6  CG1      -31.6620    3.4290    1.2970 C.3    64  VAL64       0.0019
      7  CG2      -29.6370    3.5830    2.7590 C.3    64  VAL64       0.0019
      8  N        -29.1000    6.6250   -3.6460 N.3    67  CYS67      -0.1221
      9  CA       -28.6070    5.4840   -4.3930 C.3    67  CYS67       0.1808
     10  C        -29.6930    4.5060   -4.8830 C.2    67  CYS67       0.2601
     11  O        -29.4300    3.6140   -5.6040 O.2    67  CYS67      -0.2717
     12  CB       -27.5710    4.7120   -3.5570 C.3    67  CYS67       0.0970
     13  SG       -26.0010    5.5370   -3.3550 S.3    67  CYS67      -0.0800
     14  N        -30.9120    4.6970   -4.4590 N.am   68  LYS68      -0.1965
     15  CA       -31.9070    3.6660   -4.5990 C.3    68  LYS68       0.1728
     16  C        -32.1170    3.1190   -5.9920 C.2    68  LYS68       0.2617
     17  O        -32.0800    1.9300   -6.1810 O.2    68  LYS68      -0.2715
     18  CB       -33.2260    4.0560   -3.9670 C.3    68  LYS68       0.0311
     19  CG       -33.8580    2.8790   -3.2690 C.3    68  LYS68       0.0038
     20  CD       -35.3350    3.0810   -3.0630 C.3    68  LYS68       0.0206
     21  CE       -35.6190    4.2330   -2.1370 C.3    68  LYS68       0.1093
     22  NZ       -36.8220    4.0170   -1.3010 N.3    68  LYS68      -0.1314
     23  N        -32.3110    3.9590   -6.9750 N.am   69  GLY69      -0.1940
     24  CA       -32.4740    3.3950   -8.2900 C.3    69  GLY69       0.2014
     25  C        -31.2180    3.1050   -9.0720 C.2    69  GLY69       0.2640
     26  O        -31.2760    3.0640  -10.2580 O.2    69  GLY69      -0.2714
     27  N        -30.0980    2.9200   -8.3820 N.am   70  THR70      -0.1936
     28  CA       -28.8020    2.7010   -8.9970 C.3    70  THR70       0.2028
     29  C        -28.1220    1.4180   -8.5280 C.2    70  THR70       0.2642
     30  O        -28.5770    0.7710   -7.6400 O.2    70  THR70      -0.2714
     31  CB       -27.8710    3.9330   -8.8410 C.3    70  THR70       0.1808
     32  OG1      -27.0650    3.8120   -7.6810 O.3    70  THR70      -0.2208
     33  CG2      -28.6610    5.1460   -8.7100 C.3    70  THR70       0.0379
     34  N        -27.0290    1.0700   -9.1810 N.am   71  LYS71      -0.1963
     35  CA       -26.2110   -0.0740   -8.8210 C.3    71  LYS71       0.1728
     36  C        -25.2440    0.2140   -7.6640 C.2    71  LYS71       0.2616
     37  O        -24.5750   -0.6570   -7.2000 O.2    71  LYS71      -0.2715
     38  CB       -25.4180   -0.5610  -10.0360 C.3    71  LYS71       0.0311
     39  CG       -26.2440   -1.1930  -11.1480 C.3    71  LYS71       0.0038
     40  CD       -25.4220   -1.9730  -12.1710 C.3    71  LYS71       0.0206
     41  CE       -25.0580   -1.1500  -13.3890 C.3    71  LYS71       0.1093
     42  NZ       -24.4140   -1.9330  -14.4640 N.3    71  LYS71      -0.1314
     43  N        -25.1770    1.4580   -7.2420 N.am   72  VAL72      -0.1963
     44  CA       -24.2700    1.8650   -6.1730 C.3    72  VAL72       0.1727
     45  C        -24.8050    1.4330   -4.8090 C.2    72  VAL72       0.2616
     46  O        -25.9530    1.7130   -4.4780 O.2    72  VAL72      -0.2715
     47  CB       -24.0660    3.3840   -6.2040 C.3    72  VAL72       0.0290
     48  CG1      -23.2030    3.8320   -5.0440 C.3    72  VAL72       0.0023
     49  CG2      -23.4390    3.7850   -7.5350 C.3    72  VAL72       0.0023
     50  N        -23.9770    0.7450   -4.0280 N.am   73  LYS73      -0.1963
     51  CA       -24.3940    0.2360   -2.7220 C.3    73  LYS73       0.1728
     52  C        -24.1430    1.2450   -1.5960 C.2    73  LYS73       0.2616
     53  O        -23.2810    2.1210   -1.7160 O.2    73  LYS73      -0.2715
     54  CB       -23.6540   -1.0640   -2.3980 C.3    73  LYS73       0.0311
     55  CG       -23.7000   -2.1180   -3.4950 C.3    73  LYS73       0.0038
     56  CD       -24.9650   -2.9590   -3.4320 C.3    73  LYS73       0.0206
     57  CE       -24.9290   -4.0740   -4.4810 C.3    73  LYS73       0.1093
     58  NZ       -26.2110   -4.8350   -4.5650 N.3    73  LYS73      -0.1314
     59  N        -24.9010    1.1210   -0.5080 N.am   74  VAL74      -0.1977
     60  CA       -24.6760    1.9410    0.6760 C.3    74  VAL74       0.1596
     61  C        -24.1160    1.0770    1.8060 C.2    74  VAL74       0.2287
     62  O        -24.8230    0.2330    2.3610 O.2    74  VAL74      -0.2864
     63  CB       -25.9680    2.6630    1.1450 C.3    74  VAL74       0.0276
     64  CG1      -25.7260    3.3840    2.4680 C.3    74  VAL74       0.0022
     65  CG2      -26.4480    3.6530    0.0890 C.3    74  VAL74       0.0022
     66  N        -30.0030   -1.4410    8.8100 N.3    94  LYS94      -0.1245
     67  CA       -30.7340   -2.5630    8.2340 C.3    94  LYS94       0.1561
     68  C        -32.1610   -2.1530    7.9200 C.2    94  LYS94       0.2260
     69  O        -32.6160   -2.2750    6.7790 O.2    94  LYS94      -0.2867
     70  CB       -30.7460   -3.7470    9.2050 C.3    94  LYS94       0.0271
     71  CG       -31.7610   -4.8280    8.8550 C.3    94  LYS94       0.0035
     72  CD       -31.3910   -5.5410    7.5680 C.3    94  LYS94       0.0206
     73  CE       -32.6210   -6.1320    6.8820 C.3    94  LYS94       0.1093
     74  NZ       -33.5030   -6.8830    7.8200 N.3    94  LYS94      -0.1314
     75  N        -32.6880    0.3880    4.8980 N.3    97  GLY97      -0.1210
     76  CA       -32.3180    0.1020    3.5220 C.3    97  GLY97       0.1956
     77  C        -30.8390    0.0270    3.1840 C.2    97  GLY97       0.2612
     78  O        -30.4820   -0.1260    2.0160 O.2    97  GLY97      -0.2717
     79  N        -29.9700    0.1280    4.1830 N.am   98  ALA98      -0.1965
     80  CA       -28.5370    0.0180    3.9160 C.3    98  ALA98       0.1728
     81  C        -28.2150   -1.3680    3.3640 C.2    98  ALA98       0.2616
     82  O        -28.8820   -2.3480    3.7060 O.2    98  ALA98      -0.2715
     83  CB       -27.7310    0.2980    5.1760 C.3    98  ALA98       0.0334
     84  N        -27.2100   -1.4570    2.4980 N.am   99  ASP99      -0.1971
     85  CA       -26.8460   -2.7450    1.9120 C.3    99  ASP99       0.1709
     86  C        -25.8880   -3.5210    2.8080 C.2    99  ASP99       0.2293
     87  O        -25.7660   -4.7390    2.6940 O.2    99  ASP99      -0.2864
     88  CB       -26.2300   -2.5530    0.5240 C.3    99  ASP99       0.1436
     89  CG       -27.1220   -1.7610   -0.3980 C.2    99  ASP99       0.3671
     90  OD1      -28.1360   -2.3210   -0.8640 O.co2  99  ASP99      -0.2456
     91  OD2      -26.8150   -0.5800   -0.6590 O.co2  99  ASP99      -0.2456
     92  N        -27.5010   -8.2720    7.3800 N.3   129  ILE129     -0.1231
     93  CA       -26.7630   -7.6670    6.2720 C.3   129  ILE129      0.1678
     94  C        -25.2530   -7.8290    6.4870 C.2   129  ILE129      0.2434
     95  O        -24.8080   -8.0700    7.6180 O.2   129  ILE129     -0.2733
     96  CB       -27.1340   -6.1730    6.0660 C.3   129  ILE129      0.0265
     97  CG1      -27.1910   -5.4320    7.4010 C.3   129  ILE129      0.0019
     98  CG2      -28.4540   -6.0490    5.3040 C.3   129  ILE129      0.0020
     99  CD1      -27.4070   -3.9310    7.2500 C.3   129  ILE129      0.0001
    100  N        -24.4600   -7.7180    5.4020 N.am  130  PRO130     -0.2729
    101  CA       -23.0160   -7.9080    5.5740 C.3   130  PRO130      0.1401
    102  C        -22.4190   -6.8630    6.5160 C.2   130  PRO130      0.2269
    103  O        -22.9190   -5.7340    6.5790 O.2   130  PRO130     -0.2865
    104  CB       -22.4670   -7.7270    4.1540 C.3   130  PRO130      0.0296
    105  CG       -23.6270   -8.0720    3.2490 C.3   130  PRO130      0.0237
    106  CD       -24.8310   -7.5550    3.9810 C.3   130  PRO130      0.0939
@<TRIPOS>BOND
     1    42    41    1
     2    41    40    1
     3    40    39    1
     4    39    38    1
     5    26    25    2
     6    38    35    1
     7    34    35    1
     8    34    29   am
     9    25    27   am
    10    25    24    1
    11    28    31    1
    12    28    29    1
    13    28    27    1
    14    31    33    1
    15    31    32    1
    16    35    36    1
    17    29    30    2
    18    24    23    1
    19    36    43   am
    20    36    37    2
    21    49    47    1
    22    43    44    1
    23    23    16   am
    24    47    44    1
    25    47    48    1
    26    17    16    2
    27    44    45    1
    28    16    15    1
    29    11    10    2
    30    10    14   am
    31    10     9    1
    32    45    46    2
    33    45    50   am
    34    15    14    1
    35    15    18    1
    36    58    57    1
    37    57    56    1
    38     9     8    1
    39     9    12    1
    40    50    51    1
    41    18    19    1
    42    12    13    1
    43    55    56    1
    44    55    54    1
    45    19    20    1
    46    20    21    1
    47    51    54    1
    48    51    52    1
    49    21    22    1
    50    53    52    2
    51    52    59   am
    52     4     3    2
    53    90    89   ar
    54    91    89   ar
    55    59    60    1
    56    89    88    1
    57     3     2    1
    58    65    63    1
    59    88    85    1
    60    60    63    1
    61    60    61    1
    62     2     1    1
    63     2     5    1
    64    63    64    1
    65     6     5    1
    66    61    62    2
    67     5     7    1
    68    85    84    1
    69    85    86    1
    70    78    77    2
    71    84    81   am
    72    87    86    2
    73    77    76    1
    74    77    79   am
    75   105   106    1
    76   105   104    1
    77    81    82    2
    78    81    80    1
    79    76    75    1
    80    80    79    1
    81    80    83    1
    82   106   100    1
    83   104   101    1
    84    98    96    1
    85   100   101    1
    86   100    94   am
    87   101   102    1
    88    96    93    1
    89    96    97    1
    90    93    94    1
    91    93    92    1
    92    94    95    2
    93   102   103    2
    94    69    68    2
    95    73    72    1
    96    73    74    1
    97    99    97    1
    98    72    71    1
    99    68    67    1
   100    67    66    1
   101    67    70    1
   102    71    70    1
