@<TRIPOS>MOLECULE
tmp/5f1zA00.pdb
 160 152 0 0 0
SMALL
GASTEIGER

@<TRIPOS>ATOM
      1  N        -21.3650   25.6230  471.0050 N.3    16  ARG16      -0.1245
      2  CA       -20.2570   26.1730  471.7900 C.3    16  ARG16       0.1563
      3  C        -19.6740   25.1600  472.7720 C.2    16  ARG16       0.2260
      4  O        -20.1790   24.0420  472.9050 O.2    16  ARG16      -0.2867
      5  CB       -20.6940   27.4450  472.5320 C.3    16  ARG16       0.0307
      6  CG       -21.9640   27.3270  473.3690 C.3    16  ARG16       0.0489
      7  CD       -22.0840   28.5150  474.3200 C.3    16  ARG16       0.2205
      8  NE       -21.1700   28.3910  475.4650 N.pl3  16  ARG16      -0.0865
      9  CZ       -20.7590   29.3900  476.2530 C.cat  16  ARG16       0.5346
     10  NH1      -19.9220   29.1300  477.2500 N.pl3  16  ARG16       0.1354
     11  NH2      -21.1600   30.6450  476.0580 N.pl3  16  ARG16       0.1354
     12  N        -19.0400   24.1240  476.6340 N.3    18  LEU18      -0.1231
     13  CA       -19.7750   24.3380  477.8850 C.3    18  LEU18       0.1693
     14  C        -18.8530   24.3660  479.0940 C.2    18  LEU18       0.2593
     15  O        -19.0060   25.2120  479.9750 O.2    18  LEU18      -0.2718
     16  CB       -20.8450   23.2640  478.0810 C.3    18  LEU18       0.0284
     17  CG       -22.0570   23.3240  477.1550 C.3    18  LEU18       0.0019
     18  CD1      -23.1420   22.4210  477.7090 C.3    18  LEU18       0.0001
     19  CD2      -22.5930   24.7350  476.9970 C.3    18  LEU18       0.0001
     20  N        -17.9010   23.4450  479.1470 N.am   19  GLY19      -0.1942
     21  CA       -16.9940   23.3980  480.2780 C.3    19  GLY19       0.2014
     22  C        -16.0490   22.2340  480.2070 C.2    19  GLY19       0.2639
     23  O        -16.0610   21.4740  479.2410 O.2    19  GLY19      -0.2714
     24  N        -15.2200   22.1070  481.2330 N.am   20  GLU20      -0.1963
     25  CA       -14.3060   20.9850  481.3460 C.3    20  GLU20       0.1733
     26  C        -14.8880   20.0010  482.3640 C.2    20  GLU20       0.2616
     27  O        -14.8720   20.2450  483.5700 O.2    20  GLU20      -0.2715
     28  CB       -12.9130   21.4610  481.7850 C.3    20  GLU20       0.0429
     29  CG       -11.7460   20.8020  481.0620 C.3    20  GLU20       0.1163
     30  CD       -11.1090   21.7030  480.0160 C.2    20  GLU20       0.3649
     31  OE1       -9.8910   21.5380  479.7640 O.co2  20  GLU20      -0.2457
     32  OE2      -11.8110   22.5770  479.4510 O.co2  20  GLU20      -0.2457
     33  N        -15.4360   18.9010  481.8680 N.am   21  GLY21      -0.1955
     34  CA       -15.8490   17.8110  482.7340 C.3    21  GLY21       0.1869
     35  C        -14.6050   17.0550  483.1470 C.2    21  GLY21       0.2309
     36  O        -13.5650   17.1500  482.4960 O.2    21  GLY21      -0.2863
     37  N        -16.7580   19.1240  477.8490 N.3    26  VAL26      -0.1245
     38  CA       -18.1460   19.0290  477.4070 C.3    26  VAL26       0.1561
     39  C        -18.4300   20.1840  476.4550 C.2    26  VAL26       0.2260
     40  O        -17.8450   21.2570  476.5820 O.2    26  VAL26      -0.2867
     41  CB       -19.1300   19.0660  478.5940 C.3    26  VAL26       0.0252
     42  CG1      -20.5770   18.9220  478.1170 C.3    26  VAL26       0.0019
     43  CG2      -18.7750   17.9760  479.6030 C.3    26  VAL26       0.0019
     44  N        -25.7560   17.7480  475.1770 N.3    43  ALA43      -0.1245
     45  CA       -24.4070   17.9450  475.6670 C.3    43  ALA43       0.1562
     46  C        -23.5690   16.7530  475.2250 C.2    43  ALA43       0.2260
     47  O        -24.0580   15.6290  475.1460 O.2    43  ALA43      -0.2867
     48  CB       -24.4000   18.0740  477.1830 C.3    43  ALA43       0.0290
     49  N        -28.5730   13.3060  485.5230 N.3    67  ILE67      -0.1245
     50  CA       -28.5090   13.6800  484.1200 C.3    67  ILE67       0.1561
     51  C        -28.6800   12.4550  483.2180 C.2    67  ILE67       0.2260
     52  O        -28.0830   11.4150  483.4560 O.2    67  ILE67      -0.2867
     53  CB       -27.1960   14.4120  483.7990 C.3    67  ILE67       0.0252
     54  CG1      -27.3450   15.1490  482.4690 C.3    67  ILE67       0.0019
     55  CG2      -26.0070   13.4500  483.8430 C.3    67  ILE67       0.0019
     56  CD1      -26.0600   15.3770  481.7170 C.3    67  ILE67       0.0001
     57  N        -25.4700   13.3780  476.2450 N.3    82  MET82      -0.1230
     58  CA       -26.3800   13.5520  477.3830 C.3    82  MET82       0.1702
     59  C        -27.4120   14.5970  477.0380 C.2    82  MET82       0.2592
     60  O        -27.2230   15.3740  476.0990 O.2    82  MET82      -0.2718
     61  CB       -25.6380   14.0930  478.6060 C.3    82  MET82       0.0401
     62  CG       -24.3080   13.4440  478.9350 C.3    82  MET82       0.0596
     63  SD       -23.2250   14.5610  479.8540 S.3    82  MET82      -0.1393
     64  CE       -22.2690   15.2880  478.5300 C.3    82  MET82       0.0692
     65  N        -28.4690   14.6680  477.8430 N.am   83  GLU83      -0.1966
     66  CA       -29.3690   15.8190  477.7950 C.3    83  GLU83       0.1733
     67  C        -28.6010   17.1200  478.0540 C.2    83  GLU83       0.2616
     68  O        -27.6020   17.1320  478.7850 O.2    83  GLU83      -0.2715
     69  CB       -30.5160   15.6850  478.8050 C.3    83  GLU83       0.0429
     70  CG       -30.1090   15.8040  480.2620 C.3    83  GLU83       0.1163
     71  CD       -31.2850   15.6410  481.2130 C.2    83  GLU83       0.3649
     72  OE1      -31.1700   14.8560  482.1740 O.co2  83  GLU83      -0.2457
     73  OE2      -32.3320   16.2890  481.0010 O.co2  83  GLU83      -0.2457
     74  N        -29.0730   18.2040  477.4400 N.am   84  TYR84      -0.1960
     75  CA       -28.5580   19.5420  477.7180 C.3    84  TYR84       0.1771
     76  C        -29.3200   20.1250  478.8930 C.2    84  TYR84       0.2619
     77  O        -30.5320   20.3350  478.8040 O.2    84  TYR84      -0.2715
     78  CB       -28.7210   20.4480  476.5050 C.3    84  TYR84       0.0574
     79  CG       -28.2430   21.8730  476.7110 C.ar   84  TYR84      -0.0198
     80  CD1      -26.9600   22.1430  477.2000 C.ar   84  TYR84      -0.0009
     81  CD2      -29.0620   22.9580  476.3840 C.ar   84  TYR84      -0.0009
     82  CE1      -26.5190   23.4490  477.3740 C.ar   84  TYR84       0.0417
     83  CE2      -28.6260   24.2640  476.5470 C.ar   84  TYR84       0.0417
     84  CZ       -27.3560   24.5040  477.0410 C.ar   84  TYR84       0.1957
     85  OH       -26.9250   25.8010  477.2070 O.3    84  TYR84      -0.2866
     86  N        -28.6050   20.3580  479.9930 N.am   85  VAL85      -0.1964
     87  CA       -29.1580   21.0260  481.1680 C.3    85  VAL85       0.1712
     88  C        -28.8200   22.5160  481.0360 C.2    85  VAL85       0.2458
     89  O        -27.6860   22.9270  481.3090 O.2    85  VAL85      -0.2730
     90  CB       -28.6080   20.4280  482.4800 C.3    85  VAL85       0.0289
     91  CG1      -29.4960   20.8220  483.6460 C.3    85  VAL85       0.0023
     92  CG2      -28.5030   18.9080  482.3860 C.3    85  VAL85       0.0023
     93  N        -29.8040   23.3280  480.5970 N.am   86  PRO86      -0.2716
     94  CA       -29.5260   24.6540  480.0160 C.3    86  PRO86       0.1536
     95  C        -29.0860   25.7790  480.9590 C.2    86  PRO86       0.2598
     96  O        -28.5510   26.7760  480.4790 O.2    86  PRO86      -0.2715
     97  CB       -30.8530   25.0190  479.3370 C.3    86  PRO86       0.0310
     98  CG       -31.8850   24.3050  480.1350 C.3    86  PRO86       0.0237
     99  CD       -31.2480   23.0230  480.5880 C.3    86  PRO86       0.0939
    100  N        -29.3090   25.6470  482.2660 N.am   87  LEU87      -0.1964
    101  CA       -28.9180   26.7080  483.2070 C.3    87  LEU87       0.1728
    102  C        -27.5110   26.5130  483.7750 C.2    87  LEU87       0.2617
    103  O        -27.0080   27.3680  484.5090 O.2    87  LEU87      -0.2715
    104  CB       -29.9450   26.8530  484.3390 C.3    87  LEU87       0.0311
    105  CG       -31.2420   27.5870  483.9710 C.3    87  LEU87       0.0022
    106  CD1      -32.2700   27.4950  485.0910 C.3    87  LEU87       0.0001
    107  CD2      -30.9700   29.0500  483.6450 C.3    87  LEU87       0.0001
    108  N        -26.8740   25.3970  483.4320 N.am   88  GLY88      -0.1940
    109  CA       -25.5230   25.1230  483.9080 C.3    88  GLY88       0.2014
    110  C        -25.4710   24.7580  485.3750 C.2    88  GLY88       0.2639
    111  O        -26.4700   24.3070  485.9480 O.2    88  GLY88      -0.2714
    112  N        -24.3000   24.9570  485.9770 N.am   89  SER89      -0.1949
    113  CA       -24.0310   24.4850  487.3380 C.3    89  SER89       0.1924
    114  C        -24.3870   25.5160  488.3960 C.2    89  SER89       0.2314
    115  O        -24.4520   26.7190  488.1200 O.2    89  SER89      -0.2863
    116  CB       -22.5560   24.0840  487.4950 C.3    89  SER89       0.2116
    117  OG       -21.7060   25.2150  487.6140 O.3    89  SER89      -0.2180
    118  N        -21.7190   28.3400  489.0700 N.3    92  ASP92      -0.1239
    119  CA       -21.7790   29.5140  488.1970 C.3    92  ASP92       0.1674
    120  C        -23.1490   30.2130  488.2520 C.2    92  ASP92       0.2266
    121  O        -23.2600   31.4090  487.9390 O.2    92  ASP92      -0.2867
    122  CB       -21.4000   29.1250  486.7630 C.3    92  ASP92       0.1410
    123  CG       -19.9920   28.5440  486.6700 C.2    92  ASP92       0.3668
    124  OD1      -19.8270   27.4760  486.0390 O.co2  92  ASP92      -0.2456
    125  OD2      -19.0520   29.1420  487.2440 O.co2  92  ASP92      -0.2456
    126  N        -20.4260   22.5780  491.5570 N.3   131  ARG131     -0.1231
    127  CA       -19.8900   22.6220  490.2030 C.3   131  ARG131      0.1694
    128  C        -20.4380   21.5210  489.2900 C.2   131  ARG131      0.2592
    129  O        -20.5760   21.7350  488.0830 O.2   131  ARG131     -0.2718
    130  CB       -18.3650   22.5140  490.3140 C.3   131  ARG131      0.0321
    131  CG       -17.6120   22.1920  489.0410 C.3   131  ARG131      0.0489
    132  CD       -16.3540   21.3820  489.3200 C.3   131  ARG131      0.2205
    133  NE       -16.1200   20.4690  488.2070 N.pl3 131  ARG131     -0.0865
    134  CZ       -15.3550   20.7170  487.1480 C.cat 131  ARG131      0.5346
    135  NH1      -14.6820   21.8590  487.0300 N.pl3 131  ARG131      0.1354
    136  NH2      -15.2470   19.7910  486.2010 N.pl3 131  ARG131      0.1354
    137  N        -20.7340   20.3480  489.8570 N.am  132  ASN132     -0.1974
    138  CA       -21.2180   19.1900  489.0810 C.3   132  ASN132      0.1688
    139  C        -22.7120   18.8860  489.2830 C.2   132  ASN132      0.2292
    140  O        -23.1790   17.8060  488.9380 O.2   132  ASN132     -0.2864
    141  CB       -20.3850   17.9500  489.4160 C.3   132  ASN132      0.1181
    142  CG       -18.8980   18.1500  489.1590 C.2   132  ASN132      0.2629
    143  OD1      -18.5000   18.6480  488.1100 O.2   132  ASN132     -0.2716
    144  ND2      -18.0670   17.7370  490.1110 N.am  132  ASN132     -0.0877
    145  N        -26.4540   20.4250  488.2140 N.3   134  LEU134     -0.1245
    146  CA       -26.9460   21.2960  487.1460 C.3   134  LEU134      0.1561
    147  C        -28.4240   21.5830  487.3180 C.2   134  LEU134      0.2260
    148  O        -29.1420   20.7870  487.9090 O.2   134  LEU134     -0.2867
    149  CB       -26.7240   20.6430  485.7830 C.3   134  LEU134      0.0270
    150  CG       -25.2880   20.3020  485.3700 C.3   134  LEU134      0.0019
    151  CD1      -25.2670   18.9920  484.5920 C.3   134  LEU134      0.0001
    152  CD2      -24.6550   21.4250  484.5610 C.3   134  LEU134      0.0001
    153  N        -21.5340   15.1420  485.7230 N.3   145  ASP145     -0.1239
    154  CA       -20.1270   14.7360  485.7620 C.3   145  ASP145      0.1674
    155  C        -19.8770   13.4650  486.5780 C.2   145  ASP145      0.2266
    156  O        -19.5170   13.5240  487.7560 O.2   145  ASP145     -0.2867
    157  CB       -19.2270   15.8820  486.2310 C.3   145  ASP145      0.1410
    158  CG       -17.7820   15.6970  485.7920 C.2   145  ASP145      0.3668
    159  OD1      -17.3430   14.5360  485.6450 O.co2 145  ASP145     -0.2456
    160  OD2      -17.0770   16.7060  485.5770 O.co2 145  ASP145     -0.2456
@<TRIPOS>BOND
     1     1     2    1
     2     2     5    1
     3     2     3    1
     4     5     6    1
     5     3     4    2
     6     6     7    1
     7     7     8    1
     8    47    46    2
     9    44    45    1
    10    46    45    1
    11     8     9    2
    12    45    48    1
    13    11     9    1
    14    60    59    2
    15    57    58    1
    16     9    10    1
    17    81    83   ar
    18    81    79   ar
    19    39    40    2
    20    39    38    1
    21    78    79    1
    22    78    75    1
    23    83    84   ar
    24    12    13    1
    25    79    80   ar
    26    19    17    1
    27    59    58    1
    28    59    65   am
    29    84    85    1
    30    84    82   ar
    31    17    18    1
    32    17    16    1
    33    80    82   ar
    34    58    61    1
    35    38    37    1
    36    38    41    1
    37    74    75    1
    38    74    67   am
    39    75    76    1
    40    66    65    1
    41    66    67    1
    42    66    69    1
    43    13    16    1
    44    13    14    1
    45    67    68    2
    46    42    41    1
    47    64    63    1
    48    41    43    1
    49    61    62    1
    50    77    76    2
    51    69    70    1
    52    76    86   am
    53    62    63    1
    54    14    20   am
    55    14    15    2
    56    20    21    1
    57    23    22    2
    58    97    94    1
    59    97    98    1
    60    32    30   ar
    61    31    30   ar
    62    86    87    1
    63    30    29    1
    64    94    93    1
    65    94    95    1
    66    98    99    1
    67    22    21    1
    68    22    24   am
    69    70    71    1
    70    96    95    2
    71    99    93    1
    72    93    88   am
    73    95   100   am
    74    73    71   ar
    75    88    87    1
    76    88    89    2
    77    29    28    1
    78    87    90    1
    79    71    72   ar
    80    24    25    1
    81    25    28    1
    82    25    26    1
    83    56    54    1
    84    33    26   am
    85    33    34    1
    86   100   101    1
    87    26    27    2
    88    92    90    1
    89    54    53    1
    90    90    91    1
    91    36    35    2
    92    34    35    1
    93   101   102    1
    94   101   104    1
    95    51    52    2
    96    51    50    1
    97   108   102   am
    98   108   109    1
    99   107   105    1
   100   102   103    2
   101    53    55    1
   102    53    50    1
   103   109   110    1
   104   105   104    1
   105   105   106    1
   106    50    49    1
   107   152   150    1
   108   151   150    1
   109   150   149    1
   110   110   111    2
   111   110   112   am
   112   160   158   ar
   113   159   158   ar
   114   153   154    1
   115   154   157    1
   116   154   155    1
   117   149   146    1
   118   158   157    1
   119   112   113    1
   120   124   123   ar
   121   136   134    1
   122   155   156    2
   123   123   122    1
   124   123   125   ar
   125   122   119    1
   126   135   134    1
   127   146   147    1
   128   146   145    1
   129   134   133    2
   130   147   148    2
   131   113   116    1
   132   113   114    1
   133   116   117    1
   134   121   120    2
   135   129   128    2
   136   143   142    2
   137   115   114    2
   138   119   120    1
   139   119   118    1
   140   133   132    1
   141   140   139    2
   142   131   132    1
   143   131   130    1
   144   138   139    1
   145   138   141    1
   146   138   137    1
   147   142   141    1
   148   142   144   am
   149   128   137   am
   150   128   127    1
   151   127   130    1
   152   127   126    1
