@<TRIPOS>MOLECULE
tmp/5f20A00.pdb
 169 160 0 0 0
SMALL
GASTEIGER

@<TRIPOS>ATOM
      1  N         23.4640  -25.9570   -4.6800 N.3    14  ARG14      -0.1245
      2  CA        22.3590  -26.4320   -3.8350 C.3    14  ARG14       0.1563
      3  C         21.8270  -25.3320   -2.9130 C.2    14  ARG14       0.2260
      4  O         22.4760  -24.3000   -2.7330 O.2    14  ARG14      -0.2867
      5  CB        22.8000  -27.6490   -3.0110 C.3    14  ARG14       0.0307
      6  CG        24.0320  -27.4150   -2.1480 C.3    14  ARG14       0.0489
      7  CD        24.6830  -28.7250   -1.7360 C.3    14  ARG14       0.2205
      8  NE        25.8260  -28.5060   -0.8480 N.pl3  14  ARG14      -0.0865
      9  CZ        25.7450  -28.2990    0.4690 C.cat  14  ARG14       0.5346
     10  NH1       26.8510  -28.1160    1.1750 N.pl3  14  ARG14       0.1354
     11  NH2       24.5720  -28.2690    1.0910 N.pl3  14  ARG14       0.1354
     12  N         20.8960  -24.0840    0.9260 N.3    16  LEU16      -0.1231
     13  CA        21.6980  -24.2520    2.1300 C.3    16  LEU16       0.1693
     14  C         20.8580  -24.2250    3.3780 C.2    16  LEU16       0.2593
     15  O         21.0090  -25.0720    4.2470 O.2    16  LEU16      -0.2718
     16  CB        22.7750  -23.1770    2.2040 C.3    16  LEU16       0.0284
     17  CG        23.9710  -23.4110    1.2880 C.3    16  LEU16       0.0019
     18  CD1       24.9570  -22.2650    1.4400 C.3    16  LEU16       0.0001
     19  CD2       24.6140  -24.7650    1.5910 C.3    16  LEU16       0.0001
     20  N         19.9770  -23.2420    3.4730 N.am   17  GLY17      -0.1942
     21  CA        19.0270  -23.1840    4.5640 C.3    17  GLY17       0.2014
     22  C         17.9540  -22.1480    4.3370 C.2    17  GLY17       0.2639
     23  O         17.8490  -21.5610    3.2630 O.2    17  GLY17      -0.2714
     24  N         17.1310  -21.9590    5.3550 N.am   18  GLU18      -0.1963
     25  CA        16.2060  -20.8490    5.4170 C.3    18  GLU18       0.1733
     26  C         16.8740  -19.8560    6.3420 C.2    18  GLU18       0.2616
     27  O         17.2220  -20.1970    7.4600 O.2    18  GLU18      -0.2715
     28  CB        14.8790  -21.3040    6.0240 C.3    18  GLU18       0.0429
     29  CG        13.6700  -20.5280    5.5520 C.3    18  GLU18       0.1163
     30  CD        13.2990  -20.9010    4.1380 C.2    18  GLU18       0.3649
     31  OE1       13.6650  -20.1220    3.2320 O.co2  18  GLU18      -0.2457
     32  OE2       12.6800  -21.9750    3.9360 O.co2  18  GLU18      -0.2457
     33  N         17.1030  -18.6450    5.8690 N.am   19  GLY19      -0.1955
     34  CA        17.5890  -17.5840    6.7400 C.3    19  GLY19       0.1869
     35  C         16.3710  -16.7970    7.1540 C.2    19  GLY19       0.2309
     36  O         15.2350  -17.2000    6.8890 O.2    19  GLY19      -0.2863
     37  N         18.6670  -19.3250    1.4740 N.3    24  VAL24      -0.1245
     38  CA        20.1100  -19.2740    1.1620 C.3    24  VAL24       0.1561
     39  C         20.5900  -20.4640    0.3350 C.2    24  VAL24       0.2260
     40  O         20.1610  -21.6070    0.5440 O.2    24  VAL24      -0.2867
     41  CB        20.9810  -19.1290    2.4240 C.3    24  VAL24       0.0252
     42  CG1       22.4690  -19.2590    2.0920 C.3    24  VAL24       0.0019
     43  CG2       20.6760  -17.8040    3.1060 C.3    24  VAL24       0.0019
     44  N         27.9190  -17.7040   -1.1150 N.3    41  ALA41      -0.1245
     45  CA        26.5780  -17.9280   -0.5820 C.3    41  ALA41       0.1562
     46  C         25.6950  -16.7270   -0.9000 C.2    41  ALA41       0.2260
     47  O         26.1030  -15.5570   -0.7370 O.2    41  ALA41      -0.2867
     48  CB        26.6310  -18.1700    0.9190 C.3    41  ALA41       0.0290
     49  N         21.8760  -14.9260   -0.4790 N.3    43  LYS43      -0.1245
     50  CA        20.6130  -14.8980    0.2450 C.3    43  LYS43       0.1561
     51  C         19.6000  -14.0890   -0.5450 C.2    43  LYS43       0.2260
     52  O         19.7910  -12.8930   -0.7840 O.2    43  LYS43      -0.2867
     53  CB        20.7820  -14.3710    1.6740 C.3    43  LYS43       0.0271
     54  CG        19.5340  -14.5050    2.5450 C.3    43  LYS43       0.0035
     55  CD        19.8040  -14.0680    3.9840 C.3    43  LYS43       0.0206
     56  CE        18.5950  -14.2180    4.9060 C.3    43  LYS43       0.1093
     57  NZ        19.0450  -14.5020    6.3030 N.3    43  LYS43      -0.1314
     58  N         30.4810  -13.0580    9.3000 N.3    64  ILE64      -0.1245
     59  CA        30.4390  -13.4710    7.9080 C.3    64  ILE64       0.1561
     60  C         30.7350  -12.2810    6.9690 C.2    64  ILE64       0.2260
     61  O         30.1660  -11.2010    7.1410 O.2    64  ILE64      -0.2867
     62  CB        29.0930  -14.1660    7.6200 C.3    64  ILE64       0.0252
     63  CG1       29.2200  -15.0980    6.4400 C.3    64  ILE64       0.0019
     64  CG2       27.9500  -13.1780    7.4290 C.3    64  ILE64       0.0019
     65  CD1       28.2040  -16.2070    6.5110 C.3    64  ILE64       0.0001
     66  N         27.4070  -13.5280    0.1110 N.3    78  MET78      -0.1230
     67  CA        28.2940  -13.5710    1.2750 C.3    78  MET78       0.1702
     68  C         29.4510  -14.5140    1.0270 C.2    78  MET78       0.2592
     69  O         29.4030  -15.3410    0.1090 O.2    78  MET78      -0.2718
     70  CB        27.5510  -14.0760    2.5220 C.3    78  MET78       0.0401
     71  CG        26.2090  -13.4240    2.7790 C.3    78  MET78       0.0596
     72  SD        25.1480  -14.4570    3.8100 S.3    78  MET78      -0.1393
     73  CE        24.3570  -15.5700    2.6510 C.3    78  MET78       0.0692
     74  N         30.4730  -14.3930    1.8740 N.am   79  GLU79      -0.1966
     75  CA        31.5440  -15.3630    1.9420 C.3    79  GLU79       0.1733
     76  C         30.9530  -16.7330    2.2770 C.2    79  GLU79       0.2616
     77  O         30.0220  -16.8520    3.0830 O.2    79  GLU79      -0.2715
     78  CB        32.6390  -14.9420    2.9480 C.3    79  GLU79       0.0429
     79  CG        32.4280  -15.3310    4.4220 C.3    79  GLU79       0.1163
     80  CD        33.7160  -15.3030    5.2670 C.2    79  GLU79       0.3649
     81  OE1       33.7200  -14.6800    6.3590 O.co2  79  GLU79      -0.2457
     82  OE2       34.7330  -15.9090    4.8540 O.co2  79  GLU79      -0.2457
     83  N         31.4930  -17.7620    1.6320 N.am   80  TYR80      -0.1960
     84  CA        31.0470  -19.1160    1.8780 C.3    80  TYR80       0.1771
     85  C         31.7620  -19.7690    3.0530 C.2    80  TYR80       0.2619
     86  O         32.9930  -19.8670    3.0890 O.2    80  TYR80      -0.2715
     87  CB        31.2110  -19.9710    0.6370 C.3    80  TYR80       0.0574
     88  CG        30.6040  -21.3400    0.7900 C.ar   80  TYR80      -0.0198
     89  CD1       29.2950  -21.5020    1.2670 C.ar   80  TYR80      -0.0009
     90  CD2       31.3260  -22.4770    0.4520 C.ar   80  TYR80      -0.0009
     91  CE1       28.7300  -22.7640    1.4040 C.ar   80  TYR80       0.0417
     92  CE2       30.7670  -23.7400    0.5770 C.ar   80  TYR80       0.0417
     93  CZ        29.4730  -23.8770    1.0480 C.ar   80  TYR80       0.1957
     94  OH        28.9370  -25.1380    1.1610 O.3    80  TYR80      -0.2866
     95  N         30.9670  -20.2140    4.0180 N.am   81  VAL81      -0.1964
     96  CA        31.4950  -20.9190    5.1760 C.3    81  VAL81       0.1712
     97  C         31.1610  -22.4040    5.0260 C.2    81  VAL81       0.2458
     98  O         30.0200  -22.8370    5.2370 O.2    81  VAL81      -0.2730
     99  CB        31.0000  -20.3210    6.5050 C.3    81  VAL81       0.0289
    100  CG1       31.9290  -20.7310    7.6220 C.3    81  VAL81       0.0023
    101  CG2       30.9570  -18.7960    6.4240 C.3    81  VAL81       0.0023
    102  N         32.1730  -23.1830    4.6230 N.am   82  PRO82      -0.2716
    103  CA        32.0480  -24.5600    4.1720 C.3    82  PRO82       0.1536
    104  C         31.2400  -25.4960    5.0680 C.2    82  PRO82       0.2598
    105  O         30.4850  -26.3100    4.5480 O.2    82  PRO82      -0.2715
    106  CB        33.5100  -25.0400    4.0600 C.3    82  PRO82       0.0310
    107  CG        34.3730  -23.9200    4.5490 C.3    82  PRO82       0.0237
    108  CD        33.5460  -22.6790    4.4460 C.3    82  PRO82       0.0939
    109  N         31.3840  -25.3810    6.3850 N.am   83  LEU83      -0.1964
    110  CA        30.9210  -26.4410    7.3030 C.3    83  LEU83       0.1728
    111  C         29.5020  -26.2740    7.8660 C.2    83  LEU83       0.2617
    112  O         28.9980  -27.1560    8.5700 O.2    83  LEU83      -0.2715
    113  CB        31.9310  -26.6460    8.4420 C.3    83  LEU83       0.0311
    114  CG        33.2210  -27.4250    8.1690 C.3    83  LEU83       0.0022
    115  CD1       34.1050  -26.7560    7.1310 C.3    83  LEU83       0.0001
    116  CD2       34.0030  -27.5760    9.4550 C.3    83  LEU83       0.0001
    117  N         28.8600  -25.1520    7.5540 N.am   84  GLY84      -0.1940
    118  CA        27.5090  -24.8900    8.0350 C.3    84  GLY84       0.2014
    119  C         27.4370  -24.5670    9.5150 C.2    84  GLY84       0.2639
    120  O         28.4670  -24.4560   10.1940 O.2    84  GLY84      -0.2714
    121  N         26.2030  -24.4130    9.9970 N.am   85  SER85      -0.1949
    122  CA        25.9020  -24.0700   11.3850 C.3    85  SER85       0.1924
    123  C         26.3780  -25.1540   12.3440 C.2    85  SER85       0.2314
    124  O         26.4260  -26.3310   11.9830 O.2    85  SER85      -0.2863
    125  CB        24.3990  -23.8690   11.5530 C.3    85  SER85       0.2116
    126  OG        23.6970  -25.1020   11.5860 O.3    85  SER85      -0.2180
    127  N         24.1330  -28.1670   13.2550 N.3    88  ASP88      -0.1239
    128  CA        24.2470  -29.4130   12.4870 C.3    88  ASP88       0.1674
    129  C         25.5930  -30.1070   12.6920 C.2    88  ASP88       0.2266
    130  O         25.6570  -31.3460   12.7180 O.2    88  ASP88      -0.2867
    131  CB        24.0080  -29.1590   11.0000 C.3    88  ASP88       0.1410
    132  CG        22.6280  -28.5990   10.7210 C.2    88  ASP88       0.3668
    133  OD1       22.4840  -27.8320    9.7460 O.co2  88  ASP88      -0.2456
    134  OD2       21.6860  -28.9180   11.4800 O.co2  88  ASP88      -0.2456
    135  N         22.3080  -22.6270   15.4440 N.3   127  ARG127     -0.1231
    136  CA        21.7920  -22.4300   14.0860 C.3   127  ARG127      0.1694
    137  C         22.6330  -21.5180   13.2140 C.2   127  ARG127      0.2592
    138  O         22.9340  -21.8550   12.0680 O.2   127  ARG127     -0.2718
    139  CB        20.4780  -21.6870   14.1900 C.3   127  ARG127      0.0321
    140  CG        19.2350  -22.4940   14.0530 C.3   127  ARG127      0.0489
    141  CD        18.2210  -21.6180   13.3670 C.3   127  ARG127      0.2205
    142  NE        18.5610  -21.5020   11.9570 N.pl3 127  ARG127     -0.0865
    143  CZ        17.7010  -21.1730   11.0020 C.cat 127  ARG127      0.5346
    144  NH1       16.4300  -20.9160   11.2960 N.pl3 127  ARG127      0.1354
    145  NH2       18.1200  -21.1090    9.7500 N.pl3 127  ARG127      0.1354
    146  N         22.9610  -20.3450   13.7660 N.am  128  ASN128     -0.1974
    147  CA        23.4190  -19.2020   12.9960 C.3   128  ASN128      0.1688
    148  C         24.8580  -18.8650   13.2800 C.2   128  ASN128      0.2292
    149  O         25.2990  -17.7410   13.0520 O.2   128  ASN128     -0.2864
    150  CB        22.5350  -17.9990   13.2880 C.3   128  ASN128      0.1181
    151  CG        21.0580  -18.3050   13.1070 C.2   128  ASN128      0.2629
    152  OD1       20.6610  -19.0870   12.2300 O.2   128  ASN128     -0.2716
    153  ND2       20.2300  -17.6830   13.9340 N.am  128  ASN128     -0.0877
    154  N         28.4390  -20.2880   12.1180 N.3   130  LEU130     -0.1245
    155  CA        28.9810  -21.1910   11.1000 C.3   130  LEU130      0.1561
    156  C         30.4670  -21.4560   11.2960 C.2   130  LEU130      0.2260
    157  O         31.1920  -20.5990   11.8290 O.2   130  LEU130     -0.2867
    158  CB        28.7490  -20.6170    9.6980 C.3   130  LEU130      0.0270
    159  CG        27.3260  -20.2310    9.2980 C.3   130  LEU130      0.0019
    160  CD1       27.3590  -18.9970    8.4130 C.3   130  LEU130      0.0001
    161  CD2       26.6010  -21.3690    8.6100 C.3   130  LEU130      0.0001
    162  N         23.3600  -15.0320    9.4840 N.3   141  ASP141     -0.1239
    163  CA        21.9490  -14.6190    9.4490 C.3   141  ASP141      0.1674
    164  C         21.6070  -13.3210   10.1830 C.2   141  ASP141      0.2266
    165  O         21.0560  -13.3410   11.2760 O.2   141  ASP141     -0.2867
    166  CB        21.0230  -15.7630    9.8780 C.3   141  ASP141      0.1410
    167  CG        19.5460  -15.4600    9.6120 C.2   141  ASP141      0.3668
    168  OD1       19.2060  -14.3590    9.1130 O.co2 141  ASP141     -0.2456
    169  OD2       18.7100  -16.3330    9.9170 O.co2 141  ASP141     -0.2456
@<TRIPOS>BOND
     1     1     2    1
     2     2     5    1
     3     2     3    1
     4     5     6    1
     5     3     4    2
     6     6     7    1
     7     7     8    1
     8    44    45    1
     9    46    47    2
    10    46    45    1
    11     8     9    2
    12    52    51    2
    13    45    48    1
    14    51    50    1
    15    49    50    1
    16    69    68    2
    17    66    67    1
    18    50    53    1
    19    39    40    2
    20    39    38    1
    21    90    92   ar
    22    90    88   ar
    23     9    11    1
    24     9    10    1
    25    92    93   ar
    26    87    88    1
    27    87    84    1
    28    88    89   ar
    29    12    13    1
    30    68    67    1
    31    68    74   am
    32    93    94    1
    33    93    91   ar
    34    38    37    1
    35    38    41    1
    36    89    91   ar
    37    67    70    1
    38    17    18    1
    39    17    19    1
    40    17    16    1
    41    83    84    1
    42    83    76   am
    43    53    54    1
    44    74    75    1
    45    84    85    1
    46    75    76    1
    47    75    78    1
    48    42    41    1
    49    13    16    1
    50    13    14    1
    51    76    77    2
    52    41    43    1
    53    70    71    1
    54    54    55    1
    55    73    72    1
    56    71    72    1
    57    78    79    1
    58    85    86    2
    59    85    95   am
    60    31    30   ar
    61    23    22    2
    62    14    20   am
    63    14    15    2
    64    20    21    1
    65    32    30   ar
    66    55    56    1
    67    95    96    1
    68   106   103    1
    69   106   107    1
    70    30    29    1
    71   103   102    1
    72   103   104    1
    73    22    21    1
    74    22    24   am
    75    79    80    1
    76   108   107    1
    77   108   102    1
    78   105   104    2
    79   102    97   am
    80    82    80   ar
    81    56    57    1
    82    97    96    1
    83    97    98    2
    84   104   109   am
    85    96    99    1
    86    80    81   ar
    87    24    25    1
    88    25    28    1
    89    25    26    1
    90    29    28    1
    91    33    26   am
    92    33    34    1
    93    26    27    2
    94   109   110    1
    95   101    99    1
    96    63    65    1
    97    63    62    1
    98    99   100    1
    99    34    35    1
   100    36    35    2
   101    60    61    2
   102    60    59    1
   103   115   114    1
   104   110   111    1
   105   110   113    1
   106    64    62    1
   107   117   111   am
   108   117   118    1
   109    62    59    1
   110   111   112    2
   111    59    58    1
   112   118   119    1
   113   114   113    1
   114   114   116    1
   115   160   159    1
   116   161   159    1
   117   168   167   ar
   118   159   158    1
   119   163   162    1
   120   163   166    1
   121   163   164    1
   122   119   121   am
   123   119   120    2
   124   167   166    1
   125   167   169   ar
   126   158   155    1
   127   133   132   ar
   128   145   143    1
   129   121   122    1
   130   164   165    2
   131   132   131    1
   132   132   134   ar
   133   131   128    1
   134   143   144    1
   135   143   142    2
   136   155   156    1
   137   155   154    1
   138   156   157    2
   139   122   125    1
   140   122   123    1
   141   125   126    1
   142   142   141    1
   143   124   123    2
   144   138   137    2
   145   152   151    2
   146   128   129    1
   147   128   127    1
   148   129   130    2
   149   147   148    1
   150   147   150    1
   151   147   146    1
   152   149   148    2
   153   151   150    1
   154   151   153   am
   155   137   146   am
   156   137   136    1
   157   141   140    1
   158   140   139    1
   159   136   139    1
   160   136   135    1
