@<TRIPOS>MOLECULE
tmp/5f23A00.pdb
 136 132 0 0 0
SMALL
GASTEIGER

@<TRIPOS>ATOM
      1  N        -17.9660    9.6670    9.2120 N.3   141  LYS141     -0.1245
      2  CA       -17.3450    9.0210    8.0630 C.3   141  LYS141      0.1561
      3  C        -16.1860    9.8510    7.5370 C.2   141  LYS141      0.2260
      4  O        -15.1380    9.2990    7.1770 O.2   141  LYS141     -0.2867
      5  CB       -18.3730    8.8030    6.9600 C.3   141  LYS141      0.0271
      6  CG       -19.5370    7.9200    7.3500 C.3   141  LYS141      0.0035
      7  CD       -19.0550    6.5410    7.7540 C.3   141  LYS141      0.0206
      8  CE       -20.2020    5.5460    7.7710 C.3   141  LYS141      0.1093
      9  NZ       -21.3340    6.0910    8.5700 N.3   141  LYS141     -0.1314
     10  N        -13.0660    9.2900    9.6030 N.3   144  PHE144     -0.1241
     11  CA       -12.3850    8.0330    9.2930 C.3   144  PHE144      0.1605
     12  C        -11.6570    8.1050    7.9560 C.2   144  PHE144      0.2264
     13  O        -10.5410    7.5960    7.8390 O.2   144  PHE144     -0.2867
     14  CB       -13.3670    6.8570    9.2920 C.3   144  PHE144      0.0534
     15  CG       -13.5660    6.2370   10.6440 C.ar  144  PHE144     -0.0203
     16  CD1      -12.5210    5.5920   11.2830 C.ar  144  PHE144     -0.0042
     17  CD2      -14.8000    6.2910   11.2730 C.ar  144  PHE144     -0.0042
     18  CE1      -12.6950    5.0280   12.5340 C.ar  144  PHE144     -0.0003
     19  CE2      -14.9850    5.7200   12.5240 C.ar  144  PHE144     -0.0003
     20  CZ       -13.9320    5.0880   13.1530 C.ar  144  PHE144     -0.0000
     21  N         -7.5990    7.6780    7.5860 N.3   148  ASN148     -0.1240
     22  CA        -6.9330    6.7040    6.7260 C.3   148  ASN148      0.1653
     23  C         -6.0360    7.3750    5.6920 C.2   148  ASN148      0.2266
     24  O         -4.9770    6.8180    5.3690 O.2   148  ASN148     -0.2867
     25  CB        -7.9770    5.7990    6.0600 C.3   148  ASN148      0.1155
     26  CG        -8.5500    4.7750    7.0340 C.2   148  ASN148      0.2627
     27  OD1       -7.8240    4.2430    7.8840 O.2   148  ASN148     -0.2716
     28  ND2       -9.8500    4.5090    6.9360 N.am  148  ASN148     -0.0877
     29  N         -2.0350    6.5380    5.3560 N.3   152  ARG152     -0.1245
     30  CA        -1.4220    6.1830    4.0740 C.3   152  ARG152      0.1563
     31  C         -0.3310    7.1650    3.6890 C.2   152  ARG152      0.2260
     32  O          0.7110    6.7460    3.1620 O.2   152  ARG152     -0.2867
     33  CB        -2.4900    6.0710    2.9820 C.3   152  ARG152      0.0307
     34  CG        -3.3820    4.8470    3.1810 C.3   152  ARG152      0.0489
     35  CD        -4.3720    4.6160    2.0070 C.3   152  ARG152      0.2205
     36  NE        -5.1090    3.3960    2.2970 N.pl3 152  ARG152     -0.0865
     37  CZ        -6.3730    3.3330    2.7120 C.cat 152  ARG152      0.5346
     38  NH1       -7.1030    4.4430    2.8060 N.pl3 152  ARG152      0.1354
     39  NH2       -6.8900    2.1410    3.0210 N.pl3 152  ARG152      0.1354
     40  N         -7.6700   -8.5660   14.2890 N.3   180  MET180     -0.1230
     41  CA        -8.7900   -7.6350   14.2250 C.3   180  MET180      0.1702
     42  C         -8.7570   -6.7350   12.9980 C.2   180  MET180      0.2593
     43  O         -9.6680   -5.9140   12.8100 O.2   180  MET180     -0.2718
     44  CB        -8.8090   -6.7530   15.4730 C.3   180  MET180      0.0401
     45  CG        -8.8580   -7.5380   16.8010 C.3   180  MET180      0.0596
     46  SD       -10.3550   -8.5380   16.9530 S.3   180  MET180     -0.1393
     47  CE       -11.5500   -7.3080   17.4120 C.3   180  MET180      0.0692
     48  N         -7.7130   -6.8220   12.1870 N.am  181  GLY181     -0.1942
     49  CA        -7.5880   -5.8530   11.1220 C.3   181  GLY181      0.2014
     50  C         -7.4000   -4.4260   11.6030 C.2   181  GLY181      0.2639
     51  O         -7.8260   -3.4870   10.9110 O.2   181  GLY181     -0.2714
     52  N         -6.7230   -4.2390   12.7480 N.am  182  PHE182     -0.1959
     53  CA        -6.5550   -2.9390   13.4010 C.3   182  PHE182      0.1771
     54  C         -5.3600   -2.1930   12.8020 C.2   182  PHE182      0.2620
     55  O         -4.3630   -1.9230   13.4680 O.2   182  PHE182     -0.2715
     56  CB        -6.3350   -3.1100   14.9020 C.3   182  PHE182      0.0574
     57  CG        -7.5760   -3.3440   15.7330 C.ar  182  PHE182     -0.0200
     58  CD1       -8.8490   -3.0730   15.2620 C.ar  182  PHE182     -0.0042
     59  CD2       -7.4380   -3.8260   17.0420 C.ar  182  PHE182     -0.0042
     60  CE1       -9.9710   -3.2920   16.0760 C.ar  182  PHE182     -0.0003
     61  CE2       -8.5540   -4.0430   17.8480 C.ar  182  PHE182     -0.0003
     62  CZ        -9.8150   -3.7760   17.3620 C.ar  182  PHE182     -0.0000
     63  N         -5.4540   -1.9280   11.5070 N.am  183  PHE183     -0.1960
     64  CA        -4.4680   -1.1580   10.7650 C.3   183  PHE183      0.1771
     65  C         -5.1660   -0.6700    9.5180 C.2   183  PHE183      0.2620
     66  O         -6.2220   -1.1820    9.1500 O.2   183  PHE183     -0.2715
     67  CB        -3.2180   -1.9770   10.3910 C.3   183  PHE183      0.0574
     68  CG        -3.5210   -3.2260    9.6410 C.ar  183  PHE183     -0.0200
     69  CD1       -3.5620   -3.2270    8.2460 C.ar  183  PHE183     -0.0042
     70  CD2       -3.7850   -4.4170   10.3250 C.ar  183  PHE183     -0.0042
     71  CE1       -3.8400   -4.3870    7.5560 C.ar  183  PHE183     -0.0003
     72  CE2       -4.0690   -5.5910    9.6290 C.ar  183  PHE183     -0.0003
     73  CZ        -4.0800   -5.5760    8.2300 C.ar  183  PHE183     -0.0000
     74  N         -4.5600    0.3160    8.8720 N.am  184  THR184     -0.1937
     75  CA        -5.0780    0.8260    7.6070 C.3   184  THR184      0.2028
     76  C         -4.4750    0.0100    6.4710 C.2   184  THR184      0.2642
     77  O         -3.2510   -0.1140    6.3740 O.2   184  THR184     -0.2714
     78  CB        -4.7670    2.3160    7.4420 C.3   184  THR184      0.1808
     79  OG1       -5.4270    3.0570    8.4790 O.3   184  THR184     -0.2208
     80  CG2       -5.1990    2.8290    6.0560 C.3   184  THR184      0.0379
     81  N         -5.3440   -0.5610    5.6450 N.am  185  LYS185     -0.1977
     82  CA        -4.9410   -1.2840    4.4430 C.3   185  LYS185      0.1596
     83  C         -4.0810   -0.3950    3.5540 C.2   185  LYS185      0.2287
     84  O         -4.5110    0.6870    3.1570 O.2   185  LYS185     -0.2864
     85  CB        -6.1980   -1.7430    3.6920 C.3   185  LYS185      0.0298
     86  CG        -5.9150   -2.7440    2.5960 C.3   185  LYS185      0.0038
     87  CD        -7.2370   -3.1880    1.9740 C.3   185  LYS185      0.0206
     88  CE        -7.0450   -4.3990    1.0950 C.3   185  LYS185      0.1093
     89  NZ        -8.3440   -4.8640    0.5190 N.3   185  LYS185     -0.1314
     90  N        -13.0990   -3.0670   18.8980 N.3   222  HIS222     -0.1241
     91  CA       -14.4400   -3.5220   18.5340 C.3   222  HIS222      0.1621
     92  C        -15.2690   -3.9250   19.7490 C.2   222  HIS222      0.2264
     93  O        -16.2040   -4.7190   19.6310 O.2   222  HIS222     -0.2867
     94  CB       -14.3540   -4.6990   17.5590 C.3   222  HIS222      0.0745
     95  CG       -14.2040   -4.2880   16.1280 C.ar  222  HIS222      0.0817
     96  ND1      -15.1670   -4.5470   15.1760 N.ar  222  HIS222     -0.2268
     97  CD2      -13.2110   -3.6250   15.4890 C.ar  222  HIS222      0.1154
     98  CE1      -14.7710   -4.0650   14.0110 C.ar  222  HIS222      0.1986
     99  NE2      -13.5870   -3.5010   14.1730 N.ar  222  HIS222     -0.2212
    100  N        -14.3130  -10.6690    8.5660 N.3   252  LYS252     -0.1245
    101  CA       -14.6420   -9.4640    7.8110 C.3   252  LYS252      0.1561
    102  C        -13.4100   -8.7280    7.3190 C.2   252  LYS252      0.2260
    103  O        -13.5150   -7.9520    6.3580 O.2   252  LYS252     -0.2867
    104  CB       -15.4880   -8.5080    8.6590 C.3   252  LYS252      0.0271
    105  CG       -16.9520   -8.9140    8.7780 C.3   252  LYS252      0.0035
    106  CD       -17.6830   -7.9710    9.7120 C.3   252  LYS252      0.0206
    107  CE       -19.1920   -8.0840    9.5350 C.3   252  LYS252      0.1093
    108  NZ       -19.6450   -9.4960    9.6470 N.3   252  LYS252     -0.1314
    109  N         -9.5760   -9.7070    3.8230 N.3   255  HIS255     -0.1226
    110  CA        -9.0350   -9.0420    2.6420 C.3   255  HIS255      0.1752
    111  C         -7.8070   -8.2020    2.9630 C.2   255  HIS255      0.2595
    112  O         -6.9780   -7.9580    2.0740 O.2   255  HIS255     -0.2718
    113  CB       -10.1200   -8.1760    1.9900 C.3   255  HIS255      0.0759
    114  CG       -10.5420   -7.0170    2.8340 C.ar  255  HIS255      0.0818
    115  ND1       -9.9930   -5.7600    2.7070 N.ar  255  HIS255     -0.2268
    116  CD2      -11.4330   -6.9350    3.8550 C.ar  255  HIS255      0.1154
    117  CE1      -10.5570   -4.9400    3.5790 C.ar  255  HIS255      0.1986
    118  NE2      -11.4360   -5.6320    4.2880 N.ar  255  HIS255     -0.2212
    119  N         -7.6470   -7.7950    4.2140 N.am  256  LYS256     -0.1980
    120  CA        -6.5160   -6.9770    4.6120 C.3   256  LYS256      0.1596
    121  C         -5.2770   -7.8000    4.8720 C.2   256  LYS256      0.2287
    122  O         -4.1860   -7.2170    4.9570 O.2   256  LYS256     -0.2864
    123  CB        -6.8410   -6.1630    5.8780 C.3   256  LYS256      0.0298
    124  CG        -8.0430   -5.2610    5.7230 C.3   256  LYS256      0.0038
    125  CD        -8.5150   -4.5830    6.9970 C.3   256  LYS256      0.0206
    126  CE        -7.7370   -3.3530    7.2850 C.3   256  LYS256      0.1093
    127  NZ        -8.5040   -2.4490    8.2250 N.3   256  LYS256     -0.1314
    128  N         -7.3940   -9.3320   -4.5500 N.3   261  LYS261     -0.1245
    129  CA        -8.1850  -10.4170   -5.1220 C.3   261  LYS261      0.1561
    130  C         -7.9880  -10.5040   -6.6270 C.2   261  LYS261      0.2260
    131  O         -7.8970   -9.4860   -7.3110 O.2   261  LYS261     -0.2867
    132  CB        -9.6690  -10.2200   -4.8120 C.3   261  LYS261      0.0271
    133  CG       -10.0030  -10.3500   -3.3270 C.3   261  LYS261      0.0035
    134  CD       -11.5070  -10.3170   -3.1140 C.3   261  LYS261      0.0206
    135  CE       -11.8980  -10.6170   -1.6770 C.3   261  LYS261      0.1093
    136  NZ       -13.3860  -10.6620   -1.5630 N.3   261  LYS261     -0.1314
@<TRIPOS>BOND
     1   131   130    2
     2   130   129    1
     3   129   132    1
     4   129   128    1
     5   132   133    1
     6   133   134    1
     7   134   135    1
     8   135   136    1
     9    89    88    1
    10    88    87    1
    11    87    86    1
    12   113   110    1
    13   113   114    1
    14    35    36    1
    15    35    34    1
    16   112   111    2
    17    36    37    2
    18    86    85    1
    19   110   111    1
    20   110   109    1
    21   115   114   ar
    22   115   117   ar
    23    37    38    1
    24    37    39    1
    25   114   116   ar
    26   111   119   am
    27    33    34    1
    28    33    30    1
    29    84    83    2
    30    32    31    2
    31    83    82    1
    32   117   118   ar
    33    31    30    1
    34    85    82    1
    35   116   118   ar
    36    30    29    1
    37   119   120    1
    38    82    81    1
    39   120   121    1
    40   120   123    1
    41   121   122    2
    42    24    23    2
    43    81    76   am
    44    23    22    1
    45   124   123    1
    46   124   125    1
    47    80    78    1
    48    25    22    1
    49    25    26    1
    50   103   102    2
    51    77    76    2
    52    76    75    1
    53    22    21    1
    54    28    26   am
    55     5     6    1
    56     5     2    1
    57   125   126    1
    58    26    27    2
    59     4     3    2
    60   126   127    1
    61   102   101    1
    62     6     7    1
    63    78    75    1
    64    78    79    1
    65     3     2    1
    66    71    73   ar
    67    71    69   ar
    68    75    74    1
    69     7     8    1
    70     8     9    1
    71   101   100    1
    72   101   104    1
    73    13    12    2
    74    12    11    1
    75     2     1    1
    76    73    72   ar
    77    69    68   ar
    78   104   105    1
    79   105   106    1
    80    74    65   am
    81    66    65    2
    82    14    11    1
    83    14    15    1
    84    11    10    1
    85    65    64    1
    86   107   108    1
    87   107   106    1
    88    72    70   ar
    89    68    70   ar
    90    68    67    1
    91    67    64    1
    92    15    17   ar
    93    15    16   ar
    94    64    63    1
    95    51    50    2
    96    49    50    1
    97    49    48    1
    98    17    19   ar
    99    16    18   ar
   100    63    54   am
   101    50    52   am
   102    48    42   am
   103    19    20   ar
   104    18    20   ar
   105    52    53    1
   106    54    53    1
   107    54    55    2
   108    43    42    2
   109    42    41    1
   110    53    56    1
   111    98    99   ar
   112    98    96   ar
   113    99    97   ar
   114    41    40    1
   115    41    44    1
   116    56    57    1
   117    96    95   ar
   118    58    57   ar
   119    58    60   ar
   120    44    45    1
   121    97    95   ar
   122    57    59   ar
   123    60    62   ar
   124    95    94    1
   125    45    46    1
   126    46    47    1
   127    59    61   ar
   128    62    61   ar
   129    94    91    1
   130    91    90    1
   131    91    92    1
   132    93    92    2
