@<TRIPOS>MOLECULE
tmp/5f23A01.pdb
 126 119 0 0 0
SMALL
GASTEIGER

@<TRIPOS>ATOM
      1  N          6.0190    6.4880   16.7320 N.3    57  SER57      -0.1217
      2  CA         4.7790    7.1700   17.0900 C.3    57  SER57       0.1889
      3  C          4.6780    7.5320   18.5640 C.2    57  SER57       0.2288
      4  O          3.8380    8.3670   18.9300 O.2    57  SER57      -0.2866
      5  CB         3.5920    6.2700   16.7400 C.3    57  SER57       0.2089
      6  OG         3.6350    5.1230   17.5800 O.3    57  SER57      -0.2183
      7  N          4.0470    4.8670   20.6000 N.3    59  GLY59      -0.1210
      8  CA         3.4390    3.6520   21.1070 C.3    59  GLY59       0.1956
      9  C          4.4410    2.5240   21.2370 C.2    59  GLY59       0.2612
     10  O          5.5220    2.5620   20.6550 O.2    59  GLY59      -0.2717
     11  N          4.0510    1.4810   21.9770 N.am   60  VAL60      -0.1965
     12  CA         5.0000    0.4220   22.3270 C.3    60  VAL60       0.1727
     13  C          5.3850   -0.4060   21.1040 C.2    60  VAL60       0.2616
     14  O          6.4690   -0.9940   21.0740 O.2    60  VAL60      -0.2715
     15  CB         4.4270   -0.4730   23.4530 C.3    60  VAL60       0.0290
     16  CG1        3.1940   -1.2440   22.9760 C.3    60  VAL60       0.0023
     17  CG2        5.5160   -1.4330   24.0330 C.3    60  VAL60       0.0023
     18  N          4.5160   -0.4930   20.0890 N.am   61  ASP61      -0.1957
     19  CA         4.8310   -1.3550   18.9520 C.3    61  ASP61       0.1840
     20  C          5.9980   -0.7880   18.1510 C.2    61  ASP61       0.2622
     21  O          6.9900   -1.4940   17.8920 O.2    61  ASP61      -0.2715
     22  CB         3.6060   -1.5380   18.0440 C.3    61  ASP61       0.1450
     23  CG         2.4490   -2.1820   18.7470 C.2    61  ASP61       0.3671
     24  OD1        2.6190   -2.7100   19.8700 O.co2  61  ASP61      -0.2456
     25  OD2        1.3530   -2.1480   18.1550 O.co2  61  ASP61      -0.2456
     26  N          5.9240    0.4960   17.7840 N.am   62  SER62      -0.1950
     27  CA         7.0480    1.0670   17.0400 C.3    62  SER62       0.1924
     28  C          8.2720    1.2270   17.9260 C.2    62  SER62       0.2314
     29  O          9.4010    1.1680   17.4230 O.2    62  SER62      -0.2863
     30  CB         6.6850    2.3940   16.3800 C.3    62  SER62       0.2116
     31  OG         6.2850    3.3910   17.2950 O.3    62  SER62      -0.2180
     32  N          4.9310   -2.4120   12.0190 N.3   172  THR172     -0.1218
     33  CA         4.8010   -2.8300   13.4090 C.3   172  THR172      0.1862
     34  C          3.7070   -3.8570   13.6210 C.2   172  THR172      0.2287
     35  O          3.3470   -4.1270   14.7750 O.2   172  THR172     -0.2866
     36  CB         4.5710   -1.6200   14.3160 C.3   172  THR172      0.1770
     37  OG1        3.3250   -0.9930   13.9860 O.3   172  THR172     -0.2211
     38  CG2        5.7090   -0.6260   14.1580 C.3   172  THR172      0.0375
     39  N         -2.9920   -7.0750   16.5740 N.3   177  GLU177     -0.1245
     40  CA        -3.5820   -6.1430   15.6200 C.3   177  GLU177      0.1567
     41  C         -4.0450   -6.8560   14.3630 C.2   177  GLU177      0.2260
     42  O         -5.1260   -6.5420   13.8480 O.2   177  GLU177     -0.2867
     43  CB        -2.6060   -5.0230   15.2710 C.3   177  GLU177      0.0388
     44  CG        -2.6200   -3.9360   16.3090 C.3   177  GLU177      0.1160
     45  CD        -1.6930   -2.7910   15.9880 C.2   177  GLU177      0.3649
     46  OE1       -1.6850   -1.8260   16.7630 O.co2 177  GLU177     -0.2457
     47  OE2       -0.9710   -2.8470   14.9720 O.co2 177  GLU177     -0.2457
     48  N         -6.7230   -4.2390   12.7480 N.3   182  PHE182     -0.1227
     49  CA        -6.5550   -2.9390   13.4010 C.3   182  PHE182      0.1736
     50  C         -5.3600   -2.1930   12.8020 C.2   182  PHE182      0.2595
     51  O         -4.3630   -1.9230   13.4680 O.2   182  PHE182     -0.2718
     52  CB        -6.3350   -3.1100   14.9020 C.3   182  PHE182      0.0547
     53  CG        -7.5760   -3.3440   15.7330 C.ar  182  PHE182     -0.0202
     54  CD1       -8.8490   -3.0730   15.2620 C.ar  182  PHE182     -0.0042
     55  CD2       -7.4380   -3.8260   17.0420 C.ar  182  PHE182     -0.0042
     56  CE1       -9.9710   -3.2920   16.0760 C.ar  182  PHE182     -0.0003
     57  CE2       -8.5540   -4.0430   17.8480 C.ar  182  PHE182     -0.0003
     58  CZ        -9.8150   -3.7760   17.3620 C.ar  182  PHE182     -0.0000
     59  N         -5.4540   -1.9280   11.5070 N.am  183  PHE183     -0.1976
     60  CA        -4.4680   -1.1580   10.7650 C.3   183  PHE183      0.1639
     61  C         -5.1660   -0.6700    9.5180 C.2   183  PHE183      0.2290
     62  O         -6.2220   -1.1820    9.1500 O.2   183  PHE183     -0.2864
     63  CB        -3.2180   -1.9770   10.3910 C.3   183  PHE183      0.0560
     64  CG        -3.5210   -3.2260    9.6410 C.ar  183  PHE183     -0.0200
     65  CD1       -3.5620   -3.2270    8.2460 C.ar  183  PHE183     -0.0042
     66  CD2       -3.7850   -4.4170   10.3250 C.ar  183  PHE183     -0.0042
     67  CE1       -3.8400   -4.3870    7.5560 C.ar  183  PHE183     -0.0003
     68  CE2       -4.0690   -5.5910    9.6290 C.ar  183  PHE183     -0.0003
     69  CZ        -4.0800   -5.5760    8.2300 C.ar  183  PHE183     -0.0000
     70  N         -0.4490    1.8750    7.5220 N.3   188  ASP188     -0.1239
     71  CA         0.5290    1.2560    8.4200 C.3   188  ASP188      0.1674
     72  C          0.5960   -0.2620    8.2370 C.2   188  ASP188      0.2266
     73  O          1.5620   -0.8820    8.6960 O.2   188  ASP188     -0.2867
     74  CB         0.2540    1.6400    9.8720 C.3   188  ASP188      0.1410
     75  CG        -1.1920    1.4660   10.2930 C.2   188  ASP188      0.3668
     76  OD1       -2.1500    1.5850    9.5000 O.co2 188  ASP188     -0.2456
     77  OD2       -1.3650    1.2290   11.4890 O.co2 188  ASP188     -0.2456
     78  N         -0.0330   -9.0150   22.0320 N.3   201  LYS201     -0.1245
     79  CA         0.2890   -7.6810   22.5360 C.3   201  LYS201      0.1561
     80  C          1.1840   -7.7500   23.7630 C.2   201  LYS201      0.2260
     81  O          2.1340   -6.9650   23.8850 O.2   201  LYS201     -0.2867
     82  CB        -0.9880   -6.9000   22.8650 C.3   201  LYS201      0.0271
     83  CG        -0.7580   -5.4230   23.1960 C.3   201  LYS201      0.0035
     84  CD        -0.2660   -4.6290   21.9850 C.3   201  LYS201      0.0206
     85  CE        -0.1780   -3.1560   22.3250 C.3   201  LYS201      0.1093
     86  NZ         0.1350   -2.3360   21.1290 N.3   201  LYS201     -0.1314
     87  N          5.0770   -6.2210   24.5490 N.3   205  ARG205     -0.1245
     88  CA         5.5020   -5.5040   25.7490 C.3   205  ARG205      0.1563
     89  C          6.6570   -6.2170   26.4460 C.2   205  ARG205      0.2260
     90  O          7.5880   -5.5650   26.9340 O.2   205  ARG205     -0.2867
     91  CB         4.3190   -5.3210   26.7050 C.3   205  ARG205      0.0307
     92  CG         3.1750   -4.5000   26.0920 C.3   205  ARG205      0.0489
     93  CD         2.1500   -4.1870   27.1790 C.3   205  ARG205      0.2205
     94  NE         0.9160   -3.6070   26.6440 N.pl3 205  ARG205     -0.0865
     95  CZ         0.7370   -2.3290   26.3190 C.cat 205  ARG205      0.5346
     96  NH1        1.7170   -1.4460   26.4280 N.pl3 205  ARG205      0.1354
     97  NH2       -0.4420   -1.9330   25.8660 N.pl3 205  ARG205      0.1354
     98  N          2.4620    1.6850   28.0850 N.3   220  LYS220     -0.1231
     99  CA         1.6740    2.7840   27.5370 C.3   220  LYS220      0.1693
    100  C          0.4310    2.2430   26.8420 C.2   220  LYS220      0.2591
    101  O          0.5100    1.2820   26.0720 O.2   220  LYS220     -0.2718
    102  CB         2.5110    3.6070   26.5540 C.3   220  LYS220      0.0285
    103  CG         1.8580    4.9540   26.2090 C.3   220  LYS220      0.0035
    104  CD         1.4860    4.9860   24.7280 C.3   220  LYS220      0.0206
    105  CE         0.5490    6.1420   24.3970 C.3   220  LYS220      0.1093
    106  NZ        -0.0020    5.9490   23.0300 N.3   220  LYS220     -0.1314
    107  N         -0.7180    2.8510   27.1320 N.am  221  ILE221     -0.1980
    108  CA        -1.9700    2.4860   26.4710 C.3   221  ILE221      0.1595
    109  C         -2.0790    3.2140   25.1370 C.2   221  ILE221      0.2287
    110  O         -2.2910    4.4270   25.0990 O.2   221  ILE221     -0.2864
    111  CB        -3.1940    2.7950   27.3590 C.3   221  ILE221      0.0276
    112  CG1       -3.2050    1.8040   28.5410 C.3   221  ILE221      0.0022
    113  CG2       -4.4760    2.7500   26.5640 C.3   221  ILE221      0.0022
    114  CD1       -4.1850    2.1580   29.6260 C.3   221  ILE221      0.0001
    115  N         -7.2340   -5.9400   24.5250 N.3   226  TYR226     -0.1241
    116  CA        -6.0460   -6.6690   24.1130 C.3   226  TYR226      0.1605
    117  C         -5.8360   -7.9040   24.9650 C.2   226  TYR226      0.2264
    118  O         -5.3550   -8.9220   24.4570 O.2   226  TYR226     -0.2867
    119  CB        -4.8090   -5.7620   24.1370 C.3   226  TYR226      0.0534
    120  CG        -4.6990   -4.9400   22.8770 C.ar  226  TYR226     -0.0201
    121  CD1       -4.4930   -5.5560   21.6480 C.ar  226  TYR226     -0.0009
    122  CD2       -4.8430   -3.5560   22.9020 C.ar  226  TYR226     -0.0009
    123  CE1       -4.4170   -4.8210   20.4770 C.ar  226  TYR226      0.0417
    124  CE2       -4.7720   -2.8110   21.7350 C.ar  226  TYR226      0.0417
    125  CZ        -4.5570   -3.4490   20.5250 C.ar  226  TYR226      0.1957
    126  OH        -4.4850   -2.7180   19.3590 O.3   226  TYR226     -0.2866
@<TRIPOS>BOND
     1    70    71    1
     2    67    69   ar
     3    67    65   ar
     4    69    68   ar
     5    72    71    1
     6    72    73    2
     7    65    64   ar
     8    71    74    1
     9    62    61    2
    10    76    75   ar
    11    61    60    1
    12    68    66   ar
    13    64    66   ar
    14    64    63    1
    15    74    75    1
    16    75    77   ar
    17    63    60    1
    18    60    59    1
    19    59    50   am
    20    32    33    1
    21    48    49    1
    22    50    49    1
    23    50    51    2
    24    49    52    1
    25    33    34    1
    26    33    36    1
    27    34    35    2
    28    42    41    2
    29    37    36    1
    30    38    36    1
    31    41    40    1
    32    52    53    1
    33    47    45   ar
    34    54    53   ar
    35    54    56   ar
    36    43    40    1
    37    43    44    1
    38    40    39    1
    39    53    55   ar
    40    45    44    1
    41    45    46   ar
    42    56    58   ar
    43    30    27    1
    44    30    31    1
    45     1     2    1
    46     5     2    1
    47     5     6    1
    48    27    26    1
    49    27    28    1
    50    55    57   ar
    51     2     3    1
    52    58    57   ar
    53    29    28    2
    54    26    20   am
    55    21    20    2
    56    22    23    1
    57    22    19    1
    58    20    19    1
    59    25    23   ar
    60     3     4    2
    61    23    24   ar
    62    19    18    1
    63   126   125    1
    64    18    13   am
    65   123   125   ar
    66   123   121   ar
    67   125   124   ar
    68     7     8    1
    69    10     9    2
    70    14    13    2
    71    13    12    1
    72     8     9    1
    73    86    85    1
    74     9    11   am
    75   121   120   ar
    76   124   122   ar
    77    11    12    1
    78    84    85    1
    79    84    83    1
    80    78    79    1
    81    12    15    1
    82    79    82    1
    83    79    80    1
    84    82    83    1
    85   120   122   ar
    86   120   119    1
    87    16    15    1
    88   106   105    1
    89    15    17    1
    90    80    81    2
    91   116   119    1
    92   116   115    1
    93   116   117    1
    94   105   104    1
    95   118   117    2
    96    87    88    1
    97   104   103    1
    98   110   109    2
    99   109   108    1
   100    88    89    1
   101    88    91    1
   102    97    95    1
   103   101   100    2
   104    92    91    1
   105    92    93    1
   106   103   102    1
   107    95    96    1
   108    95    94    2
   109    89    90    2
   110   108   107    1
   111   108   111    1
   112   102    99    1
   113   113   111    1
   114    94    93    1
   115   100   107   am
   116   100    99    1
   117   111   112    1
   118    99    98    1
   119   112   114    1
