@<TRIPOS>MOLECULE
tmp/5f24B00.pdb
 107 103 0 0 0
SMALL
GASTEIGER

@<TRIPOS>ATOM
      1  N         36.1400   36.9020   15.1210 N.3     1  LYS1       -0.1231
      2  CA        37.5120   36.2720   15.1510 C.3     1  LYS1        0.1693
      3  C         37.7250   35.1420   16.1500 C.2     1  LYS1        0.2593
      4  O         38.0920   34.0030   15.7750 O.2     1  LYS1       -0.2718
      5  CB        38.6040   37.3680   15.3050 C.3     1  LYS1        0.0285
      6  CG        39.9720   36.9450   14.8890 C.3     1  LYS1        0.0035
      7  CD        40.9500   38.0660   15.1900 C.3     1  LYS1        0.0206
      8  CE        42.3430   37.5230   15.5070 C.3     1  LYS1        0.1093
      9  NZ        42.3680   36.5810   16.6920 N.3     1  LYS1       -0.1314
     10  N         37.4870   35.4330   17.4260 N.am    2  THR2       -0.1939
     11  CA        37.5300   34.3810   18.3970 C.3     2  THR2        0.2028
     12  C         36.2450   33.5200   18.2940 C.2     2  THR2        0.2642
     13  O         35.2260   33.9040   17.7280 O.2     2  THR2       -0.2714
     14  CB        37.6280   34.8620   19.8600 C.3     2  THR2        0.1808
     15  OG1       36.5000   35.6850   20.1890 O.3     2  THR2       -0.2208
     16  CG2       38.9210   35.5970   20.1040 C.3     2  THR2        0.0379
     17  N         36.3340   32.3090   18.8750 N.am    3  LEU3       -0.1963
     18  CA        35.1560   31.4710   18.9930 C.3     3  LEU3        0.1728
     19  C         34.0140   32.1970   19.6980 C.2     3  LEU3        0.2616
     20  O         32.8780   32.0390   19.2870 O.2     3  LEU3       -0.2715
     21  CB        35.5040   30.1410   19.6500 C.3     3  LEU3        0.0311
     22  CG        36.4220   29.2540   18.7850 C.3     3  LEU3        0.0022
     23  CD1       36.5810   27.8790   19.3760 C.3     3  LEU3        0.0001
     24  CD2       35.9180   29.1470   17.3460 C.3     3  LEU3        0.0001
     25  N         34.2930   32.9780   20.7360 N.am    4  GLN4       -0.1977
     26  CA        33.2150   33.6700   21.4290 C.3     4  GLN4        0.1601
     27  C         32.5040   34.6950   20.5560 C.2     4  GLN4        0.2287
     28  O         31.3260   34.9890   20.7980 O.2     4  GLN4       -0.2864
     29  CB        33.6840   34.2890   22.7570 C.3     4  GLN4        0.0394
     30  CG        34.5310   33.3800   23.6260 C.3     4  GLN4        0.0908
     31  CD        33.7360   32.1360   23.9980 C.2     4  GLN4        0.2608
     32  OE1       32.7770   32.4320   24.7430 O.2     4  GLN4       -0.2717
     33  NE2       34.0140   30.8970   23.5450 N.am    4  GLN4       -0.0878
     34  N         32.3610   34.6260   17.2660 N.3     6  ILE6       -0.1245
     35  CA        31.5510   33.9610   16.2400 C.3     6  ILE6        0.1561
     36  C         30.2870   33.4120   16.9320 C.2     6  ILE6        0.2260
     37  O         29.1570   33.5800   16.4350 O.2     6  ILE6       -0.2867
     38  CB        32.3250   32.7770   15.5940 C.3     6  ILE6        0.0252
     39  CG1       33.5180   33.2950   14.7590 C.3     6  ILE6        0.0019
     40  CG2       31.3870   31.9040   14.7430 C.3     6  ILE6        0.0019
     41  CD1       34.6360   32.2860   14.5370 C.3     6  ILE6        0.0001
     42  N         37.7710   27.5760    6.4430 N.3    74  HIS74      -0.1241
     43  CA        36.6130   27.9530    7.2590 C.3    74  HIS74       0.1621
     44  C         35.3580   27.3830    6.6180 C.2    74  HIS74       0.2264
     45  O         34.9300   27.8210    5.5740 O.2    74  HIS74      -0.2867
     46  CB        36.5240   29.4760    7.4080 C.3    74  HIS74       0.0745
     47  CG        37.7160   30.0980    8.0840 C.ar   74  HIS74       0.0817
     48  ND1       37.8810   30.1040    9.4580 N.ar   74  HIS74      -0.2268
     49  CD2       38.7900   30.7520    7.5780 C.ar   74  HIS74       0.1154
     50  CE1       38.9960   30.7300    9.7670 C.ar   74  HIS74       0.1986
     51  NE2       39.5680   31.1320    8.6430 N.ar   74  HIS74      -0.2212
     52  N         30.6470   24.5560   12.5220 N.3   100  TYR100     -0.1241
     53  CA        31.8020   25.2040   11.9610 C.3   100  TYR100      0.1605
     54  C         33.0500   24.3400   12.1710 C.2   100  TYR100      0.2264
     55  O         33.4380   23.9120   13.2730 O.2   100  TYR100     -0.2867
     56  CB        31.9280   26.5720   12.6240 C.3   100  TYR100      0.0534
     57  CG        33.2300   27.2860   12.3620 C.ar  100  TYR100     -0.0201
     58  CD1       33.6210   27.5890   11.0620 C.ar  100  TYR100     -0.0009
     59  CD2       34.0380   27.6900   13.4070 C.ar  100  TYR100     -0.0009
     60  CE1       34.7990   28.2550   10.8080 C.ar  100  TYR100      0.0417
     61  CE2       35.2170   28.3560   13.1820 C.ar  100  TYR100      0.0417
     62  CZ        35.6120   28.6250   11.8800 C.ar  100  TYR100      0.1957
     63  OH        36.7970   29.2870   11.6420 O.3   100  TYR100     -0.2866
     64  N         37.2550   24.3500   11.3850 N.3   102  TYR102     -0.1241
     65  CA        38.4350   25.1490   11.0810 C.3   102  TYR102      0.1605
     66  C         39.5590   24.2440   10.6450 C.2   102  TYR102      0.2264
     67  O         40.0320   23.4560   11.4750 O.2   102  TYR102     -0.2867
     68  CB        38.8910   25.9970   12.2610 C.3   102  TYR102      0.0534
     69  CG        40.1860   26.7110   11.9750 C.ar  102  TYR102     -0.0201
     70  CD1       40.2240   27.8090   11.1240 C.ar  102  TYR102     -0.0009
     71  CD2       41.3800   26.2740   12.5310 C.ar  102  TYR102     -0.0009
     72  CE1       41.4140   28.4630   10.8400 C.ar  102  TYR102      0.0417
     73  CE2       42.5720   26.9260   12.2540 C.ar  102  TYR102      0.0417
     74  CZ        42.5720   28.0220   11.4090 C.ar  102  TYR102      0.1957
     75  OH        43.7500   28.6710   11.1450 O.3   102  TYR102     -0.2866
     76  N         34.9160   23.1770   15.6570 N.3   107  MET107     -0.1245
     77  CA        35.0890   24.2850   16.6250 C.3   107  MET107      0.1570
     78  C         33.7860   24.7540   17.2680 C.2   107  MET107      0.2261
     79  O         33.7870   25.0840   18.4230 O.2   107  MET107     -0.2867
     80  CB        35.7580   25.4490   15.9390 C.3   107  MET107      0.0387
     81  CG        37.1370   25.1230   15.4100 C.3   107  MET107      0.0595
     82  SD        38.3360   24.9960   16.7520 S.3   107  MET107     -0.1393
     83  CE        39.7220   24.2950   15.8740 C.3   107  MET107      0.0692
     84  N         34.3250   24.5240   21.3650 N.3   124  ARG124     -0.1231
     85  CA        35.6560   23.9500   21.6850 C.3   124  ARG124      0.1694
     86  C         36.3330   24.8760   22.6800 C.2   124  ARG124      0.2593
     87  O         36.4510   26.0770   22.4310 O.2   124  ARG124     -0.2718
     88  CB        36.5810   23.7820   20.4730 C.3   124  ARG124      0.0321
     89  CG        38.0160   23.3550   20.8610 C.3   124  ARG124      0.0489
     90  CD        38.8580   22.8930   19.6820 C.3   124  ARG124      0.2205
     91  NE        38.1300   21.8920   18.9060 N.pl3 124  ARG124     -0.0865
     92  CZ        38.1080   20.5830   19.1760 C.cat 124  ARG124      0.5346
     93  NH1       37.3680   19.7780   18.4290 N.pl3 124  ARG124      0.1354
     94  NH2       38.8220   20.0630   20.1520 N.pl3 124  ARG124      0.1354
     95  N         36.7290   24.3340   23.8180 N.am  125  GLY125     -0.1942
     96  CA        37.3890   25.1370   24.8770 C.3   125  GLY125      0.2014
     97  C         36.4470   25.5710   25.9900 C.2   125  GLY125      0.2638
     98  O         36.8740   25.9140   27.0830 O.2   125  GLY125     -0.2714
     99  N         35.1600   25.6510   25.7130 N.am  126  GLU126     -0.1977
    100  CA        34.1840   26.0280   26.7370 C.3   126  GLU126      0.1602
    101  C         33.3130   24.8370   27.2210 C.2   126  GLU126      0.2287
    102  O         33.1620   24.6320   28.3880 O.2   126  GLU126     -0.2864
    103  CB        33.2650   27.1520   26.2590 C.3   126  GLU126      0.0415
    104  CG        34.0040   28.4000   25.7900 C.3   126  GLU126      0.1163
    105  CD        34.9750   28.9870   26.8250 C.2   126  GLU126      0.3649
    106  OE1       34.6730   28.9420   28.0350 O.co2 126  GLU126     -0.2457
    107  OE2       36.0500   29.5100   26.4390 O.co2 126  GLU126     -0.2457
@<TRIPOS>BOND
     1    45    44    2
     2    42    43    1
     3    44    43    1
     4    43    46    1
     5    46    47    1
     6    49    47   ar
     7    49    51   ar
     8    47    48   ar
     9    51    50   ar
    10    48    50   ar
    11    66    65    1
    12    66    67    2
    13    60    58   ar
    14    60    62   ar
    15    72    70   ar
    16    72    74   ar
    17    58    57   ar
    18    65    64    1
    19    65    68    1
    20    70    69   ar
    21    75    74    1
    22    74    73   ar
    23    63    62    1
    24    62    61   ar
    25    53    54    1
    26    53    52    1
    27    53    56    1
    28    69    68    1
    29    69    71   ar
    30    54    55    2
    31    73    71   ar
    32    57    56    1
    33    57    59   ar
    34    61    59   ar
    35    41    39    1
    36    40    38    1
    37    39    38    1
    38     6     7    1
    39     6     5    1
    40     1     2    1
    41     2     5    1
    42     2     3    1
    43     7     8    1
    44    81    80    1
    45    81    82    1
    46     8     9    1
    47    38    35    1
    48    76    77    1
    49     4     3    2
    50    83    82    1
    51    80    77    1
    52     3    10   am
    53    35    36    1
    54    35    34    1
    55    37    36    2
    56    77    78    1
    57    78    79    2
    58    24    22    1
    59    10    11    1
    60    13    12    2
    61    12    11    1
    62    12    17   am
    63    11    14    1
    64    93    92    1
    65    22    23    1
    66    22    21    1
    67    17    18    1
    68    91    92    2
    69    91    90    1
    70    18    21    1
    71    18    19    1
    72    92    94    1
    73    20    19    2
    74    90    89    1
    75    19    25   am
    76    14    16    1
    77    14    15    1
    78    88    89    1
    79    88    85    1
    80    27    28    2
    81    27    26    1
    82    25    26    1
    83    84    85    1
    84    26    29    1
    85    85    86    1
    86    87    86    2
    87    86    95   am
    88    29    30    1
    89    33    31   am
    90    30    31    1
    91    95    96    1
    92    31    32    2
    93    96    97    1
    94    99    97   am
    95    99   100    1
    96   104   103    1
    97   104   105    1
    98    97    98    2
    99   103   100    1
   100   107   105   ar
   101   100   101    1
   102   105   106   ar
   103   101   102    2
