@<TRIPOS>MOLECULE
tmp/5f24B01.pdb
 133 121 0 0 0
SMALL
GASTEIGER

@<TRIPOS>ATOM
      1  N         11.2420   12.3700    0.9200 N.3    32  ASP32      -0.1225
      2  CA        12.2780   13.3540    0.5740 C.3    32  ASP32       0.1805
      3  C         11.6720   14.7620    0.2880 C.2    32  ASP32       0.2597
      4  O         11.6930   15.2460   -0.8490 O.2    32  ASP32      -0.2718
      5  CB        13.0870   12.8310   -0.6250 C.3    32  ASP32       0.1424
      6  CG        14.5500   13.2930   -0.6190 C.2    32  ASP32       0.3668
      7  OD1       15.0380   13.8390    0.3950 O.co2  32  ASP32      -0.2456
      8  OD2       15.2200   13.0890   -1.6570 O.co2  32  ASP32      -0.2456
      9  N         11.1370   15.4060    1.3360 N.am   33  LEU33      -0.1979
     10  CA        10.4410   16.7110    1.2180 C.3    33  LEU33       0.1596
     11  C         11.3590   17.9410    1.2970 C.2    33  LEU33       0.2287
     12  O         12.4580   17.8830    1.8500 O.2    33  LEU33      -0.2864
     13  CB         9.3710   16.8650    2.3160 C.3    33  LEU33       0.0297
     14  CG         8.0200   16.1640    2.2220 C.3    33  LEU33       0.0022
     15  CD1        7.4300   16.2470    0.8100 C.3    33  LEU33       0.0001
     16  CD2        8.1530   14.7230    2.6710 C.3    33  LEU33       0.0001
     17  N         22.3310   21.4170    2.6370 N.3    61  GLU61      -0.1245
     18  CA        21.4380   20.4960    1.9090 C.3    61  GLU61       0.1567
     19  C         20.9030   21.1180    0.6120 C.2    61  GLU61       0.2260
     20  O         20.8950   20.5010   -0.4450 O.2    61  GLU61      -0.2867
     21  CB        20.2880   20.0050    2.7810 C.3    61  GLU61       0.0388
     22  CG        19.3720   19.0250    2.0580 C.3    61  GLU61       0.1160
     23  CD        18.4870   18.2620    3.0100 C.2    61  GLU61       0.3649
     24  OE1       17.8200   17.3080    2.5840 O.co2  61  GLU61      -0.2457
     25  OE2       18.4740   18.5950    4.2020 O.co2  61  GLU61      -0.2457
     26  N         22.1920   21.9940    8.0960 N.3    79  ASP79      -0.1239
     27  CA        20.8750   21.4680    7.6990 C.3    79  ASP79       0.1674
     28  C         19.8150   22.4890    8.1100 C.2    79  ASP79       0.2266
     29  O         19.5550   22.7050    9.3210 O.2    79  ASP79      -0.2867
     30  CB        20.5080   20.0770    8.2290 C.3    79  ASP79       0.1410
     31  CG        19.2750   19.5290    7.5070 C.2    79  ASP79       0.3668
     32  OD1       18.5780   20.3770    6.9430 O.co2  79  ASP79      -0.2456
     33  OD2       18.9430   18.3380    7.4230 O.co2  79  ASP79      -0.2456
     34  N         16.5470   22.8190    7.8290 N.3    81  ILE81      -0.1231
     35  CA        15.5460   22.1290    8.6590 C.3    81  ILE81       0.1692
     36  C         15.8900   20.6720    8.6480 C.2    81  ILE81       0.2592
     37  O         15.8490   20.0510    7.5870 O.2    81  ILE81      -0.2718
     38  CB        14.1290   22.3150    8.1030 C.3    81  ILE81       0.0266
     39  CG1       13.7130   23.7840    8.1710 C.3    81  ILE81       0.0019
     40  CG2       13.1500   21.4510    8.8910 C.3    81  ILE81       0.0020
     41  CD1       13.5020   24.3030    9.5850 C.3    81  ILE81       0.0001
     42  N         16.2410   20.0940    9.7740 N.am   82  ASP82      -0.1960
     43  CA        16.3920   18.6310    9.8810 C.3    82  ASP82       0.1840
     44  C         15.1090   18.1490   10.5070 C.2    82  ASP82       0.2623
     45  O         14.6920   18.7010   11.4860 O.2    82  ASP82      -0.2715
     46  CB        17.5740   18.2550   10.7740 C.3    82  ASP82       0.1450
     47  CG        17.7420   16.7450   10.9330 C.2    82  ASP82       0.3671
     48  OD1       17.7720   16.0260    9.9160 O.co2  82  ASP82      -0.2456
     49  OD2       17.8530   16.3000   12.0790 O.co2  82  ASP82      -0.2456
     50  N         14.4790   17.1880    9.8850 N.am   83  GLY83      -0.1940
     51  CA        13.1170   16.7720   10.2820 C.3    83  GLY83       0.2014
     52  C         12.0110   17.4670    9.4950 C.2    83  GLY83       0.2640
     53  O         10.9570   17.7990   10.0520 O.2    83  GLY83      -0.2714
     54  N         12.2390   17.6790    8.2170 N.am   84  THR84      -0.1936
     55  CA        11.2560   18.3060    7.3190 C.3    84  THR84       0.2028
     56  C          9.8980   17.5730    7.3520 C.2    84  THR84       0.2642
     57  O          8.8420   18.2110    7.3320 O.2    84  THR84      -0.2714
     58  CB        11.8410   18.4020    5.8670 C.3    84  THR84       0.1808
     59  OG1       12.9740   19.2990    5.8810 O.3    84  THR84      -0.2208
     60  CG2       10.8790   18.9340    4.9060 C.3    84  THR84       0.0379
     61  N          9.9130   16.2400    7.4150 N.am   85  ALA85      -0.1977
     62  CA         8.6920   15.4790    7.4800 C.3    85  ALA85       0.1597
     63  C          7.8910   15.8820    8.7240 C.2    85  ALA85       0.2287
     64  O          6.7150   16.1470    8.6390 O.2    85  ALA85      -0.2864
     65  CB         8.9880   13.9840    7.4690 C.3    85  ALA85       0.0319
     66  N         15.7060    4.1820   12.6660 N.3   151  ASN151     -0.1240
     67  CA        14.6440    3.9570   11.6890 C.3   151  ASN151      0.1653
     68  C         14.5250    2.4510   11.4550 C.2   151  ASN151      0.2266
     69  O         15.3980    1.8390   10.8250 O.2   151  ASN151     -0.2867
     70  CB        14.9800    4.6560   10.3870 C.3   151  ASN151      0.1155
     71  CG        13.8680    4.5260    9.3590 C.2   151  ASN151      0.2627
     72  OD1       12.9200    3.7800    9.5460 O.2   151  ASN151     -0.2716
     73  ND2       13.9900    5.2480    8.2660 N.am  151  ASN151     -0.0877
     74  N         11.3510    6.9880   18.8770 N.3   172  LEU172     -0.1245
     75  CA        11.8060    7.7640   17.7120 C.3   172  LEU172      0.1561
     76  C         11.2100    9.1460   17.7070 C.2   172  LEU172      0.2260
     77  O         10.0080    9.3310   17.5980 O.2   172  LEU172     -0.2867
     78  CB        11.4540    7.0640   16.4170 C.3   172  LEU172      0.0270
     79  CG        11.9930    7.6850   15.1050 C.3   172  LEU172      0.0019
     80  CD1       13.5120    7.8070   15.0750 C.3   172  LEU172      0.0001
     81  CD2       11.5630    6.8510   13.9360 C.3   172  LEU172      0.0001
     82  N         12.4220   11.3940   15.2770 N.3   174  GLY174     -0.1225
     83  CA        12.2880   11.4830   13.8170 C.3   174  GLY174      0.1811
     84  C         13.0710   12.6350   13.1840 C.2   174  GLY174      0.2280
     85  O         12.8330   13.0080   12.0410 O.2   174  GLY174     -0.2866
     86  N         17.1870   13.4990   12.9700 N.3   176  CYS176     -0.1235
     87  CA        18.5420   13.0120   13.3630 C.3   176  CYS176      0.1677
     88  C         19.1750   13.8660   14.4370 C.2   176  CYS176      0.2270
     89  O         19.7130   13.3410   15.4040 O.2   176  CYS176     -0.2867
     90  CB        19.4580   12.9640   12.1530 C.3   176  CYS176      0.0956
     91  SG        21.0640   12.2230   12.4700 S.3   176  CYS176     -0.0801
     92  N         17.1030   13.2860   17.8280 N.3   179  ASP179     -0.1239
     93  CA        17.3740   11.9830   18.3750 C.3   179  ASP179      0.1674
     94  C         18.8300   11.9260   18.8540 C.2   179  ASP179      0.2266
     95  O         19.1310   11.2700   19.8850 O.2   179  ASP179     -0.2867
     96  CB        17.1500   10.8920   17.3130 C.3   179  ASP179      0.1410
     97  CG        15.6770   10.6410   17.0120 C.2   179  ASP179      0.3668
     98  OD1       15.0310    9.9890   17.8210 O.co2 179  ASP179     -0.2456
     99  OD2       15.1540   11.0760   15.9490 O.co2 179  ASP179     -0.2456
    100  N         21.5970    6.5280   19.0760 N.3   191  HIS191     -0.1241
    101  CA        20.8340    6.7860   17.8790 C.3   191  HIS191      0.1621
    102  C         21.6200    6.2960   16.6690 C.2   191  HIS191      0.2264
    103  O         22.8320    6.4980   16.5990 O.2   191  HIS191     -0.2867
    104  CB        20.4560    8.2740   17.7540 C.3   191  HIS191      0.0745
    105  CG        19.7610    8.6070   16.4750 C.ar  191  HIS191      0.0817
    106  ND1       18.5210    8.1080   16.1640 N.ar  191  HIS191     -0.2268
    107  CD2       20.1660    9.3160   15.3890 C.ar  191  HIS191      0.1154
    108  CE1       18.1760    8.5090   14.9520 C.ar  191  HIS191      0.1986
    109  NE2       19.1610    9.2390   14.4570 N.ar  191  HIS191     -0.2212
    110  N         21.6990    6.1160   12.3490 N.3   193  ASN193     -0.1240
    111  CA        21.1990    6.4480   11.0270 C.3   193  ASN193      0.1653
    112  C         22.0740    5.7380    9.9850 C.2   193  ASN193      0.2266
    113  O         23.3010    5.9790    9.8540 O.2   193  ASN193     -0.2867
    114  CB        21.2490    7.9480   10.7780 C.3   193  ASN193      0.1155
    115  CG        20.6050    8.3400    9.4480 C.2   193  ASN193      0.2627
    116  OD1       20.9070    7.7720    8.3740 O.2   193  ASN193     -0.2716
    117  ND2       19.7210    9.3040    9.5070 N.am  193  ASN193     -0.0877
    118  N         22.2240    5.8330    6.7690 N.3   195  ASN195     -0.1240
    119  CA        22.6660    6.4990    5.5470 C.3   195  ASN195      0.1653
    120  C         22.5610    8.0210    5.6200 C.2   195  ASN195      0.2266
    121  O         21.7980    8.6220    4.8780 O.2   195  ASN195     -0.2867
    122  CB        21.8160    6.0060    4.3820 C.3   195  ASN195      0.1155
    123  CG        22.3880    6.3680    3.0220 C.2   195  ASN195      0.2627
    124  OD1       21.6810    6.3230    2.0170 O.2   195  ASN195     -0.2716
    125  ND2       23.6480    6.7370    2.9790 N.am  195  ASN195     -0.0877
    126  N         23.2940   16.0080    8.2440 N.3   200  ASP200     -0.1239
    127  CA        22.5350   15.3140    9.2710 C.3   200  ASP200      0.1674
    128  C         23.3410   15.0940   10.5370 C.2   200  ASP200      0.2266
    129  O         22.7670   14.9500   11.6220 O.2   200  ASP200     -0.2867
    130  CB        22.2180   13.8850    8.7990 C.3   200  ASP200      0.1410
    131  CG        21.1460   13.8310    7.7280 C.2   200  ASP200      0.3668
    132  OD1       20.1060   14.5040    7.8650 O.co2 200  ASP200     -0.2456
    133  OD2       21.3060   13.0540    6.7820 O.co2 200  ASP200     -0.2456
@<TRIPOS>BOND
     1     8     6   ar
     2     4     3    2
     3     5     6    1
     4     5     2    1
     5     6     7   ar
     6    20    19    2
     7     3     2    1
     8     3     9   am
     9     2     1    1
    10    19    18    1
    11    15    14    1
    12    10    11    1
    13    10     9    1
    14    10    13    1
    15    11    12    2
    16    18    17    1
    17    18    21    1
    18   124   123    2
    19    22    21    1
    20    22    23    1
    21    14    13    1
    22    14    16    1
    23    24    23   ar
    24   125   123   am
    25    23    25   ar
    26   123   122    1
    27   122   119    1
    28   121   120    2
    29    60    58    1
    30   119   120    1
    31   119   118    1
    32    58    59    1
    33    58    55    1
    34   133   131   ar
    35    32    31   ar
    36    55    56    1
    37    55    54    1
    38    57    56    2
    39    56    61   am
    40    61    62    1
    41    33    31   ar
    42    65    62    1
    43    62    63    1
    44    31    30    1
    45    37    36    2
    46    27    26    1
    47    27    28    1
    48    27    30    1
    49   131   132   ar
    50   131   130    1
    51    34    35    1
    52    38    39    1
    53    38    35    1
    54    38    40    1
    55    28    29    2
    56    39    41    1
    57    54    52   am
    58   126   127    1
    59    73    71   am
    60   116   115    2
    61    64    63    2
    62    36    35    1
    63    36    42   am
    64   130   127    1
    65   127   128    1
    66    71    72    2
    67    71    70    1
    68   115   117   am
    69   115   114    1
    70    52    53    2
    71    52    51    1
    72    42    43    1
    73   113   112    2
    74    43    44    1
    75    43    46    1
    76    50    51    1
    77    50    44   am
    78    48    47   ar
    79   112   111    1
    80    70    67    1
    81    44    45    2
    82   128   129    2
    83    46    47    1
    84   114   111    1
    85    69    68    2
    86    47    49   ar
    87   111   110    1
    88    68    67    1
    89    67    66    1
    90    85    84    2
    91    90    91    1
    92    90    87    1
    93    86    87    1
    94    84    83    1
    95    87    88    1
    96    83    82    1
    97    81    79    1
    98    88    89    2
    99   109   108   ar
   100   109   107   ar
   101   108   106   ar
   102    80    79    1
   103    79    78    1
   104   107   105   ar
   105    99    97   ar
   106   106   105   ar
   107    78    75    1
   108   105   104    1
   109   103   102    2
   110   102   101    1
   111    97    96    1
   112    97    98   ar
   113    96    93    1
   114    77    76    2
   115    76    75    1
   116    75    74    1
   117   104   101    1
   118    92    93    1
   119   101   100    1
   120    93    94    1
   121    94    95    2
