@<TRIPOS>MOLECULE
tmp/5f24A00.pdb
 98 92 0 0 0
SMALL
GASTEIGER

@<TRIPOS>ATOM
      1  N         -8.0000   22.5100   37.5830 N.3    13  CYS13      -0.1235
      2  CA        -6.9510   23.3820   37.0740 C.3    13  CYS13       0.1677
      3  C         -6.0800   23.9520   38.1410 C.2    13  CYS13       0.2270
      4  O         -4.8550   23.9390   37.9880 O.2    13  CYS13      -0.2867
      5  CB        -7.5250   24.5270   36.2490 C.3    13  CYS13       0.0956
      6  SG        -8.2040   23.9340   34.6930 S.3    13  CYS13      -0.0801
      7  N         -3.8240   21.0810   39.4920 N.3    16  LEU16      -0.1231
      8  CA        -2.7750   20.7990   38.5010 C.3    16  LEU16       0.1693
      9  C         -1.7060   21.8840   38.5330 C.2    16  LEU16       0.2591
     10  O         -0.4870   21.5890   38.4100 O.2    16  LEU16      -0.2718
     11  CB        -3.4010   20.7420   37.0850 C.3    16  LEU16       0.0284
     12  CG        -4.1690   19.4600   36.7230 C.3    16  LEU16       0.0019
     13  CD1       -4.8100   19.5540   35.3340 C.3    16  LEU16       0.0001
     14  CD2       -3.2750   18.2180   36.8020 C.3    16  LEU16       0.0001
     15  N         -2.1390   23.1300   38.7170 N.am   17  LYS17      -0.1980
     16  CA        -1.2180   24.2020   38.9090 C.3    17  LYS17       0.1596
     17  C         -0.3590   24.1080   40.1840 C.2    17  LYS17       0.2287
     18  O          0.8770   24.3610   40.1620 O.2    17  LYS17      -0.2864
     19  CB        -1.9980   25.5090   38.9640 C.3    17  LYS17       0.0298
     20  CG        -1.1810   26.7580   38.8860 C.3    17  LYS17       0.0038
     21  CD        -2.1300   27.9400   38.7720 C.3    17  LYS17       0.0206
     22  CE        -1.4720   29.3040   38.9330 C.3    17  LYS17       0.1093
     23  NZ        -2.5010   30.3590   38.6810 N.3    17  LYS17      -0.1314
     24  N          2.6860   21.5640   39.8930 N.3    20  ASP20      -0.1239
     25  CA         3.9840   22.1400   39.4610 C.3    20  ASP20       0.1674
     26  C          4.9210   22.4920   40.5910 C.2    20  ASP20       0.2266
     27  O          6.1290   22.5750   40.3900 O.2    20  ASP20      -0.2867
     28  CB         3.7530   23.4360   38.6210 C.3    20  ASP20       0.1410
     29  CG         2.7170   23.2460   37.4750 C.2    20  ASP20       0.3668
     30  OD1        2.5310   22.1220   36.9870 O.co2  20  ASP20      -0.2456
     31  OD2        2.0520   24.2200   37.0790 O.co2  20  ASP20      -0.2456
     32  N         -2.1880   16.1890   30.9640 N.3   116  TYR116     -0.1241
     33  CA        -1.3010   17.2780   31.3110 C.3   116  TYR116      0.1605
     34  C          0.1350   16.8810   30.9270 C.2   116  TYR116      0.2264
     35  O          0.8000   16.0360   31.5940 O.2   116  TYR116     -0.2867
     36  CB        -1.3910   17.6140   32.8070 C.3   116  TYR116      0.0534
     37  CG        -0.5390   18.8160   33.2070 C.ar  116  TYR116     -0.0201
     38  CD1       -0.3310   19.8730   32.3310 C.ar  116  TYR116     -0.0009
     39  CD2        0.0700   18.8810   34.4630 C.ar  116  TYR116     -0.0009
     40  CE1        0.4460   20.9550   32.6870 C.ar  116  TYR116      0.0417
     41  CE2        0.8420   19.9990   34.8490 C.ar  116  TYR116      0.0417
     42  CZ         1.0350   21.0070   33.9420 C.ar  116  TYR116      0.1957
     43  OH         1.7840   22.0640   34.2710 O.3   116  TYR116     -0.2866
     44  N          4.6230   21.9290   29.8460 N.3   121  LYS121     -0.1245
     45  CA         3.5510   22.8060   30.3380 C.3   121  LYS121      0.1561
     46  C          2.3970   22.9830   29.3320 C.2   121  LYS121      0.2260
     47  O          2.0020   24.0920   29.0250 O.2   121  LYS121     -0.2867
     48  CB         4.1730   24.1710   30.6720 C.3   121  LYS121      0.0271
     49  CG         5.3000   24.1140   31.7090 C.3   121  LYS121      0.0035
     50  CD         4.7360   23.7060   33.0830 C.3   121  LYS121      0.0206
     51  CE         5.8100   23.6370   34.1740 C.3   121  LYS121      0.1093
     52  NZ         6.7130   22.4760   33.9380 N.3   121  LYS121     -0.1314
     53  N         -1.4300   21.7910   28.8400 N.3   123  LEU123     -0.1245
     54  CA        -2.6430   21.1570   29.3950 C.3   123  LEU123      0.1561
     55  C         -3.7030   20.9400   28.3110 C.2   123  LEU123      0.2260
     56  O         -4.2070   21.9120   27.7700 O.2   123  LEU123     -0.2867
     57  CB        -3.2160   21.9620   30.5440 C.3   123  LEU123      0.0270
     58  CG        -4.4860   21.3760   31.1380 C.3   123  LEU123      0.0019
     59  CD1       -4.2370   19.9760   31.6810 C.3   123  LEU123      0.0001
     60  CD2       -4.9940   22.2920   32.2590 C.3   123  LEU123      0.0001
     61  N         -7.3060   19.7080   27.5680 N.3   125  LYS125     -0.1245
     62  CA        -8.5020   19.3950   28.3720 C.3   125  LYS125      0.1561
     63  C         -9.7180   19.4190   27.4740 C.2   125  LYS125      0.2260
     64  O         -9.7540   20.0960   26.4330 O.2   125  LYS125     -0.2867
     65  CB        -8.6930   20.3300   29.5640 C.3   125  LYS125      0.0271
     66  CG        -9.2380   21.7060   29.2700 C.3   125  LYS125      0.0035
     67  CD        -9.2580   22.5240   30.5600 C.3   125  LYS125      0.0206
     68  CE        -9.6040   23.9880   30.2970 C.3   125  LYS125      0.1093
     69  NZ        -9.8120   24.7320   31.5720 N.3   125  LYS125     -0.1314
     70  N         -9.3990   21.9110   24.4810 N.3   133  PHE133     -0.1227
     71  CA        -8.4790   23.0410   24.5180 C.3   133  PHE133      0.1736
     72  C         -7.0540   22.5670   24.8210 C.2   133  PHE133      0.2596
     73  O         -6.8330   21.5860   25.5410 O.2   133  PHE133     -0.2718
     74  CB        -8.9280   23.9690   25.6590 C.3   133  PHE133      0.0547
     75  CG       -10.3160   24.4900   25.5160 C.ar  133  PHE133     -0.0202
     76  CD1      -10.5580   25.6560   24.8320 C.ar  133  PHE133     -0.0042
     77  CD2      -11.3670   23.8240   26.0750 C.ar  133  PHE133     -0.0042
     78  CE1      -11.8420   26.1300   24.6890 C.ar  133  PHE133     -0.0003
     79  CE2      -12.6530   24.2840   25.9430 C.ar  133  PHE133     -0.0003
     80  CZ       -12.8890   25.4470   25.2540 C.ar  133  PHE133     -0.0000
     81  N         -6.0770   23.3530   24.3170 N.am  134  CYS134     -0.1956
     82  CA        -4.6790   23.2100   24.7050 C.3   134  CYS134      0.1843
     83  C         -4.2430   24.5020   25.3300 C.2   134  CYS134      0.2625
     84  O         -4.1140   25.5010   24.6230 O.2   134  CYS134     -0.2714
     85  CB        -3.8570   22.9020   23.4640 C.3   134  CYS134      0.0997
     86  SG        -2.1500   22.5790   23.9110 S.3   134  CYS134     -0.0797
     87  N         -3.9950   24.5000   26.6370 N.am  135  ASN135     -0.1958
     88  CA        -3.6400   25.7430   27.3530 C.3   135  ASN135      0.1819
     89  C         -4.6360   26.8550   26.9980 C.2   135  ASN135      0.2621
     90  O         -4.2520   27.9760   26.7250 O.2   135  ASN135     -0.2715
     91  CB        -2.2220   26.2260   26.9970 C.3   135  ASN135      0.1195
     92  CG        -1.1480   25.4470   27.7050 C.2   135  ASN135      0.2630
     93  OD1       -1.4170   24.6800   28.6520 O.2   135  ASN135     -0.2716
     94  ND2        0.0720   25.5930   27.2400 N.am  135  ASN135     -0.0877
     95  N         -5.9070   26.5300   26.9610 N.am  136  GLY136     -0.1954
     96  CA        -6.8620   27.5310   26.6160 C.3   136  GLY136      0.1869
     97  C         -7.3060   27.7930   25.1670 C.2   136  GLY136      0.2309
     98  O         -8.3140   28.4100   24.9930 O.2   136  GLY136     -0.2863
@<TRIPOS>BOND
     1    85    86    1
     2    85    82    1
     3    81    82    1
     4    81    72   am
     5    70    71    1
     6    71    72    1
     7    71    74    1
     8    84    83    2
     9    78    76   ar
    10    78    80   ar
    11    82    83    1
    12    72    73    2
    13    76    75   ar
    14    98    97    2
    15    97    96    1
    16    80    79   ar
    17    83    87   am
    18    75    74    1
    19    75    77   ar
    20    79    77   ar
    21    64    63    2
    22    96    95    1
    23    87    88    1
    24    90    89    2
    25    95    89   am
    26    91    88    1
    27    91    92    1
    28    89    88    1
    29    94    92   am
    30    63    62    1
    31    61    62    1
    32    92    93    2
    33    56    55    2
    34    55    54    1
    35    62    65    1
    36    53    54    1
    37    47    46    2
    38    66    65    1
    39    66    67    1
    40    46    45    1
    41    54    57    1
    42    44    45    1
    43    68    67    1
    44    68    69    1
    45    45    48    1
    46    57    58    1
    47    48    49    1
    48    34    33    1
    49    34    35    2
    50    32    33    1
    51    58    59    1
    52    58    60    1
    53    33    36    1
    54    49    50    1
    55    38    40   ar
    56    38    37   ar
    57    40    42   ar
    58    36    37    1
    59    50    51    1
    60    37    39   ar
    61    52    51    1
    62    42    43    1
    63    42    41   ar
    64    39    41   ar
    65     6     5    1
    66    13    12    1
    67     5     2    1
    68    12    14    1
    69    12    11    1
    70    30    29   ar
    71     2     1    1
    72     2     3    1
    73    31    29   ar
    74    11     8    1
    75    29    28    1
    76     4     3    2
    77    10     9    2
    78     8     9    1
    79     8     7    1
    80     9    15   am
    81    28    25    1
    82    23    22    1
    83    15    16    1
    84    21    20    1
    85    21    22    1
    86    20    19    1
    87    16    19    1
    88    16    17    1
    89    25    24    1
    90    25    26    1
    91    18    17    2
    92    27    26    2
