@<TRIPOS>MOLECULE
tmp/5f25A00.pdb
 106 104 0 0 0
SMALL
GASTEIGER

@<TRIPOS>ATOM
      1  N          5.8970    3.1170    0.9000 N.3    22  GLY22      -0.1210
      2  CA         6.0870    3.2220    2.3410 C.3    22  GLY22       0.1956
      3  C          6.8440    2.0680    2.9710 C.2    22  GLY22       0.2612
      4  O          6.5430    1.6830    4.1030 O.2    22  GLY22      -0.2717
      5  N          7.8410    1.5100    2.2540 N.am   23  PHE23      -0.1962
      6  CA         8.6640    0.4070    2.7690 C.3    23  PHE23       0.1771
      7  C          9.5120    0.8460    3.9640 C.2    23  PHE23       0.2619
      8  O          9.7960    0.0330    4.8380 O.2    23  PHE23      -0.2715
      9  CB         9.5660   -0.1910    1.6700 C.3    23  PHE23       0.0574
     10  CG         8.8620   -0.8690    0.5160 C.ar   23  PHE23      -0.0200
     11  CD1        7.9000   -1.8490    0.7410 C.ar   23  PHE23      -0.0042
     12  CD2        9.2050   -0.5740   -0.7980 C.ar   23  PHE23      -0.0042
     13  CE1        7.2570   -2.4820   -0.3290 C.ar   23  PHE23      -0.0003
     14  CE2        8.5700   -1.2150   -1.8670 C.ar   23  PHE23      -0.0003
     15  CZ         7.5980   -2.1620   -1.6250 C.ar   23  PHE23      -0.0000
     16  N          9.9000    2.1330    4.0030 N.am   24  PHE24      -0.1974
     17  CA        10.7230    2.7060    5.0720 C.3    24  PHE24       0.1639
     18  C          9.9100    3.5630    6.0600 C.2    24  PHE24       0.2290
     19  O         10.4940    4.1960    6.9450 O.2    24  PHE24      -0.2864
     20  CB        11.8840    3.5130    4.4610 C.3    24  PHE24       0.0560
     21  CG        12.9040    2.6590    3.7470 C.ar   24  PHE24      -0.0200
     22  CD1       13.9620    2.0860    4.4410 C.ar   24  PHE24      -0.0042
     23  CD2       12.8000    2.4170    2.3810 C.ar   24  PHE24      -0.0042
     24  CE1       14.9110    1.3020    3.7800 C.ar   24  PHE24      -0.0003
     25  CE2       13.7410    1.6200    1.7230 C.ar   24  PHE24      -0.0003
     26  CZ        14.7840    1.0600    2.4290 C.ar   24  PHE24      -0.0000
     27  N          7.7140    2.6490    8.5570 N.3    26  PHE26      -0.1241
     28  CA         7.6320    2.1410    9.9310 C.3    26  PHE26       0.1605
     29  C          8.7610    1.1410   10.2850 C.2    26  PHE26       0.2264
     30  O          9.3980    0.6260    9.3600 O.2    26  PHE26      -0.2867
     31  CB         6.2380    1.5200   10.1740 C.3    26  PHE26       0.0534
     32  CG         5.0900    2.5000   10.0900 C.ar   26  PHE26      -0.0203
     33  CD1        4.7570    3.3010   11.1760 C.ar   26  PHE26      -0.0042
     34  CD2        4.3350    2.6130    8.9290 C.ar   26  PHE26      -0.0042
     35  CE1        3.6950    4.2080   11.0970 C.ar   26  PHE26      -0.0003
     36  CE2        3.2720    3.5180    8.8520 C.ar   26  PHE26      -0.0003
     37  CZ         2.9590    4.3090    9.9360 C.ar   26  PHE26      -0.0000
     38  N         10.9910   -2.1730   10.9500 N.3    28  VAL28      -0.1245
     39  CA        10.9190   -3.5280   10.3950 C.3    28  VAL28       0.1561
     40  C         10.7640   -4.5300   11.5500 C.2    28  VAL28       0.2260
     41  O         11.6600   -4.6530   12.3880 O.2    28  VAL28      -0.2867
     42  CB        12.1260   -3.8780    9.4770 C.3    28  VAL28       0.0252
     43  CG1       11.9600   -5.2630    8.8650 C.3    28  VAL28       0.0019
     44  CG2       12.3210   -2.8330    8.3800 C.3    28  VAL28       0.0019
     45  N          7.3630   -9.5310    9.6710 N.3    32  ILE32      -0.1231
     46  CA         7.4780   -9.1970    8.2460 C.3    32  ILE32       0.1692
     47  C          8.8160   -9.6380    7.6430 C.2    32  ILE32       0.2591
     48  O          8.8550  -10.0210    6.4740 O.2    32  ILE32      -0.2718
     49  CB         7.1000   -7.7280    7.9040 C.3    32  ILE32       0.0266
     50  CG1        7.9570   -6.7060    8.6920 C.3    32  ILE32       0.0019
     51  CG2        5.5900   -7.4940    8.0930 C.3    32  ILE32       0.0020
     52  CD1        8.0110   -5.2860    8.1350 C.3    32  ILE32       0.0001
     53  N          9.9020   -9.6030    8.4420 N.am   33  ALA33      -0.1980
     54  CA        11.2390  -10.0140    8.0130 C.3    33  ALA33       0.1597
     55  C         11.8590  -10.9810    9.0340 C.2    33  ALA33       0.2287
     56  O         12.3800  -10.5300   10.0580 O.2    33  ALA33      -0.2864
     57  CB        12.1310   -8.7980    7.8150 C.3    33  ALA33       0.0319
     58  N         15.2380  -10.5240   11.5520 N.3    36  TYR36      -0.1241
     59  CA        15.6980   -9.1420   11.3790 C.3    36  TYR36       0.1605
     60  C         16.4710   -8.6270   12.6060 C.2    36  TYR36       0.2264
     61  O         17.5890   -8.1350   12.4460 O.2    36  TYR36      -0.2867
     62  CB        14.5350   -8.1980   11.0060 C.3    36  TYR36       0.0534
     63  CG        15.0000   -6.8390   10.5280 C.ar   36  TYR36      -0.0201
     64  CD1       15.3740   -6.6340    9.2030 C.ar   36  TYR36      -0.0009
     65  CD2       15.0750   -5.7580   11.4030 C.ar   36  TYR36      -0.0009
     66  CE1       15.8130   -5.3870    8.7590 C.ar   36  TYR36       0.0417
     67  CE2       15.5130   -4.5070   10.9720 C.ar   36  TYR36       0.0417
     68  CZ        15.8850   -4.3270    9.6480 C.ar   36  TYR36       0.1957
     69  OH        16.3360   -3.1020    9.2240 O.3    36  TYR36      -0.2866
     70  N         18.9630   -1.7580    5.5440 N.3    75  ALA75      -0.1245
     71  CA        18.2650   -2.4230    4.4470 C.3    75  ALA75       0.1562
     72  C         19.2530   -3.1080    3.5080 C.2    75  ALA75       0.2260
     73  O         18.9830   -4.2150    3.0600 O.2    75  ALA75      -0.2867
     74  CB        17.4120   -1.4260    3.6900 C.3    75  ALA75       0.0290
     75  N         20.6920   -6.3460    5.6080 N.3    78  TYR78      -0.1227
     76  CA        19.7380   -7.4420    5.7500 C.3    78  TYR78       0.1736
     77  C         19.3180   -8.0710    4.4180 C.2    78  TYR78       0.2595
     78  O         19.2610   -9.3000    4.3110 O.2    78  TYR78      -0.2718
     79  CB        18.5110   -6.9940    6.5680 C.3    78  TYR78       0.0548
     80  CG        17.4700   -8.0780    6.7330 C.ar   78  TYR78      -0.0200
     81  CD1       17.6050   -9.0590    7.7130 C.ar   78  TYR78      -0.0009
     82  CD2       16.3650   -8.1450    5.8900 C.ar   78  TYR78      -0.0009
     83  CE1       16.6590  -10.0730    7.8570 C.ar   78  TYR78       0.0417
     84  CE2       15.4270   -9.1670    6.0080 C.ar   78  TYR78       0.0417
     85  CZ        15.5700  -10.1220    7.0010 C.ar   78  TYR78       0.1957
     86  OH        14.6320  -11.1180    7.1220 O.3    78  TYR78      -0.2866
     87  N         18.9710   -7.2340    3.4360 N.am   79  ASN79      -0.1974
     88  CA        18.4610   -7.6750    2.1370 C.3    79  ASN79       0.1688
     89  C         19.5500   -7.8870    1.1080 C.2    79  ASN79       0.2292
     90  O         20.4680   -7.0770    1.0220 O.2    79  ASN79      -0.2864
     91  CB        17.4470   -6.6720    1.6070 C.3    79  ASN79       0.1181
     92  CG        16.3010   -6.4420    2.5520 C.2    79  ASN79       0.2629
     93  OD1       15.4030   -7.2740    2.6770 O.2    79  ASN79      -0.2716
     94  ND2       16.3290   -5.3210    3.2600 N.am   79  ASN79      -0.0877
     95  N         14.0240   -3.9580   -1.5990 N.3    85  TYR85      -0.1241
     96  CA        14.4600   -3.1850   -0.4350 C.3    85  TYR85       0.1605
     97  C         15.8970   -2.6970   -0.5220 C.2    85  TYR85       0.2264
     98  O         16.1550   -1.5410   -0.1910 O.2    85  TYR85      -0.2867
     99  CB        14.1990   -3.9460    0.8740 C.3    85  TYR85       0.0534
    100  CG        12.8330   -4.5950    0.9310 C.ar   85  TYR85      -0.0201
    101  CD1       11.6720   -3.8270    0.9110 C.ar   85  TYR85      -0.0009
    102  CD2       12.7000   -5.9780    1.0050 C.ar   85  TYR85      -0.0009
    103  CE1       10.4110   -4.4200    0.9450 C.ar   85  TYR85       0.0417
    104  CE2       11.4440   -6.5830    1.0470 C.ar   85  TYR85       0.0417
    105  CZ        10.3020   -5.7990    1.0170 C.ar   85  TYR85       0.1957
    106  OH         9.0590   -6.3860    1.0600 O.3    85  TYR85      -0.2866
@<TRIPOS>BOND
     1    14    15   ar
     2    14    12   ar
     3    15    13   ar
     4    95    96    1
     5    12    10   ar
     6    97    96    1
     7    97    98    2
     8    96    99    1
     9    13    11   ar
    10    10    11   ar
    11    10     9    1
    12    99   100    1
    13     1     2    1
    14   101   100   ar
    15   101   103   ar
    16   100   102   ar
    17   103   105   ar
    18   102   104   ar
    19   105   104   ar
    20   105   106    1
    21    90    89    2
    22    89    88    1
    23    91    88    1
    24    91    92    1
    25     9     6    1
    26    25    23   ar
    27    25    26   ar
    28    88    87    1
    29     5     6    1
    30     5     3   am
    31     2     3    1
    32    23    21   ar
    33    26    24   ar
    34    92    93    2
    35    92    94   am
    36     6     7    1
    37     3     4    2
    38    73    72    2
    39    87    77   am
    40    72    71    1
    41    74    71    1
    42    21    22   ar
    43    21    20    1
    44    24    22   ar
    45     7    16   am
    46     7     8    2
    47    16    17    1
    48    78    77    2
    49    77    76    1
    50    71    70    1
    51    20    17    1
    52    17    18    1
    53    75    76    1
    54    76    79    1
    55    82    84   ar
    56    82    80   ar
    57    84    85   ar
    58    18    19    2
    59    48    47    2
    60    79    80    1
    61    80    81   ar
    62    85    86    1
    63    85    83   ar
    64    47    46    1
    65    47    53   am
    66    81    83   ar
    67    57    54    1
    68    49    51    1
    69    49    46    1
    70    49    50    1
    71    54    53    1
    72    54    55    1
    73    52    50    1
    74    46    45    1
    75    44    42    1
    76    27    28    1
    77    66    64   ar
    78    66    68   ar
    79    36    34   ar
    80    36    37   ar
    81    43    42    1
    82    34    32   ar
    83    55    56    2
    84    64    63   ar
    85    69    68    1
    86    30    29    2
    87    42    39    1
    88    68    67   ar
    89    28    31    1
    90    28    29    1
    91    37    35   ar
    92    32    31    1
    93    32    33   ar
    94    39    38    1
    95    39    40    1
    96    63    62    1
    97    63    65   ar
    98    67    65   ar
    99    62    59    1
   100    35    33   ar
   101    59    58    1
   102    59    60    1
   103    40    41    2
   104    61    60    2
