@<TRIPOS>MOLECULE
tmp/5f27A00.pdb
 148 146 0 0 0
SMALL
GASTEIGER

@<TRIPOS>ATOM
      1  N         28.5740   70.5790    6.5890 N.3    83  PHE83      -0.1241
      2  CA        28.4430   72.0290    6.4690 C.3    83  PHE83       0.1605
      3  C         28.3550   72.4510    5.0130 C.2    83  PHE83       0.2264
      4  O         27.5490   73.3120    4.6540 O.2    83  PHE83      -0.2867
      5  CB        29.6310   72.7350    7.1210 C.3    83  PHE83       0.0534
      6  CG        29.8060   72.4350    8.5710 C.ar   83  PHE83      -0.0203
      7  CD1       30.5340   71.3320    8.9790 C.ar   83  PHE83      -0.0042
      8  CD2       29.2830   73.2760    9.5340 C.ar   83  PHE83      -0.0042
      9  CE1       30.7090   71.0600   10.3090 C.ar   83  PHE83      -0.0003
     10  CE2       29.4630   73.0020   10.8770 C.ar   83  PHE83      -0.0003
     11  CZ        30.1790   71.9030   11.2600 C.ar   83  PHE83      -0.0000
     12  N         24.5340   74.0210    4.3400 N.3    87  PHE87      -0.1241
     13  CA        24.4650   75.4530    4.0770 C.3    87  PHE87       0.1605
     14  C         24.5280   75.7580    2.5820 C.2    87  PHE87       0.2264
     15  O         23.9370   76.7420    2.1340 O.2    87  PHE87      -0.2867
     16  CB        25.5640   76.1820    4.8450 C.3    87  PHE87       0.0534
     17  CG        25.3710   76.1340    6.3310 C.ar   87  PHE87      -0.0203
     18  CD1       24.4630   76.9820    6.9400 C.ar   87  PHE87      -0.0042
     19  CD2       26.0860   75.2440    7.1120 C.ar   87  PHE87      -0.0042
     20  CE1       24.2690   76.9360    8.3070 C.ar   87  PHE87      -0.0003
     21  CE2       25.8890   75.1910    8.4740 C.ar   87  PHE87      -0.0003
     22  CZ        24.9790   76.0400    9.0710 C.ar   87  PHE87      -0.0000
     23  N         21.7040   81.4260    4.2710 N.3    94  THR94      -0.1218
     24  CA        23.0340   81.5030    4.8650 C.3    94  THR94       0.1862
     25  C         23.6220   82.9040    4.7230 C.2    94  THR94       0.2287
     26  O         24.1650   83.4640    5.6800 O.2    94  THR94      -0.2866
     27  CB        23.9500   80.4730    4.1960 C.3    94  THR94       0.1770
     28  OG1       23.4490   79.1580    4.4510 O.3    94  THR94      -0.2211
     29  CG2       25.3510   80.6010    4.7560 C.3    94  THR94       0.0375
     30  N         24.1600   85.4200    7.8480 N.3    98  GLN98      -0.1245
     31  CA        25.4720   85.9310    8.2230 C.3    98  GLN98       0.1566
     32  C         25.4630   87.4490    8.3110 C.2    98  GLN98       0.2260
     33  O         26.0290   88.0220    9.2480 O.2    98  GLN98      -0.2867
     34  CB        26.5320   85.4410    7.2390 C.3    98  GLN98       0.0367
     35  CG        26.9940   84.0210    7.5300 C.3    98  GLN98       0.0905
     36  CD        27.7580   83.9250    8.8460 C.2    98  GLN98       0.2608
     37  OE1       28.3760   84.8980    9.2890 O.2    98  GLN98      -0.2717
     38  NE2       27.7200   82.7530    9.4720 N.am   98  GLN98      -0.0878
     39  N         24.1710   81.5220   15.7970 N.3   111  TRP111     -0.1241
     40  CA        25.4440   81.1200   15.1990 C.3   111  TRP111      0.1605
     41  C         26.4450   80.7100   16.2700 C.2   111  TRP111      0.2264
     42  O         27.0990   79.6670   16.1620 O.2   111  TRP111     -0.2867
     43  CB        26.0320   82.2600   14.3670 C.3   111  TRP111      0.0550
     44  CG        25.3980   82.5380   13.0290 C.ar  111  TRP111      0.0003
     45  CD1       24.7440   83.6790   12.6590 C.ar  111  TRP111      0.0946
     46  CD2       25.3980   81.6860   11.8730 C.ar  111  TRP111      0.0152
     47  NE1       24.3260   83.5890   11.3520 N.ar  111  TRP111     -0.2442
     48  CE2       24.7070   82.3730   10.8490 C.ar  111  TRP111      0.0810
     49  CE3       25.8900   80.4040   11.6130 C.ar  111  TRP111      0.0012
     50  CZ2       24.5110   81.8250    9.5800 C.ar  111  TRP111      0.0191
     51  CZ3       25.6920   79.8590   10.3510 C.ar  111  TRP111      0.0001
     52  CH2       25.0080   80.5690    9.3530 C.ar  111  TRP111      0.0015
     53  N         25.7750   77.2240   17.9780 N.3   114  PHE114     -0.1227
     54  CA        26.0740   76.1440   17.0440 C.3   114  PHE114      0.1736
     55  C         27.5790   75.9630   16.8840 C.2   114  PHE114      0.2595
     56  O         28.0920   74.8400   16.9450 O.2   114  PHE114     -0.2718
     57  CB        25.4010   76.4550   15.6980 C.3   114  PHE114      0.0547
     58  CG        25.7410   75.4920   14.5740 C.ar  114  PHE114     -0.0202
     59  CD1       25.2480   74.2010   14.5570 C.ar  114  PHE114     -0.0042
     60  CD2       26.5040   75.9140   13.4960 C.ar  114  PHE114     -0.0042
     61  CE1       25.5350   73.3420   13.5110 C.ar  114  PHE114     -0.0003
     62  CE2       26.7880   75.0600   12.4570 C.ar  114  PHE114     -0.0003
     63  CZ        26.3100   73.7790   12.4570 C.ar  114  PHE114     -0.0000
     64  N         28.3030   77.0660   16.6860 N.am  115  MET115     -0.1979
     65  CA        29.7460   76.9730   16.4750 C.3   115  MET115      0.1605
     66  C         30.4430   76.4130   17.7090 C.2   115  MET115      0.2287
     67  O         31.3260   75.5590   17.6010 O.2   115  MET115     -0.2864
     68  CB        30.3180   78.3490   16.1300 C.3   115  MET115      0.0413
     69  CG        29.9630   78.8540   14.7840 C.3   115  MET115      0.0598
     70  SD        31.0350   78.0190   13.6380 S.3   115  MET115     -0.1393
     71  CE        32.4910   79.0450   13.6180 C.3   115  MET115      0.0692
     72  N         30.1100   72.5370   17.8930 N.3   118  TRP118     -0.1227
     73  CA        30.8830   71.6730   17.0140 C.3   118  TRP118      0.1737
     74  C         32.3780   71.9430   17.0950 C.2   118  TRP118      0.2595
     75  O         33.1540   71.0390   16.7830 O.2   118  TRP118     -0.2718
     76  CB        30.3190   71.7440   15.5830 C.3   118  TRP118      0.0564
     77  CG        28.9690   71.0900   15.6240 C.ar  118  TRP118      0.0003
     78  CD1       27.7530   71.7030   15.5710 C.ar  118  TRP118      0.0946
     79  CD2       28.7110   69.6970   15.8690 C.ar  118  TRP118      0.0152
     80  NE1       26.7490   70.7700   15.7310 N.ar  118  TRP118     -0.2442
     81  CE2       27.3120   69.5320   15.9080 C.ar  118  TRP118      0.0810
     82  CE3       29.5290   68.5710   16.0270 C.ar  118  TRP118      0.0012
     83  CZ2       26.7120   68.2840   16.1160 C.ar  118  TRP118      0.0191
     84  CZ3       28.9310   67.3280   16.2290 C.ar  118  TRP118      0.0001
     85  CH2       27.5370   67.2010   16.2730 C.ar  118  TRP118      0.0015
     86  N         32.7920   73.1110   17.6150 N.am  119  ILE119     -0.1980
     87  CA        34.1870   73.2910   18.0290 C.3   119  ILE119      0.1595
     88  C         34.5130   72.3600   19.1900 C.2   119  ILE119      0.2287
     89  O         35.5340   71.6710   19.1850 O.2   119  ILE119     -0.2864
     90  CB        34.4590   74.7610   18.3960 C.3   119  ILE119      0.0276
     91  CG1       34.5200   75.6110   17.1300 C.3   119  ILE119      0.0022
     92  CG2       35.7790   74.9170   19.2210 C.3   119  ILE119      0.0022
     93  CD1       34.5210   77.0940   17.4410 C.3   119  ILE119      0.0001
     94  N         37.5380   75.6190   12.5760 N.3   149  ASN149     -0.1240
     95  CA        36.1190   75.8000   12.3090 C.3   149  ASN149      0.1653
     96  C         35.8140   77.2220   11.8400 C.2   149  ASN149      0.2266
     97  O         34.9510   77.4200   10.9810 O.2   149  ASN149     -0.2867
     98  CB        35.3120   75.3940   13.5500 C.3   149  ASN149      0.1155
     99  CG        35.0940   73.8730   13.5970 C.2   149  ASN149      0.2627
    100  OD1       34.3790   73.3230   12.7430 O.2   149  ASN149     -0.2716
    101  ND2       35.7640   73.1850   14.5100 N.am  149  ASN149     -0.0877
    102  N         36.5960   77.2540    8.2470 N.3   152  ASN152     -0.1225
    103  CA        35.5490   76.6430    7.4270 C.3   152  ASN152      0.1785
    104  C         34.3750   77.5870    7.2490 C.2   152  ASN152      0.2597
    105  O         33.8330   77.7180    6.1440 O.2   152  ASN152     -0.2718
    106  CB        35.0630   75.3400    8.0470 C.3   152  ASN152      0.1169
    107  CG        36.0390   74.2020    7.8690 C.2   152  ASN152      0.2627
    108  OD1       37.1680   74.3920    7.4240 O.2   152  ASN152     -0.2716
    109  ND2       35.6040   72.9960    8.2420 N.am  152  ASN152     -0.0877
    110  N         33.9510   78.2450    8.3300 N.am  153  GLU153     -0.1979
    111  CA        32.8540   79.1980    8.2290 C.3   153  GLU153      0.1602
    112  C         33.1590   80.2750    7.1960 C.2   153  GLU153      0.2287
    113  O         32.3610   80.5350    6.2830 O.2   153  GLU153     -0.2864
    114  CB        32.5980   79.8360    9.5960 C.3   153  GLU153      0.0415
    115  CG        31.5250   80.9170    9.5800 C.3   153  GLU153      0.1163
    116  CD        31.6830   81.9040   10.7410 C.2   153  GLU153      0.3649
    117  OE1       31.6690   81.4570   11.8900 O.co2 153  GLU153     -0.2457
    118  OE2       31.8260   83.1190   10.5080 O.co2 153  GLU153     -0.2457
    119  N         33.9420   78.5430    3.4120 N.3   156  LEU156     -0.1231
    120  CA        32.7290   78.0550    2.7580 C.3   156  LEU156      0.1693
    121  C         31.8210   79.2120    2.3850 C.2   156  LEU156      0.2592
    122  O         31.2900   79.2580    1.2630 O.2   156  LEU156     -0.2718
    123  CB        31.9950   77.0540    3.6500 C.3   156  LEU156      0.0284
    124  CG        32.6770   75.7020    3.8590 C.3   156  LEU156      0.0019
    125  CD1       31.9380   74.9020    4.9470 C.3   156  LEU156      0.0001
    126  CD2       32.7850   74.8810    2.5480 C.3   156  LEU156      0.0001
    127  N         31.6430   80.1700    3.2980 N.am  157  PHE157     -0.1976
    128  CA        30.8010   81.3220    3.0060 C.3   157  PHE157      0.1639
    129  C         31.2970   82.0560    1.7690 C.2   157  PHE157      0.2290
    130  O         30.5070   82.3950    0.8790 O.2   157  PHE157     -0.2864
    131  CB        30.7540   82.2740    4.1950 C.3   157  PHE157      0.0560
    132  CG        29.8300   83.4460    3.9810 C.ar  157  PHE157     -0.0200
    133  CD1       28.4930   83.3710    4.3660 C.ar  157  PHE157     -0.0042
    134  CD2       30.2870   84.6140    3.3820 C.ar  157  PHE157     -0.0042
    135  CE1       27.6370   84.4440    4.1620 C.ar  157  PHE157     -0.0003
    136  CE2       29.4280   85.6810    3.1660 C.ar  157  PHE157     -0.0003
    137  CZ        28.1070   85.5970    3.5620 C.ar  157  PHE157     -0.0000
    138  N         30.4210   80.0950   -1.3730 N.3   160  PHE160     -0.1241
    139  CA        28.9920   80.1370   -1.6810 C.3   160  PHE160      0.1605
    140  C         28.6160   81.4670   -2.3120 C.2   160  PHE160      0.2264
    141  O         27.9140   81.5080   -3.3290 O.2   160  PHE160     -0.2867
    142  CB        28.1520   79.9340   -0.4230 C.3   160  PHE160      0.0534
    143  CG        28.2600   78.5660    0.1940 C.ar  160  PHE160     -0.0203
    144  CD1       28.7190   77.4750   -0.5350 C.ar  160  PHE160     -0.0042
    145  CD2       27.8960   78.3790    1.5170 C.ar  160  PHE160     -0.0042
    146  CE1       28.8050   76.2140    0.0510 C.ar  160  PHE160     -0.0003
    147  CE2       27.9800   77.1310    2.1060 C.ar  160  PHE160     -0.0003
    148  CZ        28.4360   76.0480    1.3740 C.ar  160  PHE160     -0.0000
@<TRIPOS>BOND
     1   141   140    2
     2   140   139    1
     3   139   138    1
     4   139   142    1
     5   144   146   ar
     6   144   143   ar
     7   142   143    1
     8   146   148   ar
     9   143   145   ar
    10   130   129    2
    11   122   121    2
    12   148   147   ar
    13   145   147   ar
    14   129   128    1
    15    15    14    2
    16   121   120    1
    17   121   127   am
    18   126   124    1
    19    14    13    1
    20   120   119    1
    21   120   123    1
    22   128   127    1
    23   128   131    1
    24   136   134   ar
    25   136   137   ar
    26   134   132   ar
    27   137   135   ar
    28   123   124    1
    29   124   125    1
    30   132   131    1
    31   132   133   ar
    32    13    12    1
    33    13    16    1
    34   135   133   ar
    35    27    28    1
    36    27    29    1
    37    27    24    1
    38    23    24    1
    39     4     3    2
    40    25    24    1
    41    25    26    2
    42    16    17    1
    43     3     2    1
    44   105   104    2
    45   113   112    2
    46    17    18   ar
    47    17    19   ar
    48     2     1    1
    49     2     5    1
    50    18    20   ar
    51    19    21   ar
    52     5     6    1
    53   112   111    1
    54    34    35    1
    55    34    31    1
    56   104   103    1
    57   104   110   am
    58   108   107    2
    59   103   106    1
    60   103   102    1
    61    35    36    1
    62    30    31    1
    63   107   106    1
    64   107   109   am
    65    31    32    1
    66   111   110    1
    67   111   114    1
    68    20    22   ar
    69    32    33    2
    70    21    22   ar
    71     6     7   ar
    72     6     8   ar
    73    36    37    2
    74    36    38   am
    75     7     9   ar
    76    52    50   ar
    77    52    51   ar
    78     8    10   ar
    79   115   114    1
    80   115   116    1
    81    50    48   ar
    82     9    11   ar
    83    51    49   ar
    84   118   116   ar
    85   116   117   ar
    86    48    47   ar
    87    48    46   ar
    88    10    11   ar
    89    97    96    2
    90    47    45   ar
    91    49    46   ar
    92    96    95    1
    93    46    44   ar
    94    95    94    1
    95    95    98    1
    96    62    63   ar
    97    62    60   ar
    98    63    61   ar
    99    45    44   ar
   100   100    99    2
   101    44    43    1
   102    60    58   ar
   103    61    59   ar
   104    98    99    1
   105    99   101   am
   106    71    70    1
   107    70    69    1
   108    43    40    1
   109    59    58   ar
   110    58    57    1
   111    69    68    1
   112    40    39    1
   113    40    41    1
   114    78    77   ar
   115    78    80   ar
   116    76    77    1
   117    76    73    1
   118    77    79   ar
   119    57    54    1
   120    80    81   ar
   121    79    81   ar
   122    79    82   ar
   123    81    83   ar
   124    82    84   ar
   125    83    85   ar
   126    68    65    1
   127    42    41    2
   128    84    85   ar
   129    65    64    1
   130    65    66    1
   131    64    55   am
   132    75    74    2
   133    55    56    2
   134    55    54    1
   135    73    74    1
   136    73    72    1
   137    54    53    1
   138    74    86   am
   139    91    93    1
   140    91    90    1
   141    67    66    2
   142    86    87    1
   143    87    90    1
   144    87    88    1
   145    90    92    1
   146    89    88    2
