@<TRIPOS>MOLECULE
tmp/5f27A01.pdb
 144 140 0 0 0
SMALL
GASTEIGER

@<TRIPOS>ATOM
      1  N         25.1500   66.3220   11.6550 N.3    64  LEU64      -0.1245
      2  CA        26.3840   66.0940   12.3930 C.3    64  LEU64       0.1561
      3  C         26.1670   65.1370   13.5560 C.2    64  LEU64       0.2260
      4  O         26.9980   64.2570   13.8060 O.2    64  LEU64      -0.2867
      5  CB        26.9340   67.4320   12.8830 C.3    64  LEU64       0.0270
      6  CG        27.4710   68.3240   11.7650 C.3    64  LEU64       0.0019
      7  CD1       27.5070   69.7740   12.2210 C.3    64  LEU64       0.0001
      8  CD2       28.8620   67.8590   11.3110 C.3    64  LEU64       0.0001
      9  N         26.0790   61.6160   12.2140 N.3    67  LEU67      -0.1231
     10  CA        27.4360   61.1410   11.9670 C.3    67  LEU67       0.1693
     11  C         28.1460   60.7830   13.2660 C.2    67  LEU67       0.2591
     12  O         28.8270   59.7550   13.3510 O.2    67  LEU67      -0.2718
     13  CB        28.2380   62.2100   11.2260 C.3    67  LEU67       0.0284
     14  CG        28.3700   62.2320    9.7210 C.3    67  LEU67       0.0019
     15  CD1       29.4800   63.2220    9.4100 C.3    67  LEU67       0.0001
     16  CD2       28.6890   60.8470    9.1720 C.3    67  LEU67       0.0001
     17  N         28.0210   61.6400   14.2870 N.am   68  ALA68      -0.1980
     18  CA        28.7550   61.4230   15.5310 C.3    68  ALA68       0.1597
     19  C         28.2900   60.1640   16.2440 C.2    68  ALA68       0.2287
     20  O         29.0680   59.5520   16.9810 O.2    68  ALA68      -0.2864
     21  CB        28.6060   62.6240   16.4650 C.3    68  ALA68       0.0319
     22  N         27.3800   57.2930   14.8880 N.3    70  ASN70      -0.1240
     23  CA        27.7640   56.0590   14.2330 C.3    70  ASN70       0.1653
     24  C         29.2600   55.7980   14.3910 C.2    70  ASN70       0.2266
     25  O         30.0380   56.7170   14.6480 O.2    70  ASN70      -0.2867
     26  CB        27.3650   56.1140   12.7590 C.3    70  ASN70       0.1155
     27  CG        25.8840   56.4060   12.5730 C.2    70  ASN70       0.2627
     28  OD1       25.0460   55.9360   13.3460 O.2    70  ASN70      -0.2716
     29  ND2       25.5550   57.1860   11.5540 N.am   70  ASN70      -0.0877
     30  N         37.2100   60.4940    7.5300 N.3    75  MET75      -0.1230
     31  CA        36.4260   60.8530    8.7080 C.3    75  MET75       0.1702
     32  C         36.1740   62.3580    8.7560 C.2    75  MET75       0.2592
     33  O         35.0250   62.8040    8.8830 O.2    75  MET75      -0.2718
     34  CB        37.1450   60.3830    9.9820 C.3    75  MET75       0.0401
     35  CG        36.4110   60.7330   11.2800 C.3    75  MET75       0.0596
     36  SD        37.3280   60.3600   12.8030 S.3    75  MET75      -0.1393
     37  CE        38.5960   61.6240   12.7790 C.3    75  MET75       0.0692
     38  N         37.2410   63.1570    8.6140 N.am   76  TRP76      -0.1976
     39  CA        37.0900   64.6080    8.6760 C.3    76  TRP76       0.1640
     40  C         36.3440   65.1370    7.4550 C.2    76  TRP76       0.2290
     41  O         35.5020   66.0340    7.5820 O.2    76  TRP76      -0.2864
     42  CB        38.4600   65.2830    8.8030 C.3    76  TRP76       0.0576
     43  CG        39.1460   64.9890   10.1180 C.ar   76  TRP76       0.0006
     44  CD1       40.2340   64.1840   10.3190 C.ar   76  TRP76       0.0946
     45  CD2       38.7710   65.4870   11.4060 C.ar   76  TRP76       0.0152
     46  NE1       40.5600   64.1590   11.6610 N.ar   76  TRP76      -0.2442
     47  CE2       39.6720   64.9410   12.3490 C.ar   76  TRP76       0.0810
     48  CE3       37.7510   66.3270   11.8580 C.ar   76  TRP76       0.0012
     49  CZ2       39.5950   65.2320   13.7130 C.ar   76  TRP76       0.0191
     50  CZ3       37.6690   66.6090   13.2230 C.ar   76  TRP76       0.0001
     51  CH2       38.5950   66.0660   14.1300 C.ar   76  TRP76       0.0015
     52  N         32.5370   64.8730    7.7840 N.3    79  GLY79      -0.1210
     53  CA        31.9400   65.8530    8.6760 C.3    79  GLY79       0.1956
     54  C         31.9450   67.2560    8.0990 C.2    79  GLY79       0.2611
     55  O         30.9460   67.9720    8.1790 O.2    79  GLY79      -0.2717
     56  N         33.0690   67.6770    7.5160 N.am   80  ILE80      -0.1979
     57  CA        33.1040   69.0010    6.8980 C.3    80  ILE80       0.1595
     58  C         32.0480   69.0910    5.8070 C.2    80  ILE80       0.2287
     59  O         31.4000   70.1310    5.6240 O.2    80  ILE80      -0.2864
     60  CB        34.5140   69.3080    6.3590 C.3    80  ILE80       0.0276
     61  CG1       35.5180   69.3360    7.5360 C.3    80  ILE80       0.0022
     62  CG2       34.5050   70.6380    5.5920 C.3    80  ILE80       0.0022
     63  CD1       36.9720   69.4450    7.0780 C.3    80  ILE80       0.0001
     64  N         28.5740   70.5790    6.5890 N.3    83  PHE83      -0.1241
     65  CA        28.4430   72.0290    6.4690 C.3    83  PHE83       0.1605
     66  C         28.3550   72.4510    5.0130 C.2    83  PHE83       0.2264
     67  O         27.5490   73.3120    4.6540 O.2    83  PHE83      -0.2867
     68  CB        29.6310   72.7350    7.1210 C.3    83  PHE83       0.0534
     69  CG        29.8060   72.4350    8.5710 C.ar   83  PHE83      -0.0203
     70  CD1       30.5340   71.3320    8.9790 C.ar   83  PHE83      -0.0042
     71  CD2       29.2830   73.2760    9.5340 C.ar   83  PHE83      -0.0042
     72  CE1       30.7090   71.0600   10.3090 C.ar   83  PHE83      -0.0003
     73  CE2       29.4630   73.0020   10.8770 C.ar   83  PHE83      -0.0003
     74  CZ        30.1790   71.9030   11.2600 C.ar   83  PHE83      -0.0000
     75  N         30.1100   72.5370   17.8930 N.3   118  TRP118     -0.1241
     76  CA        30.8830   71.6730   17.0140 C.3   118  TRP118      0.1605
     77  C         32.3780   71.9430   17.0950 C.2   118  TRP118      0.2264
     78  O         33.1540   71.0390   16.7830 O.2   118  TRP118     -0.2867
     79  CB        30.3190   71.7440   15.5830 C.3   118  TRP118      0.0550
     80  CG        28.9690   71.0900   15.6240 C.ar  118  TRP118      0.0003
     81  CD1       27.7530   71.7030   15.5710 C.ar  118  TRP118      0.0946
     82  CD2       28.7110   69.6970   15.8690 C.ar  118  TRP118      0.0152
     83  NE1       26.7490   70.7700   15.7310 N.ar  118  TRP118     -0.2442
     84  CE2       27.3120   69.5320   15.9080 C.ar  118  TRP118      0.0810
     85  CE3       29.5290   68.5710   16.0270 C.ar  118  TRP118      0.0012
     86  CZ2       26.7120   68.2840   16.1160 C.ar  118  TRP118      0.0191
     87  CZ3       28.9310   67.3280   16.2290 C.ar  118  TRP118      0.0001
     88  CH2       27.5370   67.2010   16.2730 C.ar  118  TRP118      0.0015
     89  N         33.0880   69.5380   19.9340 N.3   121  TYR121     -0.1227
     90  CA        33.1560   68.1790   19.4140 C.3   121  TYR121      0.1736
     91  C         34.4540   67.9410   18.6470 C.2   121  TYR121      0.2596
     92  O         35.1110   66.9140   18.8280 O.2   121  TYR121     -0.2718
     93  CB        31.9460   67.9010   18.5250 C.3   121  TYR121      0.0548
     94  CG        31.9460   66.4810   18.0330 C.ar  121  TYR121     -0.0200
     95  CD1       31.5100   65.4490   18.8500 C.ar  121  TYR121     -0.0009
     96  CD2       32.4100   66.1580   16.7620 C.ar  121  TYR121     -0.0009
     97  CE1       31.5220   64.1340   18.4130 C.ar  121  TYR121      0.0417
     98  CE2       32.4310   64.8410   16.3240 C.ar  121  TYR121      0.0417
     99  CZ        31.9800   63.8380   17.1560 C.ar  121  TYR121      0.1957
    100  OH        31.9910   62.5290   16.7310 O.3   121  TYR121     -0.2866
    101  N         34.8290   68.8790   17.7690 N.am  122  THR122     -0.1953
    102  CA        36.0880   68.7740   17.0400 C.3   122  THR122      0.1897
    103  C         37.2520   68.5750   17.9960 C.2   122  THR122      0.2313
    104  O         38.0940   67.6930   17.8000 O.2   122  THR122     -0.2863
    105  CB        36.3240   70.0380   16.2010 C.3   122  THR122      0.1794
    106  OG1       35.2640   70.2010   15.2380 O.3   122  THR122     -0.2208
    107  CG2       37.6650   69.9620   15.4820 C.3   122  THR122      0.0378
    108  N         37.3460   65.0650   19.4210 N.3   125  VAL125     -0.1245
    109  CA        37.8680   64.0700   18.4820 C.3   125  VAL125      0.1561
    110  C         39.3830   64.1880   18.3590 C.2   125  VAL125      0.2260
    111  O         40.0980   63.1800   18.3280 O.2   125  VAL125     -0.2867
    112  CB        37.1750   64.2000   17.1090 C.3   125  VAL125      0.0252
    113  CG1       37.7850   63.2360   16.1080 C.3   125  VAL125      0.0019
    114  CG2       35.6710   63.9690   17.2430 C.3   125  VAL125      0.0019
    115  N         37.5380   75.6190   12.5760 N.3   149  ASN149     -0.1240
    116  CA        36.1190   75.8000   12.3090 C.3   149  ASN149      0.1653
    117  C         35.8140   77.2220   11.8400 C.2   149  ASN149      0.2266
    118  O         34.9510   77.4200   10.9810 O.2   149  ASN149     -0.2867
    119  CB        35.3120   75.3940   13.5500 C.3   149  ASN149      0.1155
    120  CG        35.0940   73.8730   13.5970 C.2   149  ASN149      0.2627
    121  OD1       34.3790   73.3230   12.7430 O.2   149  ASN149     -0.2716
    122  ND2       35.7640   73.1850   14.5100 N.am  149  ASN149     -0.0877
    123  N         36.5960   77.2540    8.2470 N.3   152  ASN152     -0.1240
    124  CA        35.5490   76.6430    7.4270 C.3   152  ASN152      0.1653
    125  C         34.3750   77.5870    7.2490 C.2   152  ASN152      0.2266
    126  O         33.8330   77.7180    6.1440 O.2   152  ASN152     -0.2867
    127  CB        35.0630   75.3400    8.0470 C.3   152  ASN152      0.1155
    128  CG        36.0390   74.2020    7.8690 C.2   152  ASN152      0.2627
    129  OD1       37.1680   74.3920    7.4240 O.2   152  ASN152     -0.2716
    130  ND2       35.6040   72.9960    8.2420 N.am  152  ASN152     -0.0877
    131  N         42.9050   70.7710    7.4850 N.3   180  TRP180     -0.1241
    132  CA        42.5360   70.0760    8.7180 C.3   180  TRP180      0.1605
    133  C         43.4650   68.8960    8.9790 C.2   180  TRP180      0.2264
    134  O         43.9900   68.7320   10.0900 O.2   180  TRP180     -0.2867
    135  CB        41.0850   69.5970    8.6310 C.3   180  TRP180      0.0550
    136  CG        40.0640   70.6320    8.9450 C.ar  180  TRP180      0.0003
    137  CD1       39.8590   71.8250    8.3040 C.ar  180  TRP180      0.0946
    138  CD2       39.0670   70.5420    9.9590 C.ar  180  TRP180      0.0152
    139  NE1       38.7870   72.4950    8.8740 N.ar  180  TRP180     -0.2442
    140  CE2       38.2850   71.7180    9.8870 C.ar  180  TRP180      0.0810
    141  CE3       38.7510   69.5770   10.9270 C.ar  180  TRP180      0.0012
    142  CZ2       37.2360   71.9800   10.7680 C.ar  180  TRP180      0.0191
    143  CZ3       37.6900   69.8240   11.7810 C.ar  180  TRP180      0.0001
    144  CH2       36.9430   71.0130   11.7040 C.ar  180  TRP180      0.0015
@<TRIPOS>BOND
     1    67    66    2
     2    66    65    1
     3    62    60    1
     4    59    58    2
     5    58    57    1
     6   126   125    2
     7    60    57    1
     8    60    61    1
     9    65    64    1
    10    65    68    1
    11    57    56    1
    12    63    61    1
    13    68    69    1
    14   125   124    1
    15   129   128    2
    16   124   127    1
    17   124   123    1
    18    40    41    2
    19    40    39    1
    20   131   132    1
    21    56    54   am
    22    30    31    1
    23    52    53    1
    24   128   127    1
    25   128   130   am
    26    54    55    2
    27    54    53    1
    28   137   139   ar
    29   137   136   ar
    30    69    70   ar
    31    69    71   ar
    32    38    39    1
    33    38    32   am
    34   135   132    1
    35   135   136    1
    36    39    42    1
    37    31    32    1
    38    31    34    1
    39   132   133    1
    40    32    33    2
    41    42    43    1
    42   139   140   ar
    43   136   138   ar
    44    70    72   ar
    45   133   134    2
    46    16    14    1
    47    15    14    1
    48    71    73   ar
    49    14    13    1
    50   140   138   ar
    51   140   142   ar
    52   138   141   ar
    53    34    35    1
    54    43    44   ar
    55    43    45   ar
    56    72    74   ar
    57    44    46   ar
    58   142   144   ar
    59    73    74   ar
    60   141   143   ar
    61   118   117    2
    62    13    10    1
    63    35    36    1
    64     8     6    1
    65    45    48   ar
    66    45    47   ar
    67    29    27   am
    68     1     2    1
    69    46    47   ar
    70   144   143   ar
    71     6     7    1
    72     6     5    1
    73   117   116    1
    74    48    50   ar
    75    10     9    1
    76    10    11    1
    77   116   115    1
    78   116   119    1
    79    47    49   ar
    80     2     5    1
    81     2     3    1
    82    27    26    1
    83    27    28    2
    84   121   120    2
    85    26    23    1
    86    37    36    1
    87    50    51   ar
    88    11    12    2
    89    11    17   am
    90   119   120    1
    91     3     4    2
    92   120   122   am
    93    49    51   ar
    94    23    24    1
    95    23    22    1
    96    17    18    1
    97    24    25    2
    98   106   105    1
    99   107   105    1
   100    18    19    1
   101    18    21    1
   102    81    80   ar
   103    81    83   ar
   104    79    80    1
   105    79    76    1
   106    80    82   ar
   107    83    84   ar
   108    82    84   ar
   109    82    85   ar
   110    84    86   ar
   111    85    87   ar
   112   113   112    1
   113    86    88   ar
   114   105   102    1
   115    87    88   ar
   116    19    20    2
   117    98    96   ar
   118    98    99   ar
   119   100    99    1
   120    96    94   ar
   121    78    77    2
   122    76    77    1
   123    76    75    1
   124   102   101    1
   125   102   103    1
   126   112   114    1
   127   112   109    1
   128    99    97   ar
   129   101    91   am
   130   104   103    2
   131    94    93    1
   132    94    95   ar
   133   111   110    2
   134   110   109    1
   135    97    95   ar
   136   109   108    1
   137    93    90    1
   138    91    92    2
   139    91    90    1
   140    90    89    1
