@<TRIPOS>MOLECULE
tmp/5f2cD00.pdb
 164 163 0 0 0
SMALL
GASTEIGER

@<TRIPOS>ATOM
      1  N         58.3450   66.2310   42.8990 N.3   144  ILE144     -0.1231
      2  CA        58.3730   67.6460   43.3020 C.3   144  ILE144      0.1692
      3  C         56.9960   68.2650   43.1560 C.2   144  ILE144      0.2593
      4  O         56.4140   68.2580   42.0670 O.2   144  ILE144     -0.2718
      5  CB        59.3760   68.4480   42.4660 C.3   144  ILE144      0.0266
      6  CG1       60.7650   67.8250   42.5910 C.3   144  ILE144      0.0019
      7  CG2       59.3730   69.9110   42.9130 C.3   144  ILE144      0.0020
      8  CD1       61.8190   68.4290   41.6720 C.3   144  ILE144      0.0001
      9  N         56.4770   68.8100   44.2520 N.am  145  THR145     -0.1940
     10  CA        55.0480   69.0790   44.3620 C.3   145  THR145      0.2013
     11  C         54.7500   70.5320   44.7880 C.2   145  THR145      0.2484
     12  O         55.6470   71.2370   45.2580 O.2   145  THR145     -0.2729
     13  CB        54.4200   68.0950   45.3620 C.3   145  THR145      0.1807
     14  OG1       55.0630   68.2340   46.6320 O.3   145  THR145     -0.2208
     15  CG2       54.5910   66.6530   44.8700 C.3   145  THR145      0.0379
     16  N         53.4920   70.9830   44.6110 N.am  146  PRO146     -0.2715
     17  CA        53.0910   72.3560   44.9320 C.3   146  PRO146      0.1536
     18  C         52.3910   72.4690   46.2780 C.2   146  PRO146      0.2598
     19  O         52.2810   71.4790   46.9950 O.2   146  PRO146     -0.2715
     20  CB        52.1150   72.6880   43.8160 C.3   146  PRO146      0.0310
     21  CG        51.4020   71.3790   43.6180 C.3   146  PRO146      0.0237
     22  CD        52.4010   70.2780   43.9090 C.3   146  PRO146      0.0939
     23  N         51.8840   73.6610   46.5890 N.am  147  TRP147     -0.1974
     24  CA        51.3550   73.9350   47.9200 C.3   147  TRP147      0.1640
     25  C         49.8410   73.9430   48.0100 C.2   147  TRP147      0.2290
     26  O         49.3030   74.0280   49.1130 O.2   147  TRP147     -0.2864
     27  CB        51.8870   75.3000   48.4240 C.3   147  TRP147      0.0576
     28  CG        51.7050   76.4140   47.4280 C.ar  147  TRP147      0.0006
     29  CD1       52.6510   76.9080   46.5660 C.ar  147  TRP147      0.0946
     30  CD2       50.5070   77.1560   47.1730 C.ar  147  TRP147      0.0152
     31  NE1       52.1130   77.9100   45.7940 N.ar  147  TRP147     -0.2442
     32  CE2       50.8010   78.0870   46.1500 C.ar  147  TRP147      0.0810
     33  CE3       49.2160   77.1350   47.7140 C.ar  147  TRP147      0.0012
     34  CZ2       49.8510   78.9800   45.6570 C.ar  147  TRP147      0.0191
     35  CZ3       48.2660   78.0220   47.2130 C.ar  147  TRP147      0.0001
     36  CH2       48.5930   78.9350   46.1990 C.ar  147  TRP147      0.0015
     37  N         60.4870   66.0130   47.3220 N.3   171  LYS171     -0.1231
     38  CA        60.7140   67.3700   47.8290 C.3   171  LYS171      0.1678
     39  C         59.4240   68.1810   47.7800 C.2   171  LYS171      0.2434
     40  O         59.0130   68.6240   46.7120 O.2   171  LYS171     -0.2733
     41  CB        61.7970   68.0950   47.0260 C.3   171  LYS171      0.0284
     42  CG        62.2090   69.4400   47.6550 C.3   171  LYS171      0.0035
     43  CD        62.4480   70.5040   46.5930 C.3   171  LYS171      0.0206
     44  CE        61.1890   71.2980   46.2710 C.3   171  LYS171      0.1093
     45  NZ        60.8540   72.2870   47.3420 N.3   171  LYS171     -0.1314
     46  N         58.7740   68.3770   48.9350 N.am  172  PRO172     -0.2718
     47  CA        57.4990   69.0930   48.9210 C.3   172  PRO172      0.1535
     48  C         57.6950   70.5990   48.7480 C.2   172  PRO172      0.2598
     49  O         58.8250   71.1040   48.8590 O.2   172  PRO172     -0.2715
     50  CB        56.9100   68.7720   50.2950 C.3   172  PRO172      0.0310
     51  CG        58.1260   68.6790   51.1720 C.3   172  PRO172      0.0237
     52  CD        59.2300   68.0850   50.3060 C.3   172  PRO172      0.0939
     53  N         56.6060   71.3010   48.4590 N.am  173  ALA173     -0.1964
     54  CA        56.6540   72.7530   48.3080 C.3   173  ALA173      0.1728
     55  C         57.0890   73.3950   49.6210 C.2   173  ALA173      0.2617
     56  O         56.7310   72.9170   50.6980 O.2   173  ALA173     -0.2715
     57  CB        55.3060   73.2960   47.8770 C.3   173  ALA173      0.0334
     58  N         57.8500   74.4810   49.5230 N.am  174  SER174     -0.1936
     59  CA        58.4180   75.1270   50.7060 C.3   174  SER174      0.2055
     60  C         57.3540   75.7250   51.6180 C.2   174  SER174      0.2643
     61  O         57.5710   75.8470   52.8250 O.2   174  SER174     -0.2714
     62  CB        59.4190   76.2020   50.2870 C.3   174  SER174      0.2130
     63  OG        60.6670   75.6140   49.9490 O.3   174  SER174     -0.2179
     64  N         56.2010   76.0790   51.0530 N.am  175  ASP175     -0.1971
     65  CA        55.0930   76.5740   51.8670 C.3   175  ASP175      0.1709
     66  C         54.3200   75.4590   52.5600 C.2   175  ASP175      0.2293
     67  O         53.5370   75.7230   53.4730 O.2   175  ASP175     -0.2864
     68  CB        54.1240   77.4010   51.0280 C.3   175  ASP175      0.1436
     69  CG        54.6040   78.8200   50.8150 C.2   175  ASP175      0.3671
     70  OD1       55.2920   79.3670   51.7060 O.co2 175  ASP175     -0.2456
     71  OD2       54.2880   79.3920   49.7540 O.co2 175  ASP175     -0.2456
     72  N         64.8230   74.3090   49.5430 N.3   203  PRO203     -0.2102
     73  CA        64.4520   75.1970   48.4320 C.3   203  PRO203      0.1504
     74  C         64.5400   74.5080   47.0760 C.2   203  PRO203      0.2576
     75  O         65.5300   73.8240   46.7940 O.2   203  PRO203     -0.2718
     76  CB        65.4880   76.3360   48.5070 C.3   203  PRO203      0.0282
     77  CG        66.2420   76.1250   49.7730 C.3   203  PRO203      0.0208
     78  CD        66.1310   74.6710   50.1110 C.3   203  PRO203      0.0893
     79  N         63.5120   74.6980   46.2550 N.am  204  GLY204     -0.1943
     80  CA        63.5030   74.1870   44.8940 C.3   204  GLY204      0.1998
     81  C         64.7860   74.4100   44.1070 C.2   204  GLY204      0.2480
     82  O         65.3280   73.4590   43.5350 O.2   204  GLY204     -0.2729
     83  N         65.2840   75.6640   44.0690 N.am  205  PRO205     -0.2726
     84  CA        66.5040   75.9320   43.2910 C.3   205  PRO205      0.1402
     85  C         67.7450   75.2220   43.8130 C.2   205  PRO205      0.2269
     86  O         68.7520   75.2010   43.1160 O.2   205  PRO205     -0.2865
     87  CB        66.6700   77.4540   43.4060 C.3   205  PRO205      0.0296
     88  CG        65.2850   77.9670   43.6690 C.3   205  PRO205      0.0237
     89  CD        64.6270   76.9130   44.5120 C.3   205  PRO205      0.0939
     90  N         65.6530   70.7670   44.7290 N.3   208  GLY208     -0.1210
     91  CA        64.9610   70.3370   43.5300 C.3   208  GLY208      0.1956
     92  C         65.9070   70.2300   42.3520 C.2   208  GLY208      0.2611
     93  O         65.8410   69.2780   41.5750 O.2   208  GLY208     -0.2717
     94  N         66.8150   71.1920   42.2220 N.am  209  GLU209     -0.1979
     95  CA        67.7070   71.1840   41.0740 C.3   209  GLU209      0.1602
     96  C         68.6820   70.0140   41.1340 C.2   209  GLU209      0.2287
     97  O         69.0330   69.4520   40.0970 O.2   209  GLU209     -0.2864
     98  CB        68.4750   72.4980   40.9530 C.3   209  GLU209      0.0415
     99  CG        68.8760   72.7730   39.5100 C.3   209  GLU209      0.1163
    100  CD        69.9950   73.7680   39.3820 C.2   209  GLU209      0.3649
    101  OE1       71.0970   73.4900   39.8980 O.co2 209  GLU209     -0.2457
    102  OE2       69.7700   74.8280   38.7630 O.co2 209  GLU209     -0.2457
    103  N         66.7400   67.0250   39.9080 N.3   212  VAL212     -0.1245
    104  CA        66.4870   67.1060   38.4800 C.3   212  VAL212      0.1561
    105  C         67.7450   66.8420   37.6570 C.2   212  VAL212      0.2260
    106  O         67.6590   66.3510   36.5300 O.2   212  VAL212     -0.2867
    107  CB        65.8800   68.4830   38.1250 C.3   212  VAL212      0.0252
    108  CG1       65.7970   68.6950   36.6320 C.3   212  VAL212      0.0019
    109  CG2       64.5060   68.5990   38.7510 C.3   212  VAL212      0.0019
    110  N         56.6110   66.2760   38.1440 N.3   222  PHE222     -0.1227
    111  CA        56.5530   67.6280   38.6730 C.3   222  PHE222      0.1736
    112  C         55.1750   68.2460   38.5110 C.2   222  PHE222      0.2596
    113  O         54.5450   68.1200   37.4540 O.2   222  PHE222     -0.2718
    114  CB        57.5920   68.4990   37.9700 C.3   222  PHE222      0.0547
    115  CG        57.4790   69.9640   38.3040 C.ar  222  PHE222     -0.0202
    116  CD1       58.0180   70.4640   39.4830 C.ar  222  PHE222     -0.0042
    117  CD2       56.8270   70.8350   37.4510 C.ar  222  PHE222     -0.0042
    118  CE1       57.9270   71.8220   39.7950 C.ar  222  PHE222     -0.0003
    119  CE2       56.7140   72.1950   37.7660 C.ar  222  PHE222     -0.0003
    120  CZ        57.2670   72.6880   38.9370 C.ar  222  PHE222     -0.0000
    121  N         54.7160   68.9290   39.5510 N.am  223  THR223     -0.1939
    122  CA        53.5270   69.7580   39.4420 C.3   223  THR223      0.2028
    123  C         53.8370   71.1490   39.9940 C.2   223  THR223      0.2643
    124  O         54.3120   71.2950   41.1280 O.2   223  THR223     -0.2714
    125  CB        52.3290   69.1420   40.1730 C.3   223  THR223      0.1808
    126  OG1       51.9930   67.9060   39.5360 O.3   223  THR223     -0.2208
    127  CG2       51.1210   70.0610   40.0870 C.3   223  THR223      0.0379
    128  N         53.5770   72.1650   39.1780 N.am  224  GLY224     -0.1939
    129  CA        53.9070   73.5280   39.5510 C.3   224  GLY224      0.2014
    130  C         53.6610   74.4910   38.4100 C.2   224  GLY224      0.2638
    131  O         52.7850   74.2680   37.5750 O.2   224  GLY224     -0.2714
    132  N         54.4250   75.5750   38.3830 N.am  225  GLU225     -0.1977
    133  CA        54.2290   76.6100   37.3750 C.3   225  GLU225      0.1602
    134  C         54.9040   76.2390   36.0580 C.2   225  GLU225      0.2287
    135  O         55.9440   75.5800   36.0460 O.2   225  GLU225     -0.2864
    136  CB        54.7530   77.9550   37.8910 C.3   225  GLU225      0.0415
    137  CG        53.8530   78.5890   38.9680 C.3   225  GLU225      0.1163
    138  CD        54.3660   79.9480   39.4570 C.2   225  GLU225      0.3649
    139  OE1       55.3920   80.4200   38.9210 O.co2 225  GLU225     -0.2457
    140  OE2       53.7420   80.5380   40.3740 O.co2 225  GLU225     -0.2457
    141  N         58.6160   77.0990   35.7970 N.3   228  THR228     -0.1218
    142  CA        59.4340   76.1200   36.5060 C.3   228  THR228      0.1862
    143  C         59.5380   74.7960   35.7320 C.2   228  THR228      0.2287
    144  O         60.6100   74.1730   35.6580 O.2   228  THR228     -0.2866
    145  CB        58.8550   75.8530   37.8980 C.3   228  THR228      0.1770
    146  OG1       58.5070   77.1010   38.5120 O.3   228  THR228     -0.2211
    147  CG2       59.8490   75.0910   38.7770 C.3   228  THR228      0.0375
    148  N         61.9610   75.0380   32.9720 N.3   231  GLU231     -0.1231
    149  CA        63.3160   74.9630   33.5140 C.3   231  GLU231      0.1699
    150  C         63.7020   73.5170   33.8470 C.2   231  GLU231      0.2592
    151  O         64.8040   73.0640   33.5180 O.2   231  GLU231     -0.2718
    152  CB        63.4550   75.8410   34.7590 C.3   231  GLU231      0.0402
    153  CG        64.8230   75.8350   35.3700 C.3   231  GLU231      0.1161
    154  CD        65.0370   76.7730   36.5180 C.2   231  GLU231      0.3649
    155  OE1       64.1060   77.4160   36.9540 O.co2 231  GLU231     -0.2457
    156  OE2       66.1020   76.8060   37.1530 O.co2 231  GLU231     -0.2457
    157  N         62.7910   72.7940   34.4920 N.am  232  ILE232     -0.1980
    158  CA        63.0650   71.4090   34.8650 C.3   232  ILE232      0.1595
    159  C         63.2630   70.5570   33.6160 C.2   232  ILE232      0.2287
    160  O         64.1900   69.7450   33.5430 O.2   232  ILE232     -0.2864
    161  CB        61.9400   70.8320   35.7450 C.3   232  ILE232      0.0276
    162  CG1       62.0790   71.3950   37.1600 C.3   232  ILE232      0.0022
    163  CG2       62.0270   69.2980   35.8180 C.3   232  ILE232      0.0022
    164  CD1       60.8410   71.2820   37.9830 C.3   232  ILE232      0.0001
@<TRIPOS>BOND
     1   148   149    1
     2   149   150    1
     3   149   152    1
     4   151   150    2
     5   160   159    2
     6   159   158    1
     7   150   157   am
     8   157   158    1
     9   152   153    1
    10   158   161    1
    11   153   154    1
    12   144   143    2
    13   143   142    1
    14   161   163    1
    15   161   162    1
    16   141   142    1
    17   135   134    2
    18   134   133    1
    19   142   145    1
    20   154   155   ar
    21   154   156   ar
    22   106   105    2
    23   108   107    1
    24   162   164    1
    25   133   136    1
    26   133   132    1
    27   117   119   ar
    28   117   115   ar
    29   113   112    2
    30   131   130    2
    31   105   104    1
    32   119   120   ar
    33   136   137    1
    34   145   146    1
    35   145   147    1
    36   114   115    1
    37   114   111    1
    38   107   104    1
    39   107   109    1
    40   110   111    1
    41   115   116   ar
    42   132   130   am
    43   130   129    1
    44   104   103    1
    45   112   111    1
    46   112   121   am
    47   102   100   ar
    48   139   138   ar
    49   120   118   ar
    50   137   138    1
    51   128   129    1
    52   128   123   am
    53   100    99    1
    54   100   101   ar
    55   122   121    1
    56   122   123    1
    57   122   125    1
    58   138   140   ar
    59   116   118   ar
    60    99    98    1
    61   126   125    1
    62   123   124    2
    63   127   125    1
    64    97    96    2
    65    98    95    1
    66    95    96    1
    67    95    94    1
    68    93    92    2
    69     8     6    1
    70     4     3    2
    71    94    92   am
    72    92    91    1
    73     5     6    1
    74     5     7    1
    75     5     2    1
    76     1     2    1
    77    86    85    2
    78     3     2    1
    79     3     9   am
    80    84    87    1
    81    84    85    1
    82    84    83    1
    83    87    88    1
    84    91    90    1
    85    82    81    2
    86    21    20    1
    87    21    22    1
    88    88    89    1
    89    20    17    1
    90    22    16    1
    91    83    81   am
    92    83    89    1
    93    81    80    1
    94     9    10    1
    95    10    11    1
    96    10    13    1
    97    16    11   am
    98    16    17    1
    99    11    12    2
   100    15    13    1
   101    80    79    1
   102    17    18    1
   103    13    14    1
   104    34    32   ar
   105    34    36   ar
   106    31    32   ar
   107    31    29   ar
   108    32    30   ar
   109    36    35   ar
   110    79    74   am
   111    44    43    1
   112    44    45    1
   113    18    23   am
   114    18    19    2
   115    29    28   ar
   116    23    24    1
   117    43    42    1
   118    40    39    2
   119    75    74    2
   120    41    42    1
   121    41    38    1
   122    74    73    1
   123    30    28   ar
   124    30    33   ar
   125    35    33   ar
   126    37    38    1
   127    28    27    1
   128    39    38    1
   129    39    46   am
   130    57    54    1
   131    24    25    1
   132    24    27    1
   133    25    26    2
   134    54    53    1
   135    54    55    1
   136    73    76    1
   137    73    72    1
   138    53    48   am
   139    76    77    1
   140    48    49    2
   141    48    47    1
   142    47    46    1
   143    47    50    1
   144    46    52    1
   145    58    55   am
   146    58    59    1
   147    72    78    1
   148    55    56    2
   149    71    69   ar
   150    77    78    1
   151    63    62    1
   152    62    59    1
   153    50    51    1
   154    52    51    1
   155    59    60    1
   156    69    68    1
   157    69    70   ar
   158    68    65    1
   159    64    60   am
   160    64    65    1
   161    60    61    2
   162    65    66    1
   163    66    67    2
