@<TRIPOS>MOLECULE
tmp/5f2eA00.pdb
 177 170 0 0 0
SMALL
GASTEIGER

@<TRIPOS>ATOM
      1  N         16.6360    1.2060  -10.2540 N.3    10  VAL10      -0.1231
      2  CA        15.8530    2.4440  -10.3080 C.3    10  VAL10       0.1692
      3  C         14.6020    2.2220  -11.0920 C.2    10  VAL10       0.2592
      4  O         14.5590    1.3390  -11.9510 O.2    10  VAL10      -0.2718
      5  CB        16.6760    3.5890  -10.8700 C.3    10  VAL10       0.0266
      6  CG1       18.0080    3.7330  -10.1260 C.3    10  VAL10       0.0020
      7  CG2       16.8340    3.5780  -12.3010 C.3    10  VAL10       0.0020
      8  N         13.6590    3.1370  -10.9060 N.am   11  GLY11      -0.1957
      9  CA        12.4100    3.1150  -11.6690 C.3    11  GLY11       0.1869
     10  C         11.2180    3.4050  -10.8200 C.2    11  GLY11       0.2309
     11  O         11.3640    3.4680   -9.5920 O.2    11  GLY11      -0.2863
     12  N          7.7270    3.6540   -8.6030 N.3    13  CYS13      -0.1221
     13  CA         7.0740    2.8560   -7.6080 C.3    13  CYS13       0.1808
     14  C          6.3010    1.7160   -8.2520 C.2    13  CYS13       0.2601
     15  O          5.5190    1.9320   -9.1790 O.2    13  CYS13      -0.2717
     16  CB         6.1030    3.7210   -6.8480 C.3    13  CYS13       0.0970
     17  SG         6.8740    4.9940   -5.8160 S.3    13  CYS13      -0.0800
     18  N          6.4810    0.5250   -7.6880 N.am   14  GLY14      -0.1957
     19  CA         5.6070   -0.5490   -8.0290 C.3    14  GLY14       0.1869
     20  C          6.0870   -1.3750   -9.1760 C.2    14  GLY14       0.2309
     21  O          5.4530   -2.3240   -9.5480 O.2    14  GLY14      -0.2863
     22  N         11.2530   -3.3450   -8.3860 N.3    17  LYS17      -0.1245
     23  CA        12.6480   -3.1710   -8.0010 C.3    17  LYS17       0.1561
     24  C         13.0120   -4.0720   -6.8060 C.2    17  LYS17       0.2260
     25  O         14.0220   -4.7790   -6.8140 O.2    17  LYS17      -0.2867
     26  CB        13.0200   -1.7560   -7.7040 C.3    17  LYS17       0.0271
     27  CG        12.7150   -0.8020   -8.8360 C.3    17  LYS17       0.0035
     28  CD        13.1000    0.6330   -8.4820 C.3    17  LYS17       0.0206
     29  CE        12.4190    1.2340   -7.3470 C.3    17  LYS17       0.1093
     30  NZ        10.9190    1.2830   -7.5420 N.3    17  LYS17      -0.1314
     31  N          7.5500    0.1100    0.2440 N.3    35  PRO35      -0.2116
     32  CA         8.0870    0.9690   -0.8160 C.3    35  PRO35       0.1372
     33  C          8.8930    2.1220   -0.2780 C.2    35  PRO35       0.2244
     34  O          9.5190    2.8340   -1.1050 O.2    35  PRO35      -0.2868
     35  CB         6.8550    1.5030   -1.4870 C.3    35  PRO35       0.0268
     36  CG         5.8260    1.5200   -0.4010 C.3    35  PRO35       0.0207
     37  CD         6.1210    0.3010    0.4520 C.3    35  PRO35       0.0892
     38  N         16.6350    1.1900   -4.7610 N.3    59  THR59      -0.1203
     39  CA        16.1860    2.5310   -4.4400 C.3    59  THR59       0.1994
     40  C         14.7260    2.6360   -4.0950 C.2    59  THR59       0.2618
     41  O         13.9020    1.8360   -4.5610 O.2    59  THR59      -0.2717
     42  CB        16.5150    3.5620   -5.5300 C.3    59  THR59       0.1784
     43  OG1       15.7550    3.3180   -6.7110 O.3    59  THR59      -0.2211
     44  CG2       18.0170    3.5810   -5.8160 C.3    59  THR59       0.0376
     45  N         14.4030    3.5570   -3.2170 N.am   60  ALA60      -0.1965
     46  CA        13.0200    3.6590   -2.7510 C.3    60  ALA60       0.1728
     47  C         12.7430    5.0200   -2.2300 C.2    60  ALA60       0.2617
     48  O         13.5720    5.9170   -2.2970 O.2    60  ALA60      -0.2715
     49  CB        12.7770    2.5950   -1.6890 C.3    60  ALA60       0.0334
     50  N         11.5600    5.1560   -1.6610 N.am   61  GLY61      -0.1940
     51  CA        11.1900    6.3900   -0.9530 C.3    61  GLY61       0.2014
     52  C         10.8420    7.5770   -1.7750 C.2    61  GLY61       0.2639
     53  O         10.3070    7.4650   -2.8680 O.2    61  GLY61      -0.2714
     54  N         11.1550    8.7420   -1.2440 N.am   62  GLN62      -0.1963
     55  CA        10.6270    9.9680   -1.8320 C.3    62  GLN62       0.1733
     56  C         11.5170   10.4140   -2.9110 C.2    62  GLN62       0.2616
     57  O         12.7460   10.1050   -2.9250 O.2    62  GLN62      -0.2715
     58  CB        10.4100   11.0190   -0.7710 C.3    62  GLN62       0.0408
     59  CG         9.6230   10.6170    0.4770 C.3    62  GLN62       0.0908
     60  CD         8.1250   10.3880    0.2790 C.2    62  GLN62       0.2608
     61  OE1        7.5750    9.2930    0.6480 O.2    62  GLN62      -0.2717
     62  NE2        7.4220   11.4460   -0.0860 N.am   62  GLN62      -0.0878
     63  N         10.9310   11.0990   -3.9010 N.am   63  GLU63      -0.1963
     64  CA        11.7030   11.4680   -5.0610 C.3    63  GLU63       0.1733
     65  C         12.3070   12.8530   -4.7660 C.2    63  GLU63       0.2616
     66  O         11.7390   13.8420   -5.2620 O.2    63  GLU63      -0.2715
     67  CB        10.7940   11.4580   -6.3170 C.3    63  GLU63       0.0429
     68  CG        11.6190   11.6910   -7.5970 C.3    63  GLU63       0.1163
     69  CD        11.0750   11.1240   -8.9010 C.2    63  GLU63       0.3649
     70  OE1        9.8760   10.6840   -8.9600 O.co2  63  GLU63      -0.2457
     71  OE2       11.8870   11.1290   -9.8890 O.co2  63  GLU63      -0.2457
     72  N         13.4170   12.9190   -3.9620 N.am   64  GLU64      -0.1963
     73  CA        14.0650   14.2760   -3.5800 C.3    64  GLU64       0.1733
     74  C         15.5120   14.4060   -4.1620 C.2    64  GLU64       0.2616
     75  O         16.3690   13.5980   -3.7760 O.2    64  GLU64      -0.2715
     76  CB        14.2170   14.3030   -2.0900 C.3    64  GLU64       0.0429
     77  CG        12.9100   14.2290   -1.3410 C.3    64  GLU64       0.1163
     78  CD        12.0100   15.4100   -1.5120 C.2    64  GLU64       0.3649
     79  OE1       12.4570   16.4920   -1.9760 O.co2  64  GLU64      -0.2457
     80  OE2       10.8600   15.2750   -1.0660 O.co2  64  GLU64      -0.2457
     81  N         15.7920   15.4000   -5.0170 N.am   65  TYR65      -0.1974
     82  CA        17.0560   15.5000   -5.8090 C.3    65  TYR65       0.1639
     83  C         18.0450   16.5580   -5.3520 C.2    65  TYR65       0.2290
     84  O         18.1310   17.6170   -5.9550 O.2    65  TYR65      -0.2864
     85  CB        16.7470   15.8300   -7.2580 C.3    65  TYR65       0.0560
     86  CG        16.1280   14.6760   -7.9480 C.ar   65  TYR65      -0.0198
     87  CD1       16.9220   13.7020   -8.4620 C.ar   65  TYR65      -0.0009
     88  CD2       14.7500   14.5270   -8.0720 C.ar   65  TYR65      -0.0009
     89  CE1       16.4140   12.6280   -9.1070 C.ar   65  TYR65       0.0417
     90  CE2       14.2300   13.4310   -8.7210 C.ar   65  TYR65       0.0417
     91  CZ        15.0980   12.4910   -9.2480 C.ar   65  TYR65       0.1957
     92  OH        14.6890   11.3200   -9.9050 O.3    65  TYR65      -0.2866
     93  N         22.2780   13.6620   -2.1010 N.3    69  ARG69      -0.1231
     94  CA        21.6770   12.4610   -2.6830 C.3    69  ARG69       0.1694
     95  C         22.2700   12.2040   -4.0430 C.2    69  ARG69       0.2592
     96  O         22.5840   11.0440   -4.4020 O.2    69  ARG69      -0.2718
     97  CB        20.1770   12.6390   -2.7570 C.3    69  ARG69       0.0321
     98  CG        19.3930   11.4700   -3.2730 C.3    69  ARG69       0.0489
     99  CD        19.4080   10.3150   -2.3200 C.3    69  ARG69       0.2205
    100  NE        18.5300    9.2610   -2.8560 N.pl3  69  ARG69      -0.0865
    101  CZ        18.4540    8.0220   -2.3680 C.cat  69  ARG69       0.5346
    102  NH1       19.2390    7.5960   -1.3810 N.pl3  69  ARG69       0.1354
    103  NH2       17.6550    7.1750   -2.9900 N.pl3  69  ARG69       0.1354
    104  N         22.4520   13.2600   -4.8450 N.am   70  ASP70      -0.1974
    105  CA        23.1170   13.1000   -6.1500 C.3    70  ASP70       0.1709
    106  C         24.5480   12.4730   -5.9800 C.2    70  ASP70       0.2293
    107  O         24.9190   11.5630   -6.7390 O.2    70  ASP70      -0.2864
    108  CB        23.2860   14.4460   -6.7870 C.3    70  ASP70       0.1436
    109  CG        22.0130   15.0870   -7.3190 C.2    70  ASP70       0.3671
    110  OD1       20.9770   14.4460   -7.4050 O.co2  70  ASP70      -0.2456
    111  OD2       22.1270   16.2880   -7.7050 O.co2  70  ASP70      -0.2456
    112  N         24.2220    8.7990   -5.2220 N.3    73  MET73      -0.1301
    113  CA        23.8860    8.0380   -6.4090 C.3    73  MET73       0.1256
    114  C         25.0790    7.9070   -7.3660 C.3    73  MET73       0.2010
    115  O         25.1810    6.8570   -8.1050 O.3    73  MET73      -0.2188
    116  CB        22.6940    8.6070   -7.0640 C.3    73  MET73       0.0333
    117  CG        21.4620    8.4830   -6.2080 C.3    73  MET73       0.0592
    118  SD        20.9970    6.6760   -6.0220 S.3    73  MET73      -0.1393
    119  CE        20.3010    6.6030   -4.4220 C.3    73  MET73       0.0692
    120  N         23.4530    0.9280  -13.5090 N.3    79  PHE79      -0.1241
    121  CA        22.0500    1.2140  -13.1540 C.3    79  PHE79       0.1605
    122  C         21.1100    0.3060  -13.9800 C.2    79  PHE79       0.2264
    123  O         21.2380    0.2280  -15.1740 O.2    79  PHE79      -0.2867
    124  CB        21.7150    2.6950  -13.3740 C.3    79  PHE79       0.0534
    125  CG        22.5630    3.6120  -12.5560 C.ar   79  PHE79      -0.0203
    126  CD1       23.9200    3.8210  -12.8660 C.ar   79  PHE79      -0.0042
    127  CD2       22.0650    4.2090  -11.3760 C.ar   79  PHE79      -0.0042
    128  CE1       24.7080    4.6290  -12.0430 C.ar   79  PHE79      -0.0003
    129  CE2       22.8790    4.9470  -10.5470 C.ar   79  PHE79      -0.0003
    130  CZ        24.1690    5.1680  -10.8820 C.ar   79  PHE79      -0.0000
    131  N         14.6980    9.0790  -15.3490 N.3    97  TYR97      -0.1241
    132  CA        15.6970    8.4110  -14.5210 C.3    97  TYR97       0.1605
    133  C         17.0610    8.4030  -15.2100 C.2    97  TYR97       0.2264
    134  O         18.0850    8.7630  -14.5690 O.2    97  TYR97      -0.2867
    135  CB        15.2230    6.9950  -14.1650 C.3    97  TYR97       0.0534
    136  CG        14.0740    6.9840  -13.2090 C.ar   97  TYR97      -0.0201
    137  CD1       14.2910    7.1750  -11.8610 C.ar   97  TYR97      -0.0009
    138  CD2       12.8290    6.6060  -13.5570 C.ar   97  TYR97      -0.0009
    139  CE1       13.2530    7.1730  -10.9480 C.ar   97  TYR97       0.0417
    140  CE2       11.7890    6.6940  -12.6490 C.ar   97  TYR97       0.0417
    141  CZ        12.0220    6.9580  -11.3760 C.ar   97  TYR97       0.1957
    142  OH        10.9830    7.0680  -10.4660 O.3    97  TYR97      -0.2866
    143  N         18.7940   11.8860  -15.1590 N.3   100  GLN100     -0.1231
    144  CA        19.3420   12.2230  -13.8220 C.3   100  GLN100      0.1698
    145  C         20.6210   11.4600  -13.4920 C.2   100  GLN100      0.2592
    146  O         21.5960   12.0370  -13.0140 O.2   100  GLN100     -0.2718
    147  CB        18.3140   11.9290  -12.7560 C.3   100  GLN100      0.0381
    148  CG        17.0750   12.8020  -12.8060 C.3   100  GLN100      0.0905
    149  CD        17.2500   14.2000  -12.2570 C.2   100  GLN100      0.2608
    150  OE1       18.3480   14.7720  -12.0890 O.2   100  GLN100     -0.2717
    151  NE2       16.0780   14.7770  -11.9230 N.am  100  GLN100     -0.0878
    152  N         20.6690   10.2000  -13.8600 N.am  101  ILE101     -0.1980
    153  CA        21.8640    9.4010  -13.6630 C.3   101  ILE101      0.1595
    154  C         23.0640    9.9550  -14.4760 C.2   101  ILE101      0.2287
    155  O         24.1780   10.1380  -13.9490 O.2   101  ILE101     -0.2864
    156  CB        21.5980    7.9380  -14.0090 C.3   101  ILE101      0.0276
    157  CG1       20.6660    7.2640  -13.0230 C.3   101  ILE101      0.0022
    158  CG2       22.9150    7.1410  -13.9900 C.3   101  ILE101      0.0022
    159  CD1       19.9830    6.0430  -13.5800 C.3   101  ILE101      0.0001
    160  N         23.4710   12.9540  -15.4650 N.3   103  ARG103     -0.1182
    161  CA        23.8360   14.2370  -14.8070 C.3   103  ARG103      0.1910
    162  C         24.7130   14.0000  -13.6210 C.2   103  ARG103      0.2634
    163  O         25.7440   14.6430  -13.5150 O.2   103  ARG103     -0.2714
    164  CB        22.5360   14.9360  -14.3440 C.2   103  ARG103      0.0007
    165  CG        22.7320   16.1990  -13.5570 C.2   103  ARG103      0.0176
    166  CD        21.4370   16.9160  -13.1190 C.3   103  ARG103      0.2464
    167  NE        20.6270   16.1310  -12.1920 N.pl3 103  ARG103     -0.0815
    168  CZ        20.8750   16.0100  -10.8770 C.cat 103  ARG103      0.5349
    169  NH1       21.9890   16.6410  -10.3970 N.pl3 103  ARG103      0.1354
    170  NH2       20.0900   15.2570  -10.0930 N.pl3 103  ARG103      0.1354
    171  N         24.3140   13.0930  -12.7410 N.am  104  VAL104     -0.1977
    172  CA        25.0840   12.9940  -11.4890 C.3   104  VAL104      0.1596
    173  C         26.4640   12.3610  -11.7440 C.2   104  VAL104      0.2287
    174  O         27.3900   12.5980  -10.9920 O.2   104  VAL104     -0.2864
    175  CB        24.3580   12.3190  -10.3040 C.3   104  VAL104      0.0276
    176  CG1       23.0460   13.0340  -10.0390 C.3   104  VAL104      0.0022
    177  CG2       24.2800   10.8850  -10.4350 C.3   104  VAL104      0.0022
@<TRIPOS>BOND
     1   160   161    1
     2   131   132    1
     3   133   134    2
     4   133   132    1
     5   123   122    2
     6   143   144    1
     7   161   164    1
     8   161   162    1
     9   132   135    1
    10   154   155    2
    11   154   153    1
    12   164   165    2
    13   135   136    1
    14   156   158    1
    15   156   153    1
    16   156   157    1
    17   122   121    1
    18   152   153    1
    19   152   145   am
    20   144   145    1
    21   144   147    1
    22   162   163    2
    23   162   171   am
    24   159   157    1
    25   165   166    1
    26   138   136   ar
    27   138   140   ar
    28   120   121    1
    29   145   146    2
    30   124   121    1
    31   124   125    1
    32   136   137   ar
    33   166   167    1
    34   126   125   ar
    35   126   128   ar
    36   148   147    1
    37   148   149    1
    38   171   172    1
    39   140   141   ar
    40   125   127   ar
    41     7     5    1
    42   149   150    2
    43   149   151   am
    44   167   168    2
    45   128   130   ar
    46     4     3    2
    47   137   139   ar
    48   173   172    1
    49   173   174    2
    50     9     8    1
    51     9    10    1
    52   172   175    1
    53   141   139   ar
    54   141   142    1
    55   127   129   ar
    56     3     8   am
    57     3     2    1
    58   130   129   ar
    59   168   169    1
    60   168   170    1
    61     5     2    1
    62     5     6    1
    63    10    11    2
    64   177   175    1
    65     2     1    1
    66   175   176    1
    67    92    91    1
    68    71    69   ar
    69    21    20    2
    70    91    89   ar
    71    91    90   ar
    72    15    14    2
    73    20    19    1
    74    89    87   ar
    75    70    69   ar
    76    69    68    1
    77    27    28    1
    78    27    26    1
    79    90    88   ar
    80    12    13    1
    81    28    29    1
    82    87    86   ar
    83    22    23    1
    84    14    18   am
    85    14    13    1
    86   115   114    1
    87    88    86   ar
    88    19    18    1
    89    23    26    1
    90    23    24    1
    91    86    85    1
    92   111   109   ar
    93    13    16    1
    94    68    67    1
    95    30    29    1
    96   110   109   ar
    97   114   113    1
    98   109   108    1
    99    85    82    1
   100   116   113    1
   101   116   117    1
   102    16    17    1
   103    25    24    2
   104   108   105    1
   105   107   106    2
   106    43    42    1
   107   113   112    1
   108    67    64    1
   109   117   118    1
   110   105   106    1
   111   105   104    1
   112   118   119    1
   113    84    83    2
   114    44    42    1
   115    82    83    1
   116    82    81    1
   117    42    39    1
   118    66    65    2
   119    64    65    1
   120    64    63    1
   121    81    74   am
   122   104    95   am
   123    65    72   am
   124    38    39    1
   125    41    40    2
   126    39    40    1
   127    96    95    2
   128    74    75    2
   129    74    73    1
   130    40    45   am
   131    95    94    1
   132    72    73    1
   133    63    56   am
   134    73    76    1
   135    98    97    1
   136    98    99    1
   137    45    46    1
   138   103   101    1
   139    57    56    2
   140    56    55    1
   141    53    52    2
   142   100   101    2
   143   100    99    1
   144    97    94    1
   145    46    47    1
   146    46    49    1
   147    94    93    1
   148   101   102    1
   149    48    47    2
   150    47    50   am
   151    76    77    1
   152    79    78   ar
   153    55    54    1
   154    55    58    1
   155    52    54   am
   156    52    51    1
   157    50    51    1
   158    78    77    1
   159    78    80   ar
   160    35    32    1
   161    35    36    1
   162    34    33    2
   163    32    33    1
   164    32    31    1
   165    58    59    1
   166    36    37    1
   167    62    60   am
   168    31    37    1
   169    60    59    1
   170    60    61    2
