@<TRIPOS>MOLECULE
tmp/5f2fA00.pdb
 139 131 0 0 0
SMALL
GASTEIGER

@<TRIPOS>ATOM
      1  N         -0.5680    4.8040    8.4800 N.3     1  PHE1       -0.1241
      2  CA         0.4290    4.0890    7.6310 C.3     1  PHE1        0.1605
      3  C          1.6620    3.7360    8.4640 C.2     1  PHE1        0.2264
      4  O          2.2750    4.5950    9.1000 O.2     1  PHE1       -0.2867
      5  CB         0.8280    4.9420    6.4260 C.3     1  PHE1        0.0534
      6  CG         1.8350    4.2830    5.5120 C.ar    1  PHE1       -0.0203
      7  CD1        3.1840    4.4010    5.7590 C.ar    1  PHE1       -0.0042
      8  CD2        1.4200    3.5370    4.4070 C.ar    1  PHE1       -0.0042
      9  CE1        4.1160    3.7980    4.9150 C.ar    1  PHE1       -0.0003
     10  CE2        2.3460    2.9320    3.5720 C.ar    1  PHE1       -0.0003
     11  CZ         3.6940    3.0670    3.8300 C.ar    1  PHE1       -0.0000
     12  N          3.7030    4.8550   12.4970 N.3    13  ILE13      -0.1245
     13  CA         3.1890    6.1400   12.0250 C.3    13  ILE13       0.1561
     14  C          4.2130    7.2340   12.2420 C.2    13  ILE13       0.2260
     15  O          4.8530    7.3240   13.3020 O.2    13  ILE13      -0.2867
     16  CB         1.8720    6.5050   12.7590 C.3    13  ILE13       0.0252
     17  CG1        0.7550    5.5960   12.2440 C.3    13  ILE13       0.0019
     18  CG2        1.5410    7.9970   12.5810 C.3    13  ILE13       0.0019
     19  CD1       -0.5570    5.7460   13.0050 C.3    13  ILE13       0.0001
     20  N         -2.0910    0.6250    5.2230 N.3    46  ASN46      -0.1225
     21  CA        -2.8640    1.8530    5.4080 C.3    46  ASN46       0.1785
     22  C         -3.7200    1.7250    6.6710 C.2    46  ASN46       0.2597
     23  O         -4.3820    0.7160    6.8620 O.2    46  ASN46      -0.2718
     24  CB        -3.6980    2.0540    4.1300 C.3    46  ASN46       0.1169
     25  CG        -4.5650    3.2750    4.1480 C.2    46  ASN46       0.2627
     26  OD1       -5.0350    3.7210    5.1980 O.2    46  ASN46      -0.2716
     27  ND2       -4.8360    3.8010    2.9550 N.am   46  ASN46      -0.0877
     28  N         -3.6920    2.7220    7.5530 N.am   47  ASP47      -0.1960
     29  CA        -4.4090    2.6090    8.8400 C.3    47  ASP47       0.1840
     30  C         -5.8420    3.1670    8.7980 C.2    47  ASP47       0.2622
     31  O         -6.5670    3.0830    9.7960 O.2    47  ASP47      -0.2715
     32  CB        -3.6140    3.3080    9.9420 C.3    47  ASP47       0.1450
     33  CG        -2.4100    2.4870   10.3980 C.2    47  ASP47       0.3671
     34  OD1       -1.2780    3.0230   10.4100 O.co2  47  ASP47      -0.2456
     35  OD2       -2.6190    1.2910   10.6820 O.co2  47  ASP47      -0.2456
     36  N         -6.2650    3.7080    7.6550 N.am   48  TYR48      -0.1974
     37  CA        -7.6260    4.2380    7.5440 C.3    48  TYR48       0.1639
     38  C         -8.0920    4.1590    6.1000 C.2    48  TYR48       0.2290
     39  O         -8.4390    5.1640    5.4970 O.2    48  TYR48      -0.2864
     40  CB        -7.6740    5.6790    8.0530 C.3    48  TYR48       0.0560
     41  CG        -9.0560    6.2820    8.2450 C.ar   48  TYR48      -0.0198
     42  CD1      -10.2070    5.4920    8.2700 C.ar   48  TYR48      -0.0009
     43  CD2       -9.2040    7.6510    8.4140 C.ar   48  TYR48      -0.0009
     44  CE1      -11.4620    6.0610    8.4710 C.ar   48  TYR48       0.0417
     45  CE2      -10.4420    8.2170    8.6260 C.ar   48  TYR48       0.0417
     46  CZ       -11.5630    7.4220    8.6480 C.ar   48  TYR48       0.1957
     47  OH       -12.7770    8.0180    8.8420 O.3    48  TYR48      -0.2866
     48  N        -10.6680    3.1610    4.5320 N.3    50  GLU50      -0.1245
     49  CA       -12.0370    3.6130    4.2650 C.3    50  GLU50       0.1567
     50  C        -12.0860    5.0240    3.7150 C.2    50  GLU50       0.2260
     51  O        -12.9550    5.3640    2.9210 O.2    50  GLU50      -0.2867
     52  CB       -12.8740    3.5640    5.5540 C.3    50  GLU50       0.0388
     53  CG       -13.1200    2.1630    6.1000 C.3    50  GLU50       0.1160
     54  CD       -12.0230    1.6510    7.0320 C.2    50  GLU50       0.3649
     55  OE1      -11.0120    2.3560    7.2410 O.co2  50  GLU50      -0.2457
     56  OE2      -12.1800    0.5260    7.5640 O.co2  50  GLU50      -0.2457
     57  N         -8.8110    7.2270    3.5900 N.3    52  ILE52      -0.1245
     58  CA        -7.5360    7.8110    3.1950 C.3    52  ILE52       0.1561
     59  C         -6.8590    6.9170    2.1650 C.2    52  ILE52       0.2260
     60  O         -6.8370    5.7080    2.3180 O.2    52  ILE52      -0.2867
     61  CB        -6.5830    8.0090    4.4070 C.3    52  ILE52       0.0252
     62  CG1       -7.2320    8.9360    5.4410 C.3    52  ILE52       0.0019
     63  CG2       -5.2240    8.5760    3.9240 C.3    52  ILE52       0.0019
     64  CD1       -6.3610    9.2470    6.6570 C.3    52  ILE52       0.0001
     65  N         -3.1630    6.2310    0.7610 N.3    54  ASP54      -0.1239
     66  CA        -1.7470    6.4750    1.0300 C.3    54  ASP54       0.1674
     67  C         -0.9420    6.3670   -0.2560 C.2    54  ASP54       0.2266
     68  O         -1.1980    5.4860   -1.0660 O.2    54  ASP54      -0.2867
     69  CB        -1.2000    5.4840    2.0590 C.3    54  ASP54       0.1410
     70  CG        -1.6760    5.7900    3.4730 C.2    54  ASP54       0.3668
     71  OD1       -1.8340    6.9970    3.8000 O.co2  54  ASP54      -0.2456
     72  OD2       -1.8650    4.8300    4.2550 O.co2  54  ASP54      -0.2456
     73  N         -5.6840   -2.3140    5.0370 N.3    98  ARG98      -0.1245
     74  CA        -5.0710   -2.5200    6.3470 C.3    98  ARG98       0.1563
     75  C         -4.1530   -3.7440    6.3480 C.2    98  ARG98       0.2260
     76  O         -3.3510   -3.9270    7.2540 O.2    98  ARG98      -0.2867
     77  CB        -6.1360   -2.7090    7.4420 C.3    98  ARG98       0.0307
     78  CG        -6.7410   -1.4600    7.9650 C.3    98  ARG98       0.0489
     79  CD        -7.4640   -1.6900    9.3180 C.3    98  ARG98       0.2205
     80  NE        -8.0630   -0.4350    9.7700 N.pl3  98  ARG98      -0.0865
     81  CZ        -9.1930    0.0570    9.2790 C.cat  98  ARG98       0.5346
     82  NH1       -9.8570   -0.6110    8.3350 N.pl3  98  ARG98       0.1354
     83  NH2       -9.6580    1.2160    9.7270 N.pl3  98  ARG98       0.1354
     84  N          6.1610    8.5680    2.3230 N.3   133  GLN133     -0.1245
     85  CA         4.7360    8.3840    2.4160 C.3   133  GLN133      0.1566
     86  C          3.9750    9.7020    2.5910 C.2   133  GLN133      0.2260
     87  O          4.2840   10.5170    3.4700 O.2   133  GLN133     -0.2867
     88  CB         4.4040    7.4490    3.5790 C.3   133  GLN133      0.0367
     89  CG         2.9120    7.1940    3.7620 C.3   133  GLN133      0.0905
     90  CD         2.3640    7.8470    5.0260 C.2   133  GLN133      0.2608
     91  OE1        3.0380    7.9010    6.0500 O.2   133  GLN133     -0.2717
     92  NE2        1.1460    8.3670    4.9390 N.am  133  GLN133     -0.0878
     93  N         -0.3580   11.2650    1.5240 N.3   135  ASN135     -0.1240
     94  CA        -1.7170   10.7830    1.4090 C.3   135  ASN135      0.1653
     95  C         -2.6160   11.8300    0.7400 C.2   135  ASN135      0.2266
     96  O         -2.1430   12.9080    0.3780 O.2   135  ASN135     -0.2867
     97  CB        -2.2520   10.3950    2.7950 C.3   135  ASN135      0.1155
     98  CG        -2.3250   11.5770    3.7550 C.2   135  ASN135      0.2627
     99  OD1       -2.7180   12.6790    3.3700 O.2   135  ASN135     -0.2716
    100  ND2       -1.9220   11.3530    5.0260 N.am  135  ASN135     -0.0877
    101  N         -5.2770   13.1790    2.2480 N.3   137  TYR137     -0.1227
    102  CA        -6.1290   13.5260    3.3820 C.3   137  TYR137      0.1736
    103  C         -5.6250   14.7220    4.1770 C.2   137  TYR137      0.2595
    104  O         -6.4090   15.5970    4.5550 O.2   137  TYR137     -0.2718
    105  CB        -6.2610   12.3290    4.3240 C.3   137  TYR137      0.0548
    106  CG        -7.1840   12.5480    5.5040 C.ar  137  TYR137     -0.0200
    107  CD1       -8.5580   12.4720    5.3470 C.ar  137  TYR137     -0.0009
    108  CD2       -6.6870   12.8170    6.7870 C.ar  137  TYR137     -0.0009
    109  CE1       -9.4150   12.6470    6.4240 C.ar  137  TYR137      0.0417
    110  CE2       -7.5460   12.9880    7.8650 C.ar  137  TYR137      0.0417
    111  CZ        -8.9190   12.9170    7.6640 C.ar  137  TYR137      0.1957
    112  OH        -9.7960   13.0770    8.7260 O.3   137  TYR137     -0.2866
    113  N         -4.3280   14.7470    4.4540 N.am  138  ASN138     -0.1974
    114  CA        -3.7250   15.8390    5.2020 C.3   138  ASN138      0.1688
    115  C         -2.3460   16.1360    4.6290 C.2   138  ASN138      0.2292
    116  O         -2.0650   15.7470    3.4820 O.2   138  ASN138     -0.2864
    117  CB        -3.6770   15.5040    6.7000 C.3   138  ASN138      0.1181
    118  CG        -2.8150   14.2890    7.0000 C.2   138  ASN138      0.2629
    119  OD1       -1.9210   13.9530    6.2300 O.2   138  ASN138     -0.2716
    120  ND2       -3.0960   13.6190    8.1120 N.am  138  ASN138     -0.0877
    121  N          0.6360   15.1500    5.8790 N.3   140  ASP140     -0.1239
    122  CA         1.6900   14.2350    6.3140 C.3   140  ASP140      0.1674
    123  C          2.6690   13.9180    5.1790 C.2   140  ASP140      0.2266
    124  O          2.2600   13.6140    4.0410 O.2   140  ASP140     -0.2867
    125  CB         1.1120   12.9190    6.8210 C.3   140  ASP140      0.1410
    126  CG         0.3210   13.0610    8.1040 C.2   140  ASP140      0.3668
    127  OD1        0.3740   14.1550    8.7240 O.co2 140  ASP140     -0.2456
    128  OD2       -0.3620   12.0730    8.4730 O.co2 140  ASP140     -0.2456
    129  N          6.1860   11.7040    5.3620 N.3   142  PHE142     -0.1241
    130  CA         7.0320   10.9950    6.3070 C.3   142  PHE142      0.1605
    131  C          8.0840   10.1630    5.5890 C.2   142  PHE142      0.2264
    132  O          7.8120    9.6280    4.5230 O.2   142  PHE142     -0.2867
    133  CB         6.1740   10.0850    7.1680 C.3   142  PHE142      0.0534
    134  CG         5.2050   10.8040    8.0750 C.ar  142  PHE142     -0.0203
    135  CD1        5.5790   11.9250    8.7920 C.ar  142  PHE142     -0.0042
    136  CD2        3.9090   10.3270    8.2100 C.ar  142  PHE142     -0.0042
    137  CE1        4.6700   12.5370    9.6370 C.ar  142  PHE142     -0.0003
    138  CE2        3.0140   10.9340    9.0380 C.ar  142  PHE142     -0.0003
    139  CZ         3.3850   12.0300    9.7510 C.ar  142  PHE142     -0.0000
@<TRIPOS>BOND
     1    68    67    2
     2    67    66    1
     3    96    95    2
     4    95    94    1
     5    65    66    1
     6    66    69    1
     7    94    93    1
     8    94    97    1
     9    69    70    1
    10    59    60    2
    11    59    58    1
    12   101   102    1
    13    84    85    1
    14    85    86    1
    15    85    88    1
    16    86    87    2
    17    97    98    1
    18    51    50    2
    19    27    25   am
    20    58    57    1
    21    58    61    1
    22    99    98    2
    23   102   103    1
    24   102   105    1
    25    70    71   ar
    26    70    72   ar
    27   116   115    2
    28    10    11   ar
    29    10     8   ar
    30    88    89    1
    31    50    49    1
    32    98   100   am
    33    89    90    1
    34    11     9   ar
    35    63    61    1
    36   124   123    2
    37    24    25    1
    38    24    21    1
    39    25    26    2
    40   103   113   am
    41   103   104    2
    42    49    48    1
    43    49    52    1
    44   105   106    1
    45    61    62    1
    46     8     6   ar
    47   113   114    1
    48   132   131    2
    49   115   114    1
    50     9     7   ar
    51    92    90   am
    52    90    91    2
    53    73    74    1
    54   123   122    1
    55   114   117    1
    56    20    21    1
    57   107   106   ar
    58   107   109   ar
    59   129   130    1
    60    21    22    1
    61    62    64    1
    62    39    38    2
    63   106   108   ar
    64     6     7   ar
    65     6     5    1
    66    52    53    1
    67   131   130    1
    68   121   122    1
    69    53    54    1
    70    38    37    1
    71   119   118    2
    72   130   133    1
    73   122   125    1
    74    74    75    1
    75    74    77    1
    76    75    76    2
    77   109   111   ar
    78     5     2    1
    79    22    23    2
    80    22    28   am
    81   117   118    1
    82   108   110   ar
    83   125   126    1
    84   118   120   am
    85    54    55   ar
    86    54    56   ar
    87   133   134    1
    88    77    78    1
    89    37    36    1
    90    37    40    1
    91    28    29    1
    92     2     3    1
    93     2     1    1
    94    36    30   am
    95   111   110   ar
    96   111   112    1
    97    78    79    1
    98    40    41    1
    99   134   136   ar
   100   134   135   ar
   101   126   128   ar
   102   126   127   ar
   103   136   138   ar
   104    41    42   ar
   105    41    43   ar
   106    42    44   ar
   107    82    81    1
   108    43    45   ar
   109     3     4    2
   110    44    46   ar
   111    45    46   ar
   112    46    47    1
   113   135   137   ar
   114    30    29    1
   115    30    31    2
   116    29    32    1
   117   138   139   ar
   118    81    83    1
   119    81    80    2
   120    79    80    1
   121   137   139   ar
   122    32    33    1
   123    33    34   ar
   124    33    35   ar
   125    13    14    1
   126    13    12    1
   127    13    16    1
   128    14    15    2
   129    17    16    1
   130    17    19    1
   131    18    16    1
