@<TRIPOS>MOLECULE
tmp/5f2hB01.pdb
 89 84 0 0 0
SMALL
GASTEIGER

@<TRIPOS>ATOM
      1  N         44.6000   15.3270   11.4730 N.3    10  LEU10      -0.1245
      2  CA        43.2280   15.7370   11.1140 C.3    10  LEU10       0.1561
      3  C         43.2190   17.2300   10.7550 C.2    10  LEU10       0.2260
      4  O         42.7620   17.6160    9.6890 O.2    10  LEU10      -0.2867
      5  CB        42.2530   15.4710   12.2610 C.3    10  LEU10       0.0270
      6  CG        41.9300   14.0020   12.6160 C.3    10  LEU10       0.0019
      7  CD1       41.2200   13.8520   13.9520 C.3    10  LEU10       0.0001
      8  CD2       41.1320   13.3150   11.5100 C.3    10  LEU10       0.0001
      9  N         44.2260   17.8220    7.4120 N.3    13  TYR13      -0.1241
     10  CA        43.2890   17.3260    6.4090 C.3    13  TYR13       0.1605
     11  C         42.3600   18.4680    6.0260 C.2    13  TYR13       0.2264
     12  O         42.0820   18.6870    4.8560 O.2    13  TYR13      -0.2867
     13  CB        42.4630   16.1960    6.9970 C.3    13  TYR13       0.0534
     14  CG        41.5250   15.5060    6.0480 C.ar   13  TYR13      -0.0201
     15  CD1       40.2670   16.0210    5.7620 C.ar   13  TYR13      -0.0009
     16  CD2       41.8800   14.3040    5.4800 C.ar   13  TYR13      -0.0009
     17  CE1       39.3990   15.3470    4.9150 C.ar   13  TYR13       0.0417
     18  CE2       41.0240   13.6200    4.6430 C.ar   13  TYR13       0.0417
     19  CZ        39.7880   14.1340    4.3580 C.ar   13  TYR13       0.1957
     20  OH        38.9760   13.4050    3.5070 O.3    13  TYR13      -0.2866
     21  N         45.1660    2.0900   14.6580 N.3    37  GLN37      -0.1245
     22  CA        44.5990    3.4010   14.4270 C.3    37  GLN37       0.1566
     23  C         45.4940    4.2460   13.5410 C.2    37  GLN37       0.2260
     24  O         45.0060    5.0180   12.7160 O.2    37  GLN37      -0.2867
     25  CB        44.4140    4.0970   15.7690 C.3    37  GLN37       0.0367
     26  CG        43.7340    5.4670   15.7240 C.3    37  GLN37       0.0905
     27  CD        42.3110    5.4390   15.1700 C.2    37  GLN37       0.2608
     28  OE1       42.0690    4.9300   14.0780 O.2    37  GLN37      -0.2717
     29  NE2       41.3910    6.1020   15.8720 N.am   37  GLN37      -0.0878
     30  N         45.1370    2.9270    9.9760 N.3    40  ASN40      -0.1225
     31  CA        43.8600    3.2840    9.4110 C.3    40  ASN40       0.1785
     32  C         44.0350    4.6680    8.8590 C.2    40  ASN40       0.2597
     33  O         43.7710    4.8970    7.6800 O.2    40  ASN40      -0.2718
     34  CB        42.7410    3.2170   10.4440 C.3    40  ASN40       0.1169
     35  CG        41.3740    3.4930    9.8470 C.2    40  ASN40       0.2627
     36  OD1       41.1940    3.5220    8.6280 O.2    40  ASN40      -0.2716
     37  ND2       40.3890    3.6500   10.7090 N.am   40  ASN40      -0.0877
     38  N         44.5250    5.5920    9.6820 N.am   41  PHE41      -0.1976
     39  CA        44.7530    6.9600    9.1880 C.3    41  PHE41       0.1639
     40  C         45.5970    6.9930    7.9190 C.2    41  PHE41       0.2290
     41  O         45.2280    7.6560    6.9400 O.2    41  PHE41      -0.2864
     42  CB        45.3540    7.8620   10.2550 C.3    41  PHE41       0.0560
     43  CG        44.3380    8.4660   11.1950 C.ar   41  PHE41      -0.0200
     44  CD1       43.6810    7.7020   12.1490 C.ar   41  PHE41      -0.0042
     45  CD2       44.1140    9.8320   11.1840 C.ar   41  PHE41      -0.0042
     46  CE1       42.7510    8.2750   13.0090 C.ar   41  PHE41      -0.0003
     47  CE2       43.2040   10.4080   12.0550 C.ar   41  PHE41      -0.0003
     48  CZ        42.5140    9.6260   12.9630 C.ar   41  PHE41      -0.0000
     49  N         43.6750    5.3820    4.7850 N.3    44  ALA44      -0.1231
     50  CA        42.4600    6.1470    4.5070 C.3    44  ALA44       0.1694
     51  C         42.8660    7.4390    3.7950 C.2    44  ALA44       0.2591
     52  O         42.2780    7.8170    2.7720 O.2    44  ALA44      -0.2718
     53  CB        41.7180    6.4490    5.7910 C.3    44  ALA44       0.0304
     54  N         43.9130    8.0950    4.2990 N.am   45  LEU45      -0.1980
     55  CA        44.3780    9.3360    3.6620 C.3    45  LEU45       0.1596
     56  C         44.9490    9.0670    2.2740 C.2    45  LEU45       0.2287
     57  O         44.6960    9.8250    1.3210 O.2    45  LEU45      -0.2864
     58  CB        45.3520   10.0670    4.5550 C.3    45  LEU45       0.0297
     59  CG        44.7130   10.5490    5.8700 C.3    45  LEU45       0.0022
     60  CD1       45.7300   11.1810    6.8110 C.3    45  LEU45       0.0001
     61  CD2       43.5780   11.5380    5.5990 C.3    45  LEU45       0.0001
     62  N         32.3230    0.2290    8.6220 N.3    72  TYR72      -0.1241
     63  CA        33.2710    1.2310    8.2210 C.3    72  TYR72       0.1605
     64  C         33.9380    0.8350    6.9030 C.2    72  TYR72       0.2264
     65  O         33.8850    1.5760    5.9140 O.2    72  TYR72      -0.2867
     66  CB        34.3340    1.4100    9.2860 C.3    72  TYR72       0.0534
     67  CG        35.5440    2.1450    8.7820 C.ar   72  TYR72      -0.0201
     68  CD1       35.5260    3.5230    8.6120 C.ar   72  TYR72      -0.0009
     69  CD2       36.7270    1.4520    8.4950 C.ar   72  TYR72      -0.0009
     70  CE1       36.6490    4.1870    8.1600 C.ar   72  TYR72       0.0417
     71  CE2       37.8500    2.1090    8.0390 C.ar   72  TYR72       0.0417
     72  CZ        37.8110    3.4720    7.8800 C.ar   72  TYR72       0.1957
     73  OH        38.9380    4.1320    7.4410 O.3    72  TYR72      -0.2866
     74  N         33.0310    3.5530    4.3160 N.3    76  ASP76      -0.1239
     75  CA        33.7940    4.7960    4.3890 C.3    76  ASP76       0.1674
     76  C         33.9870    5.2560    2.9530 C.2    76  ASP76       0.2266
     77  O         34.3950    4.4780    2.1010 O.2    76  ASP76      -0.2867
     78  CB        35.1330    4.6210    5.0990 C.3    76  ASP76       0.1410
     79  CG        35.8530    5.9580    5.3570 C.2    76  ASP76       0.3668
     80  OD1       35.1690    7.0080    5.3950 O.co2  76  ASP76      -0.2456
     81  OD2       37.0940    5.9610    5.5790 O.co2  76  ASP76      -0.2456
     82  N         36.1020    7.5160    1.7600 N.3    78  ASP78      -0.1239
     83  CA        37.5110    7.6210    1.4190 C.3    78  ASP78       0.1674
     84  C         38.1110    6.3240    0.8880 C.2    78  ASP78       0.2266
     85  O         39.1510    6.3550    0.2190 O.2    78  ASP78      -0.2867
     86  CB        38.3340    8.1190    2.6200 C.3    78  ASP78       0.1410
     87  CG        38.0310    9.5690    2.9930 C.2    78  ASP78       0.3668
     88  OD1       37.2430   10.2400    2.2740 O.co2  78  ASP78      -0.2456
     89  OD2       38.6060   10.0280    4.0080 O.co2  78  ASP78      -0.2456
@<TRIPOS>BOND
     1    85    84    2
     2    84    83    1
     3    57    56    2
     4    83    82    1
     5    83    86    1
     6    77    76    2
     7    56    55    1
     8    88    87   ar
     9    86    87    1
    10    52    51    2
    11    76    75    1
    12    87    89   ar
    13    20    19    1
    14    55    54    1
    15    55    58    1
    16    51    54   am
    17    51    50    1
    18    74    75    1
    19    19    18   ar
    20    19    17   ar
    21    75    78    1
    22    50    49    1
    23    50    53    1
    24    58    59    1
    25    18    16   ar
    26    12    11    2
    27    17    15   ar
    28    78    79    1
    29    79    80   ar
    30    79    81   ar
    31    16    14   ar
    32    61    59    1
    33    15    14   ar
    34    59    60    1
    35    65    64    2
    36    11    10    1
    37    14    13    1
    38    10    13    1
    39    10     9    1
    40    64    63    1
    41    41    40    2
    42    73    72    1
    43    33    32    2
    44    72    71   ar
    45    72    70   ar
    46    40    39    1
    47    71    69   ar
    48    70    68   ar
    49    63    62    1
    50    63    66    1
    51    69    67   ar
    52    68    67   ar
    53    36    35    2
    54    67    66    1
    55    32    31    1
    56    32    38   am
    57    39    38    1
    58    39    42    1
    59    31    30    1
    60    31    34    1
    61     4     3    2
    62    35    34    1
    63    35    37   am
    64    42    43    1
    65     3     2    1
    66     2     1    1
    67     2     5    1
    68    45    43   ar
    69    45    47   ar
    70    43    44   ar
    71     8     6    1
    72    47    48   ar
    73    44    46   ar
    74     5     6    1
    75     6     7    1
    76    24    23    2
    77    48    46   ar
    78    23    22    1
    79    28    27    2
    80    22    21    1
    81    22    25    1
    82    27    26    1
    83    27    29   am
    84    26    25    1
