@<TRIPOS>MOLECULE
tmp/5f2kB01.pdb
 169 162 0 0 0
SMALL
GASTEIGER

@<TRIPOS>ATOM
      1  N        -18.4080  -23.0510  -11.6130 N.3     8  MET8       -0.1245
      2  CA       -17.6030  -24.2640  -11.7360 C.3     8  MET8        0.1570
      3  C        -16.2830  -23.9510  -12.4310 C.2     8  MET8        0.2261
      4  O        -16.1830  -22.9690  -13.1800 O.2     8  MET8       -0.2867
      5  CB       -18.3630  -25.3550  -12.5020 C.3     8  MET8        0.0387
      6  CG       -19.7990  -25.6060  -12.0480 C.3     8  MET8        0.0595
      7  SD       -19.9890  -26.2850  -10.3810 S.3     8  MET8       -0.1393
      8  CE       -20.0350  -24.8100   -9.3680 C.3     8  MET8        0.0692
      9  N        -14.7070  -28.9090  -15.5610 N.3    13  TYR13      -0.1241
     10  CA       -16.0720  -29.3680  -15.2480 C.3    13  TYR13       0.1605
     11  C        -16.6100  -30.4470  -16.2000 C.2    13  TYR13       0.2264
     12  O        -17.2030  -31.4250  -15.7480 O.2    13  TYR13      -0.2867
     13  CB       -17.0810  -28.2140  -15.0860 C.3    13  TYR13       0.0534
     14  CG       -18.3940  -28.6870  -14.4770 C.ar   13  TYR13      -0.0201
     15  CD1      -18.5080  -28.8950  -13.1050 C.ar   13  TYR13      -0.0009
     16  CD2      -19.5070  -28.9620  -15.2760 C.ar   13  TYR13      -0.0009
     17  CE1      -19.6930  -29.3470  -12.5430 C.ar   13  TYR13       0.0417
     18  CE2      -20.6980  -29.4190  -14.7200 C.ar   13  TYR13       0.0417
     19  CZ       -20.7810  -29.6100  -13.3500 C.ar   13  TYR13       0.1957
     20  OH       -21.9510  -30.0650  -12.7770 O.3    13  TYR13      -0.2866
     21  N        -22.3860  -36.1770  -11.3670 N.3    20  GLN20      -0.1245
     22  CA       -23.6120  -35.4130  -11.5800 C.3    20  GLN20       0.1566
     23  C        -24.4630  -35.9970  -12.7040 C.2    20  GLN20       0.2260
     24  O        -25.6800  -36.1250  -12.5570 O.2    20  GLN20      -0.2867
     25  CB       -23.3030  -33.9330  -11.8470 C.3    20  GLN20       0.0367
     26  CG       -22.6700  -33.1940  -10.6740 C.3    20  GLN20       0.0905
     27  CD       -21.1490  -33.2000  -10.7130 C.2    20  GLN20       0.2608
     28  OE1      -20.5190  -34.2210  -11.0010 O.2    20  GLN20      -0.2717
     29  NE2      -20.5500  -32.0520  -10.4290 N.am   20  GLN20      -0.0878
     30  N        -28.5900  -30.0100  -10.3030 N.3   140  TRP140     -0.1241
     31  CA       -27.4020  -29.7250   -9.4910 C.3   140  TRP140      0.1605
     32  C        -27.0940  -28.2310   -9.3380 C.2   140  TRP140      0.2264
     33  O        -25.9380  -27.8510   -9.1410 O.2   140  TRP140     -0.2867
     34  CB       -26.1750  -30.4430  -10.0690 C.3   140  TRP140      0.0550
     35  CG       -26.2150  -31.9390   -9.9830 C.ar  140  TRP140      0.0003
     36  CD1      -26.6590  -32.8060  -10.9400 C.ar  140  TRP140      0.0946
     37  CD2      -25.7680  -32.7440   -8.8870 C.ar  140  TRP140      0.0152
     38  NE1      -26.5230  -34.1040  -10.5020 N.ar  140  TRP140     -0.2442
     39  CE2      -25.9780  -34.0940   -9.2460 C.ar  140  TRP140      0.0810
     40  CE3      -25.2090  -32.4550   -7.6340 C.ar  140  TRP140      0.0012
     41  CZ2      -25.6430  -35.1590   -8.3970 C.ar  140  TRP140      0.0191
     42  CZ3      -24.8810  -33.5130   -6.7880 C.ar  140  TRP140      0.0001
     43  CH2      -25.0970  -34.8460   -7.1760 C.ar  140  TRP140      0.0015
     44  N        -29.1490  -26.0940   -5.0990 N.3   143  GLN143     -0.1231
     45  CA       -28.5210  -26.2550   -3.7890 C.3   143  GLN143      0.1698
     46  C        -27.5470  -25.1130   -3.4810 C.2   143  GLN143      0.2592
     47  O        -27.1890  -24.9000   -2.3290 O.2   143  GLN143     -0.2718
     48  CB       -27.8350  -27.6240   -3.6430 C.3   143  GLN143      0.0381
     49  CG       -26.4760  -27.7400   -4.3130 C.3   143  GLN143      0.0905
     50  CD       -26.5590  -28.1610   -5.7670 C.2   143  GLN143      0.2608
     51  OE1      -27.6450  -28.3780   -6.3070 O.2   143  GLN143     -0.2717
     52  NE2      -25.4030  -28.3040   -6.4030 N.am  143  GLN143     -0.0878
     53  N        -27.1360  -24.3730   -4.5120 N.am  144  TRP144     -0.1976
     54  CA       -26.2400  -23.2330   -4.3300 C.3   144  TRP144      0.1640
     55  C        -27.0130  -22.0260   -3.8190 C.2   144  TRP144      0.2290
     56  O        -27.9070  -21.5130   -4.4970 O.2   144  TRP144     -0.2864
     57  CB       -25.5210  -22.8810   -5.6390 C.3   144  TRP144      0.0576
     58  CG       -24.4810  -23.8870   -6.0320 C.ar  144  TRP144      0.0006
     59  CD1      -24.6220  -24.9010   -6.9360 C.ar  144  TRP144      0.0946
     60  CD2      -23.1400  -23.9780   -5.5310 C.ar  144  TRP144      0.0152
     61  NE1      -23.4540  -25.6190   -7.0280 N.ar  144  TRP144     -0.2442
     62  CE2      -22.5270  -25.0760   -6.1780 C.ar  144  TRP144      0.0810
     63  CE3      -22.3960  -23.2400   -4.5990 C.ar  144  TRP144      0.0012
     64  CZ2      -21.2000  -25.4580   -5.9210 C.ar  144  TRP144      0.0191
     65  CZ3      -21.0750  -23.6180   -4.3430 C.ar  144  TRP144      0.0001
     66  CH2      -20.4930  -24.7170   -5.0060 C.ar  144  TRP144      0.0015
     67  N        -18.8050  -27.1730    5.0880 N.3   160  GLN160     -0.1245
     68  CA       -20.2160  -27.4420    4.8050 C.3   160  GLN160      0.1566
     69  C        -21.0390  -27.3030    6.0880 C.2   160  GLN160      0.2260
     70  O        -20.7030  -27.8990    7.1160 O.2   160  GLN160     -0.2867
     71  CB       -20.3840  -28.8400    4.1850 C.3   160  GLN160      0.0367
     72  CG       -21.8090  -29.3930    4.1600 C.3   160  GLN160      0.0905
     73  CD       -22.8000  -28.5070    3.4150 C.2   160  GLN160      0.2608
     74  OE1      -22.5270  -28.0320    2.3090 O.2   160  GLN160     -0.2717
     75  NE2      -23.9640  -28.2930    4.0180 N.am  160  GLN160     -0.0878
     76  N        -29.4340  -31.5130   -4.6510 N.3   203  MET203     -0.1245
     77  CA       -28.8760  -32.1860   -3.4850 C.3   203  MET203      0.1570
     78  C        -29.8940  -32.1660   -2.3570 C.2   203  MET203      0.2261
     79  O        -30.5380  -31.1450   -2.0970 O.2   203  MET203     -0.2867
     80  CB       -27.5780  -31.5110   -3.0450 C.3   203  MET203      0.0387
     81  CG       -26.4830  -31.5610   -4.0970 C.3   203  MET203      0.0595
     82  SD       -24.9310  -30.8390   -3.5490 S.3   203  MET203     -0.1393
     83  CE       -24.3680  -32.0280   -2.3300 C.3   203  MET203      0.0692
     84  N        -26.5180  -35.4410    5.0470 N.3   211  PHE211     -0.1241
     85  CA       -26.0140  -34.7560    3.8590 C.3   211  PHE211      0.1605
     86  C        -25.3200  -35.7150    2.8940 C.2   211  PHE211      0.2264
     87  O        -25.3670  -35.5200    1.6750 O.2   211  PHE211     -0.2867
     88  CB       -25.0470  -33.6500    4.3000 C.3   211  PHE211      0.0534
     89  CG       -24.5280  -32.7910    3.1790 C.ar  211  PHE211     -0.0203
     90  CD1      -25.2280  -31.6620    2.7680 C.ar  211  PHE211     -0.0042
     91  CD2      -23.3180  -33.0910    2.5590 C.ar  211  PHE211     -0.0042
     92  CE1      -24.7420  -30.8590    1.7420 C.ar  211  PHE211     -0.0003
     93  CE2      -22.8300  -32.2930    1.5330 C.ar  211  PHE211     -0.0003
     94  CZ       -23.5410  -31.1740    1.1280 C.ar  211  PHE211     -0.0000
     95  N        -21.8040  -37.8830    1.4430 N.3   213  TYR213     -0.1241
     96  CA       -20.4100  -37.5890    1.0750 C.3   213  TYR213      0.1605
     97  C        -19.4790  -37.5370    2.2970 C.2   213  TYR213      0.2264
     98  O        -18.5120  -36.7710    2.3220 O.2   213  TYR213     -0.2867
     99  CB       -20.3020  -36.2730    0.2800 C.3   213  TYR213      0.0534
    100  CG       -21.3080  -36.0840   -0.8400 C.ar  213  TYR213     -0.0201
    101  CD1      -22.5790  -35.5700   -0.5830 C.ar  213  TYR213     -0.0009
    102  CD2      -20.9770  -36.3790   -2.1630 C.ar  213  TYR213     -0.0009
    103  CE1      -23.4990  -35.3790   -1.6000 C.ar  213  TYR213      0.0417
    104  CE2      -21.8940  -36.1860   -3.1920 C.ar  213  TYR213      0.0417
    105  CZ       -23.1510  -35.6830   -2.9040 C.ar  213  TYR213      0.1957
    106  OH       -24.0720  -35.4800   -3.9110 O.3   213  TYR213     -0.2866
    107  N        -15.6940  -38.0730    1.8860 N.3   216  MET216     -0.1230
    108  CA       -15.2340  -36.9390    1.0830 C.3   216  MET216      0.1702
    109  C        -15.0280  -35.6960    1.9450 C.2   216  MET216      0.2592
    110  O        -13.9760  -35.0540    1.8790 O.2   216  MET216     -0.2718
    111  CB       -16.2090  -36.6580   -0.0730 C.3   216  MET216      0.0401
    112  CG       -16.1810  -35.2350   -0.6180 C.3   216  MET216      0.0596
    113  SD       -16.4740  -35.1710   -2.3930 S.3   216  MET216     -0.1393
    114  CE       -14.9350  -35.8870   -2.9620 C.3   216  MET216      0.0692
    115  N        -16.0330  -35.3670    2.7540 N.am  217  ASN217     -0.1974
    116  CA       -15.9770  -34.1850    3.6040 C.3   217  ASN217      0.1688
    117  C        -14.8700  -34.2700    4.6510 C.2   217  ASN217      0.2292
    118  O        -14.2020  -33.2730    4.9330 O.2   217  ASN217     -0.2864
    119  CB       -17.3270  -33.9320    4.2680 C.3   217  ASN217      0.1181
    120  CG       -17.5930  -32.4590    4.4910 C.2   217  ASN217      0.2629
    121  OD1      -17.0010  -31.8360    5.3720 O.2   217  ASN217     -0.2716
    122  ND2      -18.4850  -31.8880    3.6840 N.am  217  ASN217     -0.0877
    123  N        -11.5790  -33.7080    2.7950 N.3   220  LEU220     -0.1245
    124  CA       -11.4540  -32.2960    2.4210 C.3   220  LEU220      0.1561
    125  C        -10.9780  -31.4180    3.5820 C.2   220  LEU220      0.2260
    126  O        -10.0260  -30.6490    3.4310 O.2   220  LEU220     -0.2867
    127  CB       -12.7850  -31.7690    1.8630 C.3   220  LEU220      0.0270
    128  CG       -12.8310  -30.3610    1.2530 C.3   220  LEU220      0.0019
    129  CD1      -11.8540  -30.2120    0.0960 C.3   220  LEU220      0.0001
    130  CD2      -14.2470  -30.0270    0.8030 C.3   220  LEU220      0.0001
    131  N        -18.5890  -23.2200    1.8290 N.3   243  ILE243     -0.1245
    132  CA       -19.3230  -23.5610    0.6150 C.3   243  ILE243      0.1561
    133  C        -20.7980  -23.2130    0.8250 C.2   243  ILE243      0.2260
    134  O        -21.4610  -23.8240    1.6670 O.2   243  ILE243     -0.2867
    135  CB       -19.1740  -25.0600    0.2600 C.3   243  ILE243      0.0252
    136  CG1      -17.6930  -25.4660    0.1630 C.3   243  ILE243      0.0019
    137  CG2      -19.9310  -25.3920   -1.0210 C.3   243  ILE243      0.0019
    138  CD1      -16.9600  -24.9500   -1.0620 C.3   243  ILE243      0.0001
    139  N        -23.6220  -24.1280    0.0090 N.3   245  VAL245     -0.1245
    140  CA       -24.4910  -25.1980   -0.4810 C.3   245  VAL245      0.1561
    141  C        -25.3530  -25.7090    0.6670 C.2   245  VAL245      0.2260
    142  O        -24.8420  -25.9950    1.7530 O.2   245  VAL245     -0.2867
    143  CB       -23.6780  -26.3640   -1.0930 C.3   245  VAL245      0.0252
    144  CG1      -24.5020  -27.6420   -1.1720 C.3   245  VAL245      0.0019
    145  CG2      -23.1710  -25.9940   -2.4790 C.3   245  VAL245      0.0019
    146  N        -14.1220  -34.5800   -8.9780 N.3   300  PHE300     -0.1241
    147  CA       -15.4910  -34.1320   -8.7270 C.3   300  PHE300      0.1605
    148  C        -15.5100  -32.9540   -7.7500 C.2   300  PHE300      0.2264
    149  O        -16.1250  -31.9240   -8.0250 O.2   300  PHE300     -0.2867
    150  CB       -16.3380  -35.3140   -8.2150 C.3   300  PHE300      0.0534
    151  CG       -17.6020  -34.9130   -7.4960 C.ar  300  PHE300     -0.0203
    152  CD1      -18.7230  -34.4780   -8.2020 C.ar  300  PHE300     -0.0042
    153  CD2      -17.6810  -35.0060   -6.1080 C.ar  300  PHE300     -0.0042
    154  CE1      -19.8880  -34.1210   -7.5360 C.ar  300  PHE300     -0.0003
    155  CE2      -18.8410  -34.6480   -5.4370 C.ar  300  PHE300     -0.0003
    156  CZ       -19.9470  -34.2100   -6.1520 C.ar  300  PHE300     -0.0000
    157  N        -16.2300  -28.5550   -8.8460 N.3   304  ALA304     -0.1231
    158  CA       -17.4600  -28.0040   -8.2840 C.3   304  ALA304      0.1694
    159  C        -17.2480  -27.1050   -7.0690 C.2   304  ALA304      0.2591
    160  O        -17.9670  -26.1250   -6.9020 O.2   304  ALA304     -0.2718
    161  CB       -18.4280  -29.1270   -7.9400 C.3   304  ALA304      0.0304
    162  N        -16.2700  -27.4390   -6.2270 N.am  305  LEU305     -0.1980
    163  CA       -16.1200  -26.7880   -4.9200 C.3   305  LEU305      0.1596
    164  C        -14.8940  -25.8910   -4.7740 C.2   305  LEU305      0.2287
    165  O        -14.9390  -24.8840   -4.0680 O.2   305  LEU305     -0.2864
    166  CB       -16.1000  -27.8410   -3.8020 C.3   305  LEU305      0.0297
    167  CG       -17.2770  -28.8120   -3.6930 C.3   305  LEU305      0.0022
    168  CD1      -17.0430  -29.8220   -2.5770 C.3   305  LEU305      0.0001
    169  CD2      -18.5840  -28.0570   -3.4800 C.3   305  LEU305      0.0001
@<TRIPOS>BOND
     1    11    12    2
     2    11    10    1
     3     9    10    1
     4    16    18   ar
     5    16    14   ar
     6    10    13    1
     7    13    14    1
     8    18    19   ar
     9    14    15   ar
    10    19    20    1
    11    19    17   ar
    12     4     3    2
    13    15    17   ar
    14    23    24    2
    15    23    22    1
    16     5     6    1
    17     5     2    1
    18     3     2    1
    19     6     7    1
    20    25    22    1
    21    25    26    1
    22     2     1    1
    23    22    21    1
    24    28    27    2
    25    36    38   ar
    26    36    35   ar
    27    27    26    1
    28    27    29   am
    29    38    39   ar
    30     7     8    1
    31    30    31    1
    32    34    35    1
    33    34    31    1
    34    35    37   ar
    35    31    32    1
    36    32    33    2
    37    39    37   ar
    38    39    41   ar
    39   146   147    1
    40    37    40   ar
    41   157   158    1
    42   147   150    1
    43   147   148    1
    44    41    43   ar
    45   158   161    1
    46   158   159    1
    47   150   151    1
    48   152   154   ar
    49   152   151   ar
    50   149   148    2
    51    40    42   ar
    52   154   156   ar
    53   151   153   ar
    54    43    42   ar
    55   159   160    2
    56   159   162   am
    57    61    59   ar
    58    61    62   ar
    59    59    58   ar
    60    52    50   am
    61    51    50    2
    62   162   163    1
    63    62    64   ar
    64    62    60   ar
    65   156   155   ar
    66   153   155   ar
    67    58    57    1
    68    58    60   ar
    69    64    66   ar
    70    50    49    1
    71    57    54    1
    72    60    63   ar
    73    44    45    1
    74    66    65   ar
    75   163   164    1
    76   163   166    1
    77   164   165    2
    78    76    77    1
    79    63    65   ar
    80    53    54    1
    81    53    46   am
    82    56    55    2
    83    54    55    1
    84    49    48    1
    85    81    82    1
    86    81    80    1
    87   106   105    1
    88   166   167    1
    89    45    48    1
    90    45    46    1
    91   167   169    1
    92   167   168    1
    93    82    83    1
    94    77    80    1
    95    77    78    1
    96    46    47    2
    97   104   105   ar
    98   104   102   ar
    99   114   113    1
   100   105   103   ar
   101   145   143    1
   102   113   112    1
   103    78    79    2
   104   102   100   ar
   105   103   101   ar
   106   144   143    1
   107   143   140    1
   108   138   136    1
   109   137   135    1
   110   100   101   ar
   111   100    99    1
   112   112   111    1
   113   140   139    1
   114   140   141    1
   115   111   108    1
   116   129   128    1
   117   136   135    1
   118   135   132    1
   119    99    96    1
   120   132   133    1
   121   132   131    1
   122   141   142    2
   123   130   128    1
   124   133   134    2
   125    96    95    1
   126    96    97    1
   127   108   107    1
   128   108   109    1
   129    94    93   ar
   130    94    92   ar
   131   128   127    1
   132    93    91   ar
   133    87    86    2
   134    92    90   ar
   135   127   124    1
   136   110   109    2
   137   109   115   am
   138    97    98    2
   139    74    73    2
   140   124   123    1
   141   124   125    1
   142    91    89   ar
   143   115   116    1
   144    90    89   ar
   145    86    85    1
   146    89    88    1
   147    73    75   am
   148    73    72    1
   149   126   125    2
   150   116   119    1
   151   116   117    1
   152   122   120   am
   153    85    88    1
   154    85    84    1
   155    72    71    1
   156    71    68    1
   157   119   120    1
   158   120   121    2
   159   117   118    2
   160    68    67    1
   161    68    69    1
   162    69    70    2
