@<TRIPOS>MOLECULE
tmp/5f2mA00.pdb
 178 164 0 0 0
SMALL
GASTEIGER

@<TRIPOS>ATOM
      1  N         63.2720   68.2270   36.4520 N.3    23  ALA23      -0.1245
      2  CA        62.2900   68.5130   35.4030 C.3    23  ALA23       0.1562
      3  C         62.6370   69.7840   34.6780 C.2    23  ALA23       0.2260
      4  O         62.6850   70.8530   35.2880 O.2    23  ALA23      -0.2867
      5  CB        60.9030   68.6340   35.9890 C.3    23  ALA23       0.0290
      6  N         61.2290   70.2310   31.0480 N.3    25  ASP25      -0.1225
      7  CA        60.5480   70.1820   29.7490 C.3    25  ASP25       0.1805
      8  C         59.7270   71.4540   29.4770 C.2    25  ASP25       0.2598
      9  O         58.9800   71.5300   28.4810 O.2    25  ASP25      -0.2718
     10  CB        59.6570   68.9280   29.6450 C.3    25  ASP25       0.1424
     11  CG        58.4570   68.9490   30.5940 C.2    25  ASP25       0.3668
     12  OD1       58.3050   69.8790   31.4090 O.co2  25  ASP25      -0.2456
     13  OD2       57.6600   67.9990   30.5170 O.co2  25  ASP25      -0.2456
     14  N         59.8810   72.4550   30.3450 N.am   26  GLN26      -0.1965
     15  CA        59.2100   73.7530   30.1580 C.3    26  GLN26       0.1733
     16  C         59.4920   74.3480   28.7870 C.2    26  GLN26       0.2616
     17  O         60.6300   74.3470   28.3180 O.2    26  GLN26      -0.2715
     18  CB        59.6410   74.7720   31.2200 C.3    26  GLN26       0.0408
     19  CG        58.9780   74.6180   32.5580 C.3    26  GLN26       0.0908
     20  CD        59.6370   73.5710   33.4340 C.2    26  GLN26       0.2608
     21  OE1       60.5460   72.8580   33.0010 O.2    26  GLN26      -0.2717
     22  NE2       59.1650   73.4620   34.6770 N.am   26  GLN26      -0.0878
     23  N         58.4450   74.8810   28.1640 N.am   27  ARG27      -0.1963
     24  CA        58.5600   75.5190   26.8630 C.3    27  ARG27       0.1729
     25  C         57.8260   76.8490   26.9100 C.2    27  ARG27       0.2617
     26  O         58.4450   77.9140   26.8870 O.2    27  ARG27      -0.2715
     27  CB        57.9910   74.6140   25.7700 C.3    27  ARG27       0.0348
     28  CG        58.8680   73.4140   25.4510 C.3    27  ARG27       0.0492
     29  CD        58.0550   72.3050   24.8140 C.3    27  ARG27       0.2205
     30  NE        57.3940   71.4810   25.8230 N.pl3  27  ARG27      -0.0865
     31  CZ        56.4700   70.5600   25.5590 C.cat  27  ARG27       0.5346
     32  NH1       56.0790   70.3280   24.3160 N.pl3  27  ARG27       0.1354
     33  NH2       55.9420   69.8550   26.5510 N.pl3  27  ARG27       0.1354
     34  N         56.5010   76.7710   27.0010 N.am   28  GLY28      -0.1940
     35  CA        55.6680   77.9540   27.1110 C.3    28  GLY28       0.2014
     36  C         55.9030   78.6420   28.4380 C.2    28  GLY28       0.2638
     37  O         55.9020   79.8690   28.5240 O.2    28  GLY28      -0.2714
     38  N         56.1220   77.8420   29.4760 N.am   29  ALA29      -0.1977
     39  CA        56.3660   78.3740   30.8070 C.3    29  ALA29       0.1597
     40  C         57.7560   78.9990   30.8930 C.2    29  ALA29       0.2287
     41  O         57.9400   80.0140   31.5650 O.2    29  ALA29      -0.2864
     42  CB        56.2060   77.2810   31.8540 C.3    29  ALA29       0.0319
     43  N         57.7700   82.4860   29.2340 N.3    32  ARG32      -0.1245
     44  CA        57.2010   83.5410   30.0720 C.3    32  ARG32       0.1563
     45  C         58.1700   83.9780   31.1790 C.2    32  ARG32       0.2260
     46  O         58.1370   85.1300   31.6060 O.2    32  ARG32      -0.2867
     47  CB        55.8720   83.0790   30.6920 C.3    32  ARG32       0.0307
     48  CG        54.7490   82.8400   29.6810 C.3    32  ARG32       0.0489
     49  CD        53.3980   82.6050   30.3620 C.3    32  ARG32       0.2205
     50  NE        53.3830   81.4300   31.2400 N.pl3  32  ARG32      -0.0865
     51  CZ        53.1220   80.1850   30.8400 C.cat  32  ARG32       0.5346
     52  NH1       52.8640   79.9240   29.5630 N.pl3  32  ARG32       0.1354
     53  NH2       53.1280   79.1910   31.7240 N.pl3  32  ARG32       0.1354
     54  N         63.9130   64.9850   32.9460 N.3    66  LEU66      -0.1245
     55  CA        62.7930   65.1520   32.0080 C.3    66  LEU66       0.1561
     56  C         63.0540   66.3340   31.0930 C.2    66  LEU66       0.2260
     57  O         63.2450   67.4480   31.5640 O.2    66  LEU66      -0.2867
     58  CB        61.4730   65.3650   32.7780 C.3    66  LEU66       0.0270
     59  CG        60.2720   65.9260   31.9860 C.3    66  LEU66       0.0019
     60  CD1       59.8640   64.9340   30.9500 C.3    66  LEU66       0.0001
     61  CD2       59.1130   66.2180   32.9070 C.3    66  LEU66       0.0001
     62  N         53.4420   65.6710   25.1820 N.3    90  GLU90      -0.1245
     63  CA        52.3490   66.6190   24.9330 C.3    90  GLU90       0.1567
     64  C         52.7810   67.9810   24.3970 C.2    90  GLU90       0.2260
     65  O         53.8620   68.4800   24.7110 O.2    90  GLU90      -0.2867
     66  CB        51.5250   66.8450   26.2120 C.3    90  GLU90       0.0388
     67  CG        52.0590   67.9180   27.2000 C.3    90  GLU90       0.1160
     68  CD        53.2890   67.4920   28.0050 C.2    90  GLU90       0.3649
     69  OE1       53.6130   66.2810   28.0730 O.co2  90  GLU90      -0.2457
     70  OE2       53.9310   68.3930   28.6000 O.co2  90  GLU90      -0.2457
     71  N         52.5260   71.9410   24.5110 N.3    92  THR92      -0.1203
     72  CA        52.5970   72.8090   25.6630 C.3    92  THR92       0.1994
     73  C         51.3070   73.6260   25.8240 C.2    92  THR92       0.2618
     74  O         50.6620   73.9830   24.8410 O.2    92  THR92      -0.2717
     75  CB        53.8350   73.7370   25.5040 C.3    92  THR92       0.1784
     76  OG1       54.1740   74.3660   26.7410 O.3    92  THR92      -0.2211
     77  CG2       53.5860   74.7830   24.4400 C.3    92  THR92       0.0376
     78  N         50.9200   73.9110   27.0630 N.am   93  GLY93      -0.1956
     79  CA        49.8720   74.8810   27.3150 C.3    93  GLY93       0.1869
     80  C         48.4640   74.3970   27.0330 C.2    93  GLY93       0.2309
     81  O         48.2200   73.1990   26.9100 O.2    93  GLY93      -0.2863
     82  N         56.6060   60.8030   29.0880 N.3   123  LYS123     -0.1245
     83  CA        55.8340   61.6490   29.9780 C.3   123  LYS123      0.1561
     84  C         54.7600   62.4040   29.1970 C.2   123  LYS123      0.2260
     85  O         55.0220   62.9790   28.1390 O.2   123  LYS123     -0.2867
     86  CB        56.7460   62.6170   30.7300 C.3   123  LYS123      0.0271
     87  CG        56.0210   63.6350   31.6280 C.3   123  LYS123      0.0035
     88  CD        55.8390   64.9230   30.8280 C.3   123  LYS123      0.0206
     89  CE        55.2550   66.0190   31.6180 C.3   123  LYS123      0.1093
     90  NZ        55.1490   67.2190   30.7850 N.3   123  LYS123     -0.1314
     91  N         51.4460   65.1750   29.9830 N.3   125  LEU125     -0.1245
     92  CA        50.6700   66.0360   30.8640 C.3   125  LEU125      0.1561
     93  C         49.2180   66.1740   30.4210 C.2   125  LEU125      0.2260
     94  O         48.9450   66.5560   29.2860 O.2   125  LEU125     -0.2867
     95  CB        51.2910   67.4140   30.9250 C.3   125  LEU125      0.0270
     96  CG        50.4430   68.4800   31.6430 C.3   125  LEU125      0.0019
     97  CD1       50.1060   68.0660   33.0810 C.3   125  LEU125      0.0001
     98  CD2       51.1780   69.7960   31.6080 C.3   125  LEU125      0.0001
     99  N         45.6240   68.0230   31.7650 N.3   127  TYR127     -0.1241
    100  CA        44.8090   68.8640   32.6250 C.3   127  TYR127      0.1605
    101  C         43.4860   68.1620   32.8640 C.2   127  TYR127      0.2264
    102  O         42.8530   67.7420   31.9040 O.2   127  TYR127     -0.2867
    103  CB        44.5600   70.2450   32.0070 C.3   127  TYR127      0.0534
    104  CG        45.7810   71.1170   32.0240 C.ar  127  TYR127     -0.0201
    105  CD1       46.1300   71.8470   33.1600 C.ar  127  TYR127     -0.0009
    106  CD2       46.5980   71.2010   30.9160 C.ar  127  TYR127     -0.0009
    107  CE1       47.2640   72.6550   33.1690 C.ar  127  TYR127      0.0417
    108  CE2       47.7250   71.9910   30.9110 C.ar  127  TYR127      0.0417
    109  CZ        48.0570   72.7090   32.0350 C.ar  127  TYR127      0.1957
    110  OH        49.1730   73.4860   31.9880 O.3   127  TYR127     -0.2866
    111  N         51.4360   62.8240   34.0300 N.3   161  GLU161     -0.1245
    112  CA        51.3210   64.0010   34.8800 C.3   161  GLU161      0.1567
    113  C         49.8820   64.5210   34.8260 C.2   161  GLU161      0.2260
    114  O         49.3430   64.7630   33.7390 O.2   161  GLU161     -0.2867
    115  CB        52.2860   65.1040   34.4440 C.3   161  GLU161      0.0388
    116  CG        52.2830   66.3340   35.3410 C.3   161  GLU161      0.1160
    117  CD        53.1320   67.4590   34.7850 C.2   161  GLU161      0.3649
    118  OE1       53.9000   67.2240   33.8280 O.co2 161  GLU161     -0.2457
    119  OE2       53.0250   68.5920   35.2980 O.co2 161  GLU161     -0.2457
    120  N         47.6160   67.7280   36.1310 N.3   163  LEU163     -0.1245
    121  CA        47.4100   69.0150   36.7550 C.3   163  LEU163      0.1561
    122  C         45.9240   69.2780   36.8230 C.2   163  LEU163      0.2260
    123  O         45.2240   69.2160   35.8090 O.2   163  LEU163     -0.2867
    124  CB        48.1090   70.1180   35.9750 C.3   163  LEU163      0.0270
    125  CG        49.6400   70.1140   36.0600 C.3   163  LEU163      0.0019
    126  CD1       50.2060   71.2240   35.1850 C.3   163  LEU163      0.0001
    127  CD2       50.0840   70.2830   37.5020 C.3   163  LEU163      0.0001
    128  N         52.5610   61.4320   38.1140 N.3   203  LYS203     -0.1245
    129  CA        53.2620   62.6370   38.5340 C.3   203  LYS203      0.1561
    130  C         52.1730   63.6330   38.9080 C.2   203  LYS203      0.2260
    131  O         51.3940   64.0480   38.0490 O.2   203  LYS203     -0.2867
    132  CB        54.1620   63.1630   37.4370 C.3   203  LYS203      0.0271
    133  CG        54.7910   64.5410   37.7160 C.3   203  LYS203      0.0035
    134  CD        55.6130   65.0520   36.5210 C.3   203  LYS203      0.0206
    135  CE        55.9470   66.5250   36.6680 C.3   203  LYS203      0.1093
    136  NZ        56.7550   66.9540   35.5020 N.3   203  LYS203     -0.1314
    137  N         55.3010   66.8430   41.7530 N.3   246  LEU246     -0.1231
    138  CA        55.8240   68.0040   41.0710 C.3   246  LEU246      0.1693
    139  C         55.8700   69.1670   42.0690 C.2   246  LEU246      0.2593
    140  O         55.1070   69.1960   43.0480 O.2   246  LEU246     -0.2718
    141  CB        54.9710   68.3280   39.8390 C.3   246  LEU246      0.0284
    142  CG        53.4950   68.6590   40.0880 C.3   246  LEU246      0.0019
    143  CD1       53.2700   70.1680   40.1020 C.3   246  LEU246      0.0001
    144  CD2       52.6100   68.0010   39.0450 C.3   246  LEU246      0.0001
    145  N         56.7700   70.1260   41.8370 N.am  247  SER247     -0.1938
    146  CA        56.9540   71.2110   42.7950 C.3   247  SER247      0.2055
    147  C         56.0240   72.3900   42.5540 C.2   247  SER247      0.2642
    148  O         55.7440   73.1520   43.4670 O.2   247  SER247     -0.2714
    149  CB        58.4050   71.7010   42.7870 C.3   247  SER247      0.2130
    150  OG        58.6500   72.5910   41.7100 O.3   247  SER247     -0.2179
    151  N         55.5670   72.5630   41.3260 N.am  248  ALA248     -0.1977
    152  CA        54.6330   73.6440   41.0060 C.3   248  ALA248      0.1597
    153  C         55.2620   75.0210   41.2370 C.2   248  ALA248      0.2287
    154  O         54.5620   76.0220   41.3420 O.2   248  ALA248     -0.2864
    155  CB        53.3360   73.5120   41.8250 C.3   248  ALA248      0.0319
    156  N         59.5040   64.9140   40.5650 N.3   273  LEU273     -0.1245
    157  CA        59.9940   65.4490   39.3140 C.3   273  LEU273      0.1561
    158  C         59.9140   66.9350   39.4570 C.2   273  LEU273      0.2260
    159  O         58.8920   67.5620   39.1930 O.2   273  LEU273     -0.2867
    160  CB        59.1970   64.9620   38.1190 C.3   273  LEU273      0.0270
    161  CG        59.9900   64.1380   37.1200 C.3   273  LEU273      0.0019
    162  CD1       59.0580   63.5580   36.1000 C.3   273  LEU273      0.0001
    163  CD2       61.0480   64.9620   36.3950 C.3   273  LEU273      0.0001
    164  N         61.4410   70.8320   39.0940 N.3   275  GLY275     -0.1210
    165  CA        62.1320   71.6890   38.1490 C.3   275  GLY275      0.1956
    166  C         62.4350   73.0560   38.7180 C.2   275  GLY275      0.2611
    167  O         63.5490   73.3220   39.1610 O.2   275  GLY275     -0.2717
    168  N         61.4270   73.9270   38.6990 N.am  276  ARG276     -0.1979
    169  CA        61.6130   75.3300   39.0590 C.3   276  ARG276      0.1597
    170  C         62.0830   75.5030   40.5140 C.2   276  ARG276      0.2287
    171  O         62.9110   76.3620   40.7980 O.2   276  ARG276     -0.2864
    172  CB        60.3140   76.1120   38.8240 C.3   276  ARG276      0.0334
    173  CG        60.0230   76.4190   37.3600 C.3   276  ARG276      0.0492
    174  CD        58.5390   76.7590   37.1330 C.3   276  ARG276      0.2205
    175  NE        57.6480   75.6160   37.3730 N.pl3 276  ARG276     -0.0865
    176  CZ        56.3150   75.6890   37.4180 C.cat 276  ARG276      0.5346
    177  NH1       55.7030   76.8540   37.2380 N.pl3 276  ARG276      0.1354
    178  NH2       55.5870   74.5930   37.6470 N.pl3 276  ARG276      0.1354
@<TRIPOS>BOND
     1    32    31    1
     2    64    65    2
     3    64    63    1
     4    77    75    1
     5    71    72    1
     6    29    28    1
     7    29    30    1
     8    74    73    2
     9    63    62    1
    10    63    66    1
    11    28    27    1
    12    75    72    1
    13    75    76    1
    14    31    30    2
    15    31    33    1
    16    72    73    1
    17    27    24    1
    18    73    78   am
    19    66    67    1
    20    24    25    1
    21    24    23    1
    22    26    25    2
    23    25    34   am
    24    81    80    2
    25    34    35    1
    26    80    79    1
    27    78    79    1
    28    35    36    1
    29    67    68    1
    30    68    69   ar
    31    68    70   ar
    32    85    84    2
    33    23    16   am
    34    17    16    2
    35    36    37    2
    36    36    38   am
    37     9     8    2
    38    16    15    1
    39    82    83    1
    40    84    83    1
    41    43    44    1
    42    94    93    2
    43    38    39    1
    44     8     7    1
    45     8    14   am
    46    52    51    1
    47    10     7    1
    48    10    11    1
    49    48    49    1
    50    48    47    1
    51     7     6    1
    52    83    86    1
    53    91    92    1
    54    44    47    1
    55    44    45    1
    56    15    14    1
    57    15    18    1
    58    49    50    1
    59    93    92    1
    60    13    11   ar
    61    11    12   ar
    62    86    87    1
    63    90    89    1
    64    39    40    1
    65    39    42    1
    66    88    89    1
    67    88    87    1
    68    51    50    2
    69    51    53    1
    70    92    95    1
    71    40    41    2
    72   108   106   ar
    73   108   109   ar
    74   106   104   ar
    75    95    96    1
    76    60    59    1
    77    56    57    2
    78    56    55    1
    79    45    46    2
    80    18    19    1
    81    98    96    1
    82    96    97    1
    83    99   100    1
    84   102   101    2
    85    59    58    1
    86    59    61    1
    87   110   109    1
    88   103   104    1
    89   103   100    1
    90    55    58    1
    91    55    54    1
    92   104   105   ar
    93   109   107   ar
    94    19    20    1
    95   100   101    1
    96    21    20    2
    97   105   107   ar
    98    20    22   am
    99   114   113    2
   100   118   117   ar
   101   111   112    1
   102   115   112    1
   103   115   116    1
   104     3     4    2
   105     3     2    1
   106   117   119   ar
   107   117   116    1
   108   113   112    1
   109   126   125    1
   110     2     5    1
   111     2     1    1
   112   136   135    1
   113   123   122    2
   114   124   125    1
   115   124   121    1
   116   125   127    1
   117   162   161    1
   118   120   121    1
   119   163   161    1
   120   134   135    1
   121   134   133    1
   122   121   122    1
   123   161   160    1
   124   174   173    1
   125   174   175    1
   126   177   176    1
   127   173   172    1
   128   175   176    2
   129   176   178    1
   130   132   133    1
   131   132   129    1
   132   131   130    2
   133   128   129    1
   134   160   157    1
   135   165   166    1
   136   165   164    1
   137   129   130    1
   138   168   166   am
   139   168   169    1
   140   166   167    2
   141   172   169    1
   142   144   142    1
   143   169   170    1
   144   159   158    2
   145   157   158    1
   146   157   156    1
   147   141   142    1
   148   141   138    1
   149   142   143    1
   150   170   171    2
   151   152   153    1
   152   152   151    1
   153   152   155    1
   154   138   137    1
   155   138   139    1
   156   153   154    2
   157   151   147   am
   158   150   149    1
   159   145   139   am
   160   145   146    1
   161   139   140    2
   162   147   146    1
   163   147   148    2
   164   149   146    1
