@<TRIPOS>MOLECULE
tmp/5f2oA01.pdb
 184 177 0 0 0
SMALL
GASTEIGER

@<TRIPOS>ATOM
      1  N        -12.5910   -8.4330  -29.7680 N.3     9  MET9       -0.1245
      2  CA       -11.9860   -7.2190  -29.1990 C.3     9  MET9        0.1570
      3  C        -11.3330   -7.5470  -27.8560 C.2     9  MET9        0.2261
      4  O        -11.6740   -8.5570  -27.2230 O.2     9  MET9       -0.2867
      5  CB       -13.0340   -6.1120  -29.0040 C.3     9  MET9        0.0387
      6  CG       -14.0060   -5.9130  -30.1580 C.3     9  MET9        0.0595
      7  SD       -13.2650   -5.2620  -31.6670 S.3     9  MET9       -0.1393
      8  CE       -12.7890   -6.7500  -32.5480 C.3     9  MET9        0.0692
      9  N        -11.9460   -2.5840  -24.4490 N.3    14  TYR14      -0.1241
     10  CA       -12.8820   -2.1320  -25.4880 C.3    14  TYR14       0.1605
     11  C        -13.8900   -1.0700  -25.0090 C.2    14  TYR14       0.2264
     12  O        -14.1550   -0.0920  -25.7200 O.2    14  TYR14      -0.2867
     13  CB       -13.5890   -3.3040  -26.1810 C.3    14  TYR14       0.0534
     14  CG       -14.3310   -2.8370  -27.4140 C.ar   14  TYR14      -0.0201
     15  CD1      -13.6500   -2.6170  -28.6100 C.ar   14  TYR14      -0.0009
     16  CD2      -15.7000   -2.5630  -27.3670 C.ar   14  TYR14      -0.0009
     17  CE1      -14.3150   -2.1620  -29.7430 C.ar   14  TYR14       0.0417
     18  CE2      -16.3790   -2.1070  -28.4910 C.ar   14  TYR14       0.0417
     19  CZ       -15.6800   -1.9020  -29.6750 C.ar   14  TYR14       0.1957
     20  OH       -16.3360   -1.4410  -30.8000 O.3    14  TYR14      -0.2866
     21  N        -15.9790    4.5050  -32.3200 N.3    21  GLN21      -0.1245
     22  CA       -17.1180    3.6970  -32.7640 C.3    21  GLN21       0.1566
     23  C        -18.4530    4.3050  -32.3270 C.2    21  GLN21       0.2260
     24  O        -19.3780    4.4250  -33.1340 O.2    21  GLN21      -0.2867
     25  CB       -16.9930    2.2410  -32.2670 C.3    21  GLN21       0.0367
     26  CG       -15.8340    1.4390  -32.8660 C.3    21  GLN21       0.0905
     27  CD       -14.5400    1.5170  -32.0510 C.2    21  GLN21       0.2608
     28  OE1      -14.1930    2.5590  -31.4960 O.2    21  GLN21      -0.2717
     29  NE2      -13.8210    0.4080  -31.9880 N.am   21  GLN21      -0.0878
     30  N        -20.3390   -1.7400  -36.7190 N.3   141  TRP141     -0.1241
     31  CA       -18.8890   -1.9600  -36.6930 C.3   141  TRP141      0.1605
     32  C        -18.4920   -3.4410  -36.6150 C.2   141  TRP141      0.2264
     33  O        -17.4310   -3.7700  -36.0610 O.2   141  TRP141     -0.2867
     34  CB       -18.2980   -1.2370  -35.4780 C.3   141  TRP141      0.0550
     35  CG       -18.2790    0.2620  -35.5520 C.ar  141  TRP141      0.0003
     36  CD1      -19.1420    1.1250  -34.9410 C.ar  141  TRP141      0.0946
     37  CD2      -17.3150    1.0730  -36.2360 C.ar  141  TRP141      0.0152
     38  NE1      -18.7850    2.4260  -35.2170 N.ar  141  TRP141     -0.2442
     39  CE2      -17.6590    2.4190  -36.0000 C.ar  141  TRP141      0.0810
     40  CE3      -16.1890    0.7880  -37.0190 C.ar  141  TRP141      0.0012
     41  CZ2      -16.9170    3.4900  -36.5300 C.ar  141  TRP141      0.0191
     42  CZ3      -15.4450    1.8530  -37.5390 C.ar  141  TRP141      0.0001
     43  CH2      -15.8150    3.1820  -37.2890 C.ar  141  TRP141      0.0015
     44  N        -17.7040   -5.5780  -41.0710 N.3   144  ALA144     -0.1231
     45  CA       -16.4320   -5.3180  -41.7310 C.3   144  ALA144      0.1694
     46  C        -15.4320   -6.4560  -41.4800 C.2   144  ALA144      0.2592
     47  O        -14.4780   -6.6230  -42.2300 O.2   144  ALA144     -0.2718
     48  CB       -15.8450   -3.9770  -41.2990 C.3   144  ALA144      0.0304
     49  N        -15.6540   -7.2410  -40.4290 N.am  145  TRP145     -0.1976
     50  CA       -14.8080   -8.3920  -40.1520 C.3   145  TRP145      0.1640
     51  C        -15.1780   -9.5650  -41.0460 C.2   145  TRP145      0.2290
     52  O        -16.3020  -10.0780  -41.0050 O.2   145  TRP145     -0.2864
     53  CB       -14.8970   -8.7910  -38.6710 C.3   145  TRP145      0.0576
     54  CG       -14.2850   -7.7550  -37.7770 C.ar  145  TRP145      0.0006
     55  CD1      -14.9240   -6.7250  -37.1520 C.ar  145  TRP145      0.0946
     56  CD2      -12.9010   -7.6440  -37.4330 C.ar  145  TRP145      0.0152
     57  NE1      -14.0170   -5.9740  -36.4270 N.ar  145  TRP145     -0.2442
     58  CE2      -12.7680   -6.5180  -36.5890 C.ar  145  TRP145      0.0810
     59  CE3      -11.7580   -8.3890  -37.7570 C.ar  145  TRP145      0.0012
     60  CZ2      -11.5360   -6.1260  -36.0520 C.ar  145  TRP145      0.0191
     61  CZ3      -10.5260   -7.9960  -37.2160 C.ar  145  TRP145      0.0001
     62  CH2      -10.4360   -6.8720  -36.3740 C.ar  145  TRP145      0.0015
     63  N         -1.8470   -4.9600  -42.1260 N.3   160  VAL160     -0.1231
     64  CA        -2.9330   -4.4320  -41.3040 C.3   160  VAL160      0.1692
     65  C         -4.1890   -4.0140  -42.0780 C.2   160  VAL160      0.2591
     66  O         -5.2570   -3.8130  -41.4830 O.2   160  VAL160     -0.2718
     67  CB        -2.4380   -3.3380  -40.3310 C.3   160  VAL160      0.0266
     68  CG1       -1.3450   -3.9070  -39.4390 C.3   160  VAL160      0.0020
     69  CG2       -1.9340   -2.1110  -41.0730 C.3   160  VAL160      0.0020
     70  N         -4.0680   -3.9000  -43.3990 N.am  161  GLN161     -0.1979
     71  CA        -5.2220   -3.5650  -44.2270 C.3   161  GLN161      0.1601
     72  C         -5.0010   -3.8830  -45.6980 C.2   161  GLN161      0.2287
     73  O         -4.0910   -3.3360  -46.3250 O.2   161  GLN161     -0.2864
     74  CB        -5.6270   -2.0950  -44.0460 C.3   161  GLN161      0.0394
     75  CG        -6.8570   -1.6910  -44.8460 C.3   161  GLN161      0.0908
     76  CD        -7.9710   -2.7240  -44.7700 C.2   161  GLN161      0.2608
     77  OE1       -8.2980   -3.2340  -43.6930 O.2   161  GLN161     -0.2717
     78  NE2       -8.5570   -3.0350  -45.9090 N.am  161  GLN161     -0.0878
     79  N         -4.6240   -1.1920  -48.6130 N.3   164  TYR164     -0.1241
     80  CA        -3.3150   -0.5800  -48.8270 C.3   164  TYR164      0.1605
     81  C         -2.3000   -1.5400  -49.4510 C.2   164  TYR164      0.2264
     82  O         -1.1450   -1.1660  -49.6770 O.2   164  TYR164     -0.2867
     83  CB        -2.7890   -0.0030  -47.5090 C.3   164  TYR164      0.0534
     84  CG        -3.5770    1.2010  -47.0470 C.ar  164  TYR164     -0.0201
     85  CD1       -3.4450    2.4250  -47.6970 C.ar  164  TYR164     -0.0009
     86  CD2       -4.4740    1.1120  -45.9780 C.ar  164  TYR164     -0.0009
     87  CE1       -4.1710    3.5350  -47.2910 C.ar  164  TYR164      0.0417
     88  CE2       -5.1980    2.2220  -45.5550 C.ar  164  TYR164      0.0417
     89  CZ        -5.0440    3.4310  -46.2190 C.ar  164  TYR164      0.1957
     90  OH        -5.7540    4.5500  -45.8320 O.3   164  TYR164     -0.2866
     91  N        -17.8860   -0.1770  -42.0000 N.3   204  MET204     -0.1245
     92  CA       -16.8060    0.5130  -42.6710 C.3   204  MET204      0.1570
     93  C        -17.0510    0.6050  -44.1680 C.2   204  MET204      0.2261
     94  O        -17.3900   -0.3800  -44.8210 O.2   204  MET204     -0.2867
     95  CB       -15.4970   -0.2140  -42.3990 C.3   204  MET204      0.0387
     96  CG       -15.1520   -0.2790  -40.9130 C.3   204  MET204      0.0595
     97  SD       -13.5340   -1.0370  -40.6980 S.3   204  MET204     -0.1393
     98  CE       -12.4410    0.3440  -41.0330 C.3   204  MET204      0.0692
     99  N        -10.1200    4.0910  -48.2040 N.3   212  PHE212     -0.1241
    100  CA       -10.3760    3.3650  -46.9550 C.3   212  PHE212      0.1605
    101  C        -10.3170    4.2770  -45.7320 C.2   212  PHE212      0.2264
    102  O        -10.9970    4.0340  -44.7370 O.2   212  PHE212     -0.2867
    103  CB        -9.3590    2.2210  -46.8240 C.3   212  PHE212      0.0534
    104  CG        -9.5290    1.3810  -45.5880 C.ar  212  PHE212     -0.0203
    105  CD1       -8.8940    1.7340  -44.3920 C.ar  212  PHE212     -0.0042
    106  CD2      -10.3060    0.2320  -45.6190 C.ar  212  PHE212     -0.0042
    107  CE1       -9.0450    0.9600  -43.2510 C.ar  212  PHE212     -0.0003
    108  CE2      -10.4610   -0.5490  -44.4770 C.ar  212  PHE212     -0.0003
    109  CZ        -9.8270   -0.1830  -43.2940 C.ar  212  PHE212     -0.0000
    110  N         -8.2430    6.3580  -42.5040 N.3   214  TYR214     -0.1241
    111  CA        -7.3010    6.0410  -41.4080 C.3   214  TYR214      0.1605
    112  C         -5.8470    6.0140  -41.8890 C.2   214  TYR214      0.2264
    113  O         -5.0380    5.2410  -41.3670 O.2   214  TYR214     -0.2867
    114  CB        -7.6140    4.6890  -40.7440 C.3   214  TYR214      0.0534
    115  CG        -9.0630    4.4500  -40.3820 C.ar  214  TYR214     -0.0201
    116  CD1       -9.9490    3.9200  -41.3170 C.ar  214  TYR214     -0.0009
    117  CD2       -9.5340    4.7180  -39.0970 C.ar  214  TYR214     -0.0009
    118  CE1      -11.2770    3.6860  -40.9940 C.ar  214  TYR214      0.0417
    119  CE2      -10.8640    4.4800  -38.7550 C.ar  214  TYR214      0.0417
    120  CZ       -11.7300    3.9660  -39.7120 C.ar  214  TYR214      0.1957
    121  OH       -13.0560    3.7220  -39.3940 O.3   214  TYR214     -0.2866
    122  N         -3.0730    6.5020  -39.3700 N.3   217  MET217     -0.1230
    123  CA        -3.1080    5.3200  -38.5090 C.3   217  MET217      0.1702
    124  C         -2.4290    4.1300  -39.1830 C.2   217  MET217      0.2592
    125  O         -1.6020    3.4500  -38.5700 O.2   217  MET217     -0.2718
    126  CB        -4.5560    4.9830  -38.1160 C.3   217  MET217      0.0401
    127  CG        -4.7910    3.5450  -37.6750 C.3   217  MET217      0.0596
    128  SD        -6.0440    3.4380  -36.3850 S.3   217  MET217     -0.1393
    129  CE        -5.1700    4.2430  -35.0460 C.3   217  MET217      0.0692
    130  N         -2.7840    3.8850  -40.4420 N.am  218  ASN218     -0.1974
    131  CA        -2.1720    2.8110  -41.2120 C.3   218  ASN218      0.1688
    132  C         -0.6490    2.9350  -41.2250 C.2   218  ASN218      0.2292
    133  O          0.0620    1.9730  -40.9360 O.2   218  ASN218     -0.2864
    134  CB        -2.6950    2.8050  -42.6450 C.3   218  ASN218      0.1181
    135  CG        -2.0130    1.7570  -43.5010 C.2   218  ASN218      0.2629
    136  OD1       -2.2060    0.5560  -43.3030 O.2   218  ASN218     -0.2716
    137  ND2       -1.2000    2.2070  -44.4520 N.am  218  ASN218     -0.0877
    138  N          0.9460    2.2880  -37.7470 N.3   221  LEU221     -0.1245
    139  CA         0.8930    0.8770  -37.3660 C.3   221  LEU221      0.1561
    140  C          1.9500    0.0460  -38.1050 C.2   221  LEU221      0.2260
    141  O          2.6830   -0.7270  -37.4790 O.2   221  LEU221     -0.2867
    142  CB        -0.5140    0.3130  -37.6030 C.3   221  LEU221      0.0270
    143  CG        -0.8850   -1.0770  -37.0800 C.3   221  LEU221      0.0019
    144  CD1       -0.4430   -1.3080  -35.6380 C.3   221  LEU221      0.0001
    145  CD2       -2.3890   -1.2720  -37.2090 C.3   221  LEU221      0.0001
    146  N         -5.0290   -8.3100  -40.7920 N.3   244  ILE244     -0.1245
    147  CA        -6.2950   -7.9340  -40.1700 C.3   244  ILE244      0.1561
    148  C         -7.3940   -8.0520  -41.2270 C.2   244  ILE244      0.2260
    149  O         -7.4310   -7.2360  -42.1470 O.2   244  ILE244     -0.2867
    150  CB        -6.2480   -6.5040  -39.5950 C.3   244  ILE244      0.0252
    151  CG1       -5.0450   -6.3500  -38.6480 C.3   244  ILE244      0.0019
    152  CG2       -7.5600   -6.1770  -38.8840 C.3   244  ILE244      0.0019
    153  CD1       -4.8440   -4.9480  -38.1010 C.3   244  ILE244      0.0001
    154  N        -10.2280   -7.0710  -42.0380 N.3   246  VAL246     -0.1245
    155  CA       -11.2710   -6.0640  -42.0130 C.3   246  VAL246      0.1561
    156  C        -11.3960   -5.5330  -43.4290 C.2   246  VAL246      0.2260
    157  O        -10.3830   -5.2470  -44.0730 O.2   246  VAL246     -0.2867
    158  CB       -10.9190   -4.9420  -41.0250 C.3   246  VAL246      0.0252
    159  CG1      -11.6190   -3.6420  -41.3840 C.3   246  VAL246      0.0019
    160  CG2      -11.3000   -5.3660  -39.6210 C.3   246  VAL246      0.0019
    161  N         -7.8280    3.0290  -29.4280 N.3   301  PHE301     -0.1241
    162  CA        -8.7950    2.5610  -30.4230 C.3   301  PHE301      0.1605
    163  C         -8.2330    1.3800  -31.2100 C.2   301  PHE301      0.2264
    164  O         -8.8810    0.3390  -31.3250 O.2   301  PHE301     -0.2867
    165  CB        -9.1560    3.7270  -31.3600 C.3   301  PHE301      0.0534
    166  CG        -9.7580    3.3020  -32.6780 C.ar  301  PHE301     -0.0203
    167  CD1      -11.0890    2.8980  -32.7580 C.ar  301  PHE301     -0.0042
    168  CD2       -9.0010    3.3400  -33.8400 C.ar  301  PHE301     -0.0042
    169  CE1      -11.6410    2.5280  -33.9800 C.ar  301  PHE301     -0.0003
    170  CE2       -9.5390    2.9600  -35.0630 C.ar  301  PHE301     -0.0003
    171  CZ       -10.8680    2.5520  -35.1310 C.ar  301  PHE301     -0.0000
    172  N         -9.3590   -2.9480  -30.7520 N.3   305  ALA305     -0.1231
    173  CA       -10.0820   -3.5100  -31.8920 C.3   305  ALA305      0.1694
    174  C         -9.2110   -4.3840  -32.7970 C.2   305  ALA305      0.2591
    175  O         -9.6980   -5.3630  -33.3530 O.2   305  ALA305     -0.2718
    176  CB       -10.7580   -2.4000  -32.6950 C.3   305  ALA305      0.0304
    177  N         -7.9250   -4.0450  -32.9170 N.am  306  LEU306     -0.1980
    178  CA        -7.0480   -4.6830  -33.9060 C.3   306  LEU306      0.1596
    179  C         -5.9400   -5.5720  -33.3350 C.2   306  LEU306      0.2287
    180  O         -5.5900   -6.5850  -33.9360 O.2   306  LEU306     -0.2864
    181  CB        -6.4030   -3.6240  -34.8110 C.3   306  LEU306      0.0297
    182  CG        -7.2970   -2.5410  -35.4350 C.3   306  LEU306      0.0022
    183  CD1       -6.4530   -1.5080  -36.1710 C.3   306  LEU306      0.0001
    184  CD2       -8.3140   -3.1660  -36.3790 C.3   306  LEU306      0.0001
@<TRIPOS>BOND
     1    82    81    2
     2    81    80    1
     3    80    79    1
     4    80    83    1
     5    99   100    1
     6    85    87   ar
     7    85    84   ar
     8    83    84    1
     9    87    89   ar
    10    84    86   ar
    11   100   103    1
    12   100   101    1
    13   103   104    1
    14    73    72    2
    15    89    90    1
    16    89    88   ar
    17    86    88   ar
    18    78    76   am
    19   101   102    2
    20    72    71    1
    21   106   104   ar
    22   106   108   ar
    23   104   105   ar
    24    75    76    1
    25    75    74    1
    26    94    93    2
    27    76    77    2
    28   108   109   ar
    29   137   135   am
    30   105   107   ar
    31    71    74    1
    32    71    70    1
    33    93    92    1
    34   157   156    2
    35   135   136    2
    36   135   134    1
    37   156   155    1
    38    70    65   am
    39   109   107   ar
    40    92    95    1
    41    92    91    1
    42   134   131    1
    43   110   111    1
    44    95    96    1
    45    47    46    2
    46   149   148    2
    47    63    64    1
    48    65    66    2
    49    65    64    1
    50   154   155    1
    51   155   158    1
    52   112   111    1
    53   112   113    2
    54    45    46    1
    55    45    48    1
    56    45    44    1
    57    46    49   am
    58   111   114    1
    59   159   158    1
    60   116   118   ar
    61   116   115   ar
    62    64    67    1
    63   148   147    1
    64   132   131    1
    65   132   133    2
    66   131   130    1
    67    69    67    1
    68    51    52    2
    69    51    50    1
    70    98    97    1
    71   158   160    1
    72   118   120   ar
    73    96    97    1
    74   146   147    1
    75   114   115    1
    76   130   124   am
    77    49    50    1
    78   115   117   ar
    79    67    68    1
    80   147   150    1
    81    50    53    1
    82   120   121    1
    83   120   119   ar
    84   150   152    1
    85   150   151    1
    86   122   123    1
    87   124   125    2
    88   124   123    1
    89   117   119   ar
    90    53    54    1
    91   151   153    1
    92   123   126    1
    93   126   127    1
    94   140   141    2
    95   140   139    1
    96    54    56   ar
    97    54    55   ar
    98    59    56   ar
    99    59    61   ar
   100   138   139    1
   101   127   128    1
   102   142   139    1
   103   142   143    1
   104    42    43   ar
   105    42    40   ar
   106    56    58   ar
   107    43    41   ar
   108    61    62   ar
   109   145   143    1
   110    55    57   ar
   111   143   144    1
   112    40    37   ar
   113    30    31    1
   114    31    32    1
   115    31    34    1
   116    32    33    2
   117    58    57   ar
   118    58    60   ar
   119    41    39   ar
   120   128   129    1
   121   184   182    1
   122    62    60   ar
   123    37    39   ar
   124    37    35   ar
   125   183   182    1
   126    39    38   ar
   127    35    34    1
   128    35    36   ar
   129   182   181    1
   130    38    36   ar
   131   171   170   ar
   132   171   169   ar
   133   170   168   ar
   134   181   178    1
   135   169   167   ar
   136   180   179    2
   137   178   179    1
   138   178   177    1
   139   168   166   ar
   140   175   174    2
   141    24    23    2
   142   177   174   am
   143    26    25    1
   144    26    27    1
   145   174   173    1
   146    22    23    1
   147    22    21    1
   148    22    25    1
   149   167   166   ar
   150   176   173    1
   151   166   165    1
   152     8     7    1
   153    27    29   am
   154    27    28    2
   155   173   172    1
   156     7     6    1
   157   165   162    1
   158   164   163    2
   159   163   162    1
   160    20    19    1
   161   162   161    1
   162     6     5    1
   163     1     2    1
   164    17    19   ar
   165    17    15   ar
   166    19    18   ar
   167     2     5    1
   168     2     3    1
   169    15    14   ar
   170    18    16   ar
   171     3     4    2
   172    14    16   ar
   173    14    13    1
   174    13    10    1
   175    12    11    2
   176    10    11    1
   177    10     9    1
