@<TRIPOS>MOLECULE
tmp/5f2oA00.pdb
 243 243 0 0 0
SMALL
GASTEIGER

@<TRIPOS>ATOM
      1  N        -10.5730  -13.9700  -37.5120 N.3     6  PRO6       -0.2102
      2  CA       -10.0740  -12.8500  -36.7110 C.3     6  PRO6        0.1504
      3  C        -10.2780  -13.0910  -35.2200 C.2     6  PRO6        0.2576
      4  O        -10.9880  -14.0210  -34.8390 O.2     6  PRO6       -0.2718
      5  CB       -10.9330  -11.6700  -37.1720 C.3     6  PRO6        0.0282
      6  CG       -12.1540  -12.2780  -37.7720 C.3     6  PRO6        0.0208
      7  CD       -11.7140  -13.5790  -38.3640 C.3     6  PRO6        0.0893
      8  N         -9.6580  -12.2550  -34.3900 N.am    7  ALA7       -0.1967
      9  CA        -9.8470  -12.3200  -32.9390 C.3     7  ALA7        0.1713
     10  C        -10.8750  -11.2920  -32.4650 C.2     7  ALA7        0.2458
     11  O        -11.0000  -10.2160  -33.0590 O.2     7  ALA7       -0.2730
     12  CB        -8.5240  -12.1010  -32.2130 C.3     7  ALA7        0.0333
     13  N        -11.5970  -11.6120  -31.3770 N.am    8  PRO8       -0.2716
     14  CA       -12.5540  -10.6660  -30.7900 C.3     8  PRO8        0.1536
     15  C        -11.8380   -9.4420  -30.2040 C.2     8  PRO8        0.2598
     16  O        -10.6070   -9.4130  -30.1730 O.2     8  PRO8       -0.2715
     17  CB       -13.2560  -11.4830  -29.6970 C.3     8  PRO8        0.0310
     18  CG       -12.4020  -12.6750  -29.4510 C.3     8  PRO8        0.0237
     19  CD       -11.5230  -12.8900  -30.6420 C.3     8  PRO8        0.0939
     20  N        -12.5910   -8.4330  -29.7680 N.am    9  MET9       -0.1978
     21  CA       -11.9860   -7.2190  -29.1990 C.3     9  MET9        0.1605
     22  C        -11.3330   -7.5470  -27.8560 C.2     9  MET9        0.2287
     23  O        -11.6740   -8.5570  -27.2230 O.2     9  MET9       -0.2864
     24  CB       -13.0340   -6.1120  -29.0040 C.3     9  MET9        0.0413
     25  CG       -14.0060   -5.9130  -30.1580 C.3     9  MET9        0.0598
     26  SD       -13.2650   -5.2620  -31.6670 S.3     9  MET9       -0.1393
     27  CE       -12.7890   -6.7500  -32.5480 C.3     9  MET9        0.0692
     28  N        -11.9460   -2.5840  -24.4490 N.3    14  TYR14      -0.1241
     29  CA       -12.8820   -2.1320  -25.4880 C.3    14  TYR14       0.1605
     30  C        -13.8900   -1.0700  -25.0090 C.2    14  TYR14       0.2264
     31  O        -14.1550   -0.0920  -25.7200 O.2    14  TYR14      -0.2867
     32  CB       -13.5890   -3.3040  -26.1810 C.3    14  TYR14       0.0534
     33  CG       -14.3310   -2.8370  -27.4140 C.ar   14  TYR14      -0.0201
     34  CD1      -13.6500   -2.6170  -28.6100 C.ar   14  TYR14      -0.0009
     35  CD2      -15.7000   -2.5630  -27.3670 C.ar   14  TYR14      -0.0009
     36  CE1      -14.3150   -2.1620  -29.7430 C.ar   14  TYR14       0.0417
     37  CE2      -16.3790   -2.1070  -28.4910 C.ar   14  TYR14       0.0417
     38  CZ       -15.6800   -1.9020  -29.6750 C.ar   14  TYR14       0.1957
     39  OH       -16.3360   -1.4410  -30.8000 O.3    14  TYR14      -0.2866
     40  N        -15.9790    4.5050  -32.3200 N.3    21  GLN21      -0.1245
     41  CA       -17.1180    3.6970  -32.7640 C.3    21  GLN21       0.1566
     42  C        -18.4530    4.3050  -32.3270 C.2    21  GLN21       0.2260
     43  O        -19.3780    4.4250  -33.1340 O.2    21  GLN21      -0.2867
     44  CB       -16.9930    2.2410  -32.2670 C.3    21  GLN21       0.0367
     45  CG       -15.8340    1.4390  -32.8660 C.3    21  GLN21       0.0905
     46  CD       -14.5400    1.5170  -32.0510 C.2    21  GLN21       0.2608
     47  OE1      -14.1930    2.5590  -31.4960 O.2    21  GLN21      -0.2717
     48  NE2      -13.8210    0.4080  -31.9880 N.am   21  GLN21      -0.0878
     49  N        -21.4840    5.6750  -34.9590 N.3    25  LEU25      -0.1245
     50  CA       -22.7670    4.9830  -35.1270 C.3    25  LEU25       0.1561
     51  C        -23.9560    5.8780  -34.7680 C.2    25  LEU25       0.2260
     52  O        -25.1110    5.5280  -35.0200 O.2    25  LEU25      -0.2867
     53  CB       -22.7940    3.6750  -34.3140 C.3    25  LEU25       0.0270
     54  CG       -22.6980    3.7380  -32.7850 C.3    25  LEU25       0.0019
     55  CD1      -24.0460    4.0330  -32.1460 C.3    25  LEU25       0.0001
     56  CD2      -22.1640    2.4160  -32.2570 C.3    25  LEU25       0.0001
     57  N        -28.8320   -7.7760  -31.7030 N.3    52  ASP52      -0.1225
     58  CA       -27.6520   -6.9220  -31.7790 C.3    52  ASP52       0.1805
     59  C        -26.4870   -7.7840  -32.2680 C.2    52  ASP52       0.2598
     60  O        -25.9200   -8.5680  -31.5100 O.2    52  ASP52      -0.2718
     61  CB       -27.3840   -6.3220  -30.3850 C.3    52  ASP52       0.1424
     62  CG       -26.0300   -5.6150  -30.2630 C.2    52  ASP52       0.3668
     63  OD1      -25.5110   -5.0660  -31.2520 O.co2  52  ASP52      -0.2456
     64  OD2      -25.5040   -5.5720  -29.1240 O.co2  52  ASP52      -0.2456
     65  N        -26.1580   -7.6500  -33.5490 N.am   53  TYR53      -0.1962
     66  CA       -25.2130   -8.5550  -34.2000 C.3    53  TYR53       0.1771
     67  C        -23.7970   -8.0000  -34.1050 C.2    53  TYR53       0.2620
     68  O        -23.4420   -7.0520  -34.8190 O.2    53  TYR53      -0.2715
     69  CB       -25.6010   -8.7890  -35.6750 C.3    53  TYR53       0.0574
     70  CG       -26.9740   -9.4140  -35.8410 C.ar   53  TYR53      -0.0198
     71  CD1      -27.1580  -10.7980  -35.7170 C.ar   53  TYR53      -0.0009
     72  CD2      -28.0870   -8.6190  -36.1150 C.ar   53  TYR53      -0.0009
     73  CE1      -28.4190  -11.3690  -35.8660 C.ar   53  TYR53       0.0417
     74  CE2      -29.3500   -9.1790  -36.2570 C.ar   53  TYR53       0.0417
     75  CZ       -29.5080  -10.5520  -36.1460 C.ar   53  TYR53       0.1957
     76  OH       -30.7750  -11.0880  -36.2990 O.3    53  TYR53      -0.2866
     77  N        -23.0060   -8.5840  -33.2090 N.am   54  GLY54      -0.1940
     78  CA       -21.6220   -8.1460  -32.9920 C.3    54  GLY54       0.2014
     79  C        -21.4890   -7.2440  -31.7830 C.2    54  GLY54       0.2639
     80  O        -21.0110   -6.1270  -31.8980 O.2    54  GLY54      -0.2714
     81  N        -21.8980   -7.7420  -30.6190 N.am   55  VAL55      -0.1963
     82  CA       -22.0040   -6.9280  -29.3910 C.3    55  VAL55       0.1727
     83  C        -20.6700   -6.5130  -28.7270 C.2    55  VAL55       0.2616
     84  O        -20.6090   -5.4800  -28.0510 O.2    55  VAL55      -0.2715
     85  CB       -22.9190   -7.6360  -28.3480 C.3    55  VAL55       0.0290
     86  CG1      -22.3860   -9.0200  -27.9880 C.3    55  VAL55       0.0023
     87  CG2      -23.1300   -6.7730  -27.1020 C.3    55  VAL55       0.0023
     88  N        -19.6210   -7.3150  -28.8990 N.am   56  ALA56      -0.1977
     89  CA       -18.4020   -7.1880  -28.0760 C.3    56  ALA56       0.1597
     90  C        -18.7570   -7.1360  -26.5750 C.2    56  ALA56       0.2287
     91  O        -19.4700   -8.0080  -26.0790 O.2    56  ALA56      -0.2864
     92  CB       -17.5850   -5.9630  -28.4900 C.3    56  ALA56       0.0319
     93  N        -21.2630   -0.1110  -26.4070 N.3    60  ASN60      -0.1225
     94  CA       -21.8630    0.7210  -27.4470 C.3    60  ASN60       0.1785
     95  C        -23.2530    0.2810  -27.8820 C.2    60  ASN60       0.2597
     96  O        -23.8350    0.8880  -28.7750 O.2    60  ASN60      -0.2718
     97  CB       -20.9480    0.8080  -28.6670 C.3    60  ASN60       0.1169
     98  CG       -19.7540    1.7150  -28.4350 C.2    60  ASN60       0.2627
     99  OD1      -19.7360    2.5220  -27.4950 O.2    60  ASN60      -0.2716
    100  ND2      -18.7470    1.5880  -29.2870 N.am   60  ASN60      -0.0877
    101  N        -23.7760   -0.7720  -27.2670 N.am   61  SER61      -0.1952
    102  CA       -25.1110   -1.2540  -27.6020 C.3    61  SER61       0.1924
    103  C        -26.2010   -0.5740  -26.7800 C.2    61  SER61       0.2314
    104  O        -27.3630   -0.5300  -27.1880 O.2    61  SER61      -0.2863
    105  CB       -25.1770   -2.7690  -27.4370 C.3    61  SER61       0.2116
    106  OG       -24.2660   -3.3870  -28.3320 O.3    61  SER61      -0.2180
    107  N        -25.3670  -10.8030  -30.0070 N.3    87  THR87      -0.1203
    108  CA       -24.6530  -11.9150  -30.6420 C.3    87  THR87       0.1994
    109  C        -23.1920  -11.5610  -30.8820 C.2    87  THR87       0.2618
    110  O        -22.8600  -10.4080  -31.1220 O.2    87  THR87      -0.2717
    111  CB       -25.3310  -12.4410  -31.9430 C.3    87  THR87       0.1784
    112  OG1      -24.8070  -11.7750  -33.0980 O.3    87  THR87      -0.2211
    113  CG2      -26.8440  -12.2740  -31.8980 C.3    87  THR87       0.0376
    114  N        -22.3320  -12.5660  -30.7890 N.am   88  ASP88      -0.1959
    115  CA       -20.9300  -12.4080  -31.1500 C.3    88  ASP88       0.1840
    116  C        -20.3480  -13.7730  -31.4690 C.2    88  ASP88       0.2621
    117  O        -21.0920  -14.7480  -31.6130 O.2    88  ASP88      -0.2715
    118  CB       -20.1520  -11.7060  -30.0290 C.3    88  ASP88       0.1450
    119  CG       -19.0280  -10.8330  -30.5650 C.2    88  ASP88       0.3671
    120  OD1      -17.9910  -11.3950  -30.9770 O.co2  88  ASP88      -0.2456
    121  OD2      -19.1820   -9.5910  -30.5780 O.co2  88  ASP88      -0.2456
    122  N        -19.0280  -13.8510  -31.5950 N.am   89  VAL89      -0.1977
    123  CA       -18.3620  -15.1300  -31.7980 C.3    89  VAL89       0.1596
    124  C        -18.2360  -15.8460  -30.4480 C.2    89  VAL89       0.2287
    125  O        -18.3250  -15.1930  -29.3970 O.2    89  VAL89      -0.2864
    126  CB       -16.9850  -14.9620  -32.4730 C.3    89  VAL89       0.0276
    127  CG1      -17.1650  -14.4050  -33.8830 C.3    89  VAL89       0.0022
    128  CG2      -16.0660  -14.0650  -31.6530 C.3    89  VAL89       0.0022
    129  N        -15.8600  -14.3740  -27.7920 N.3    92  ASN92      -0.1240
    130  CA       -16.1290  -13.0650  -27.1960 C.3    92  ASN92       0.1653
    131  C        -16.2100  -13.2320  -25.6720 C.2    92  ASN92       0.2266
    132  O        -16.5620  -14.3090  -25.1790 O.2    92  ASN92      -0.2867
    133  CB       -17.4470  -12.4900  -27.7250 C.3    92  ASN92       0.1155
    134  CG       -17.7460  -11.1020  -27.1770 C.2    92  ASN92       0.2627
    135  OD1      -16.8940  -10.2200  -27.2010 O.2    92  ASN92      -0.2716
    136  ND2      -18.9650  -10.9040  -26.6910 N.am   92  ASN92      -0.0877
    137  N        -22.3470  -17.5470  -31.5630 N.3   122  ARG122     -0.1231
    138  CA       -22.2070  -18.2990  -32.8070 C.3   122  ARG122      0.1694
    139  C        -22.0810  -17.2910  -33.9380 C.2   122  ARG122      0.2593
    140  O        -22.8550  -16.3450  -33.9930 O.2   122  ARG122     -0.2718
    141  CB       -23.4470  -19.1510  -33.0800 C.3   122  ARG122      0.0321
    142  CG       -23.9210  -20.0270  -31.9280 C.3   122  ARG122      0.0489
    143  CD       -25.2900  -20.6120  -32.2410 C.3   122  ARG122      0.2205
    144  NE       -25.2150  -21.6250  -33.2930 N.pl3 122  ARG122     -0.0865
    145  CZ       -26.2550  -22.0540  -34.0020 C.cat 122  ARG122      0.5346
    146  NH1      -27.4710  -21.5630  -33.7880 N.pl3 122  ARG122      0.1354
    147  NH2      -26.0720  -22.9790  -34.9360 N.pl3 122  ARG122      0.1354
    148  N        -21.1390  -17.5130  -34.8510 N.am  123  SER123     -0.1938
    149  CA       -20.9010  -16.5820  -35.9610 C.3   123  SER123      0.2055
    150  C        -22.1820  -16.1340  -36.6610 C.2   123  SER123      0.2643
    151  O        -23.0090  -16.9710  -37.0340 O.2   123  SER123     -0.2714
    152  CB       -19.9770  -17.2110  -37.0040 C.3   123  SER123      0.2130
    153  OG       -19.8890  -16.3550  -38.1290 O.3   123  SER123     -0.2179
    154  N        -22.3340  -14.8260  -36.8710 N.am  124  PHE124     -0.1959
    155  CA       -23.5190  -14.3330  -37.5700 C.3   124  PHE124      0.1771
    156  C        -23.4940  -14.5680  -39.0920 C.2   124  PHE124      0.2619
    157  O        -24.3900  -14.1210  -39.8130 O.2   124  PHE124     -0.2715
    158  CB       -23.9070  -12.8910  -37.1830 C.3   124  PHE124      0.0574
    159  CG       -22.8220  -11.8550  -37.3720 C.ar  124  PHE124     -0.0200
    160  CD1      -22.0480  -11.8010  -38.5350 C.ar  124  PHE124     -0.0042
    161  CD2      -22.6290  -10.8780  -36.3950 C.ar  124  PHE124     -0.0042
    162  CE1      -21.0690  -10.8280  -38.6910 C.ar  124  PHE124     -0.0003
    163  CE2      -21.6560   -9.8940  -36.5520 C.ar  124  PHE124     -0.0003
    164  CZ       -20.8790   -9.8710  -37.7050 C.ar  124  PHE124     -0.0000
    165  N        -22.4780  -15.2800  -39.5720 N.am  125  TYR125     -0.1974
    166  CA       -22.4710  -15.7100  -40.9800 C.3   125  TYR125      0.1639
    167  C        -23.2210  -17.0200  -41.1830 C.2   125  TYR125      0.2290
    168  O        -23.1480  -17.6440  -42.2500 O.2   125  TYR125     -0.2864
    169  CB       -21.0480  -15.7640  -41.5300 C.3   125  TYR125      0.0560
    170  CG       -20.4240  -14.3950  -41.6030 C.ar  125  TYR125     -0.0198
    171  CD1      -21.0340  -13.3770  -42.3310 C.ar  125  TYR125     -0.0009
    172  CD2      -19.2310  -14.1150  -40.9410 C.ar  125  TYR125     -0.0009
    173  CE1      -20.4740  -12.1180  -42.4020 C.ar  125  TYR125      0.0417
    174  CE2      -18.6580  -12.8550  -41.0060 C.ar  125  TYR125      0.0417
    175  CZ       -19.2850  -11.8620  -41.7410 C.ar  125  TYR125      0.1957
    176  OH       -18.7360  -10.6080  -41.8090 O.3   125  TYR125     -0.2866
    177  N        -29.8740   -4.8490  -35.3270 N.3   138  TRP138     -0.1241
    178  CA       -28.9170   -3.7670  -35.2500 C.3   138  TRP138      0.1605
    179  C        -27.5480   -4.4080  -35.4080 C.2   138  TRP138      0.2264
    180  O        -27.2720   -5.4440  -34.8030 O.2   138  TRP138     -0.2867
    181  CB       -29.0010   -3.0690  -33.8820 C.3   138  TRP138      0.0550
    182  CG       -27.8100   -2.1770  -33.5890 C.ar  138  TRP138      0.0003
    183  CD1      -26.6380   -2.5480  -32.9690 C.ar  138  TRP138      0.0946
    184  CD2      -27.6690   -0.7880  -33.9130 C.ar  138  TRP138      0.0152
    185  NE1      -25.7810   -1.4820  -32.9020 N.ar  138  TRP138     -0.2442
    186  CE2      -26.3820   -0.3850  -33.4680 C.ar  138  TRP138      0.0810
    187  CE3      -28.4950    0.1570  -34.5450 C.ar  138  TRP138      0.0012
    188  CZ2      -25.9060    0.9300  -33.6210 C.ar  138  TRP138      0.0191
    189  CZ3      -28.0210    1.4700  -34.7070 C.ar  138  TRP138      0.0001
    190  CH2      -26.7320    1.8420  -34.2380 C.ar  138  TRP138      0.0015
    191  N        -23.5510   -2.7550  -35.6640 N.3   140  SER140     -0.1202
    192  CA       -22.5980   -1.6640  -35.8660 C.3   140  SER140      0.2020
    193  C        -21.1600   -2.1370  -35.7430 C.2   140  SER140      0.2619
    194  O        -20.8250   -2.8690  -34.8040 O.2   140  SER140     -0.2717
    195  CB       -22.8560   -0.4930  -34.8970 C.3   140  SER140      0.2103
    196  OG       -22.8650   -0.9280  -33.5420 O.3   140  SER140     -0.2182
    197  N        -20.3390   -1.7400  -36.7190 N.am  141  TRP141     -0.1961
    198  CA       -18.8890   -1.9600  -36.6930 C.3   141  TRP141      0.1771
    199  C        -18.4920   -3.4410  -36.6150 C.2   141  TRP141      0.2619
    200  O        -17.4310   -3.7700  -36.0610 O.2   141  TRP141     -0.2715
    201  CB       -18.2980   -1.2370  -35.4780 C.3   141  TRP141      0.0590
    202  CG       -18.2790    0.2620  -35.5520 C.ar  141  TRP141      0.0006
    203  CD1      -19.1420    1.1250  -34.9410 C.ar  141  TRP141      0.0946
    204  CD2      -17.3150    1.0730  -36.2360 C.ar  141  TRP141      0.0152
    205  NE1      -18.7850    2.4260  -35.2170 N.ar  141  TRP141     -0.2442
    206  CE2      -17.6590    2.4190  -36.0000 C.ar  141  TRP141      0.0810
    207  CE3      -16.1890    0.7880  -37.0190 C.ar  141  TRP141      0.0012
    208  CZ2      -16.9170    3.4900  -36.5300 C.ar  141  TRP141      0.0191
    209  CZ3      -15.4450    1.8530  -37.5390 C.ar  141  TRP141      0.0001
    210  CH2      -15.8150    3.1820  -37.2890 C.ar  141  TRP141      0.0015
    211  N        -19.3380   -4.3230  -37.1510 N.am  142  ALA142     -0.1977
    212  CA       -19.1400   -5.7630  -37.0220 C.3   142  ALA142      0.1597
    213  C        -18.9380   -6.4730  -38.3550 C.2   142  ALA142      0.2287
    214  O        -18.0470   -7.3150  -38.4700 O.2   142  ALA142     -0.2864
    215  CB       -20.2950   -6.4060  -36.2500 C.3   142  ALA142      0.0319
    216  N        -15.6540   -7.2410  -40.4290 N.3   145  TRP145     -0.1227
    217  CA       -14.8080   -8.3920  -40.1520 C.3   145  TRP145      0.1737
    218  C        -15.1780   -9.5650  -41.0460 C.2   145  TRP145      0.2595
    219  O        -16.3020  -10.0780  -41.0050 O.2   145  TRP145     -0.2718
    220  CB       -14.8970   -8.7910  -38.6710 C.3   145  TRP145      0.0564
    221  CG       -14.2850   -7.7550  -37.7770 C.ar  145  TRP145      0.0003
    222  CD1      -14.9240   -6.7250  -37.1520 C.ar  145  TRP145      0.0946
    223  CD2      -12.9010   -7.6440  -37.4330 C.ar  145  TRP145      0.0152
    224  NE1      -14.0170   -5.9740  -36.4270 N.ar  145  TRP145     -0.2442
    225  CE2      -12.7680   -6.5180  -36.5890 C.ar  145  TRP145      0.0810
    226  CE3      -11.7580   -8.3890  -37.7570 C.ar  145  TRP145      0.0012
    227  CZ2      -11.5360   -6.1260  -36.0520 C.ar  145  TRP145      0.0191
    228  CZ3      -10.5260   -7.9960  -37.2160 C.ar  145  TRP145      0.0001
    229  CH2      -10.4360   -6.8720  -36.3740 C.ar  145  TRP145      0.0015
    230  N        -14.2200   -9.9820  -41.8620 N.am  146  LEU146     -0.1966
    231  CA       -14.3690  -11.1770  -42.6800 C.3   146  LEU146      0.1728
    232  C        -14.5740  -12.4160  -41.8210 C.2   146  LEU146      0.2616
    233  O        -14.0630  -12.4920  -40.6970 O.2   146  LEU146     -0.2715
    234  CB       -13.1270  -11.3800  -43.5480 C.3   146  LEU146      0.0311
    235  CG       -12.8190  -10.3590  -44.6430 C.3   146  LEU146      0.0022
    236  CD1      -11.6030  -10.8460  -45.4140 C.3   146  LEU146      0.0001
    237  CD2      -14.0010  -10.1520  -45.5830 C.3   146  LEU146      0.0001
    238  N        -15.3030  -13.3900  -42.3670 N.am  147  SER147     -0.1950
    239  CA       -15.4910  -14.6900  -41.6980 C.3   147  SER147      0.1924
    240  C        -14.1560  -15.4110  -41.4890 C.2   147  SER147      0.2314
    241  O        -14.0220  -16.2460  -40.5940 O.2   147  SER147     -0.2863
    242  CB       -16.4410  -15.5760  -42.5110 C.3   147  SER147      0.2116
    243  OG       -15.9680  -15.7460  -43.8390 O.3   147  SER147     -0.2180
@<TRIPOS>BOND
     1   237   235    1
     2   236   235    1
     3   235   234    1
     4   243   242    1
     5   234   231    1
     6   231   230    1
     7   231   232    1
     8   242   239    1
     9   173   171   ar
    10   173   175   ar
    11   238   232   am
    12   238   239    1
    13   171   170   ar
    14   168   167    2
    15   230   218   am
    16   232   233    2
    17   176   175    1
    18   175   174   ar
    19   239   240    1
    20   170   169    1
    21   170   172   ar
    22   169   166    1
    23   240   241    2
    24   167   166    1
    25   218   219    2
    26   218   217    1
    27   174   172   ar
    28   166   165    1
    29   216   217    1
    30   217   220    1
    31   157   156    2
    32   165   156   am
    33   156   155    1
    34   162   160   ar
    35   162   164   ar
    36   220   221    1
    37   160   159   ar
    38   214   213    2
    39     7     6    1
    40     7     1    1
    41   213   212    1
    42   153   152    1
    43   221   223   ar
    44   221   222   ar
    45     6     5    1
    46   226   223   ar
    47   226   228   ar
    48   164   163   ar
    49   155   158    1
    50   155   154    1
    51   209   210   ar
    52   209   207   ar
    53     1     2    1
    54   223   225   ar
    55   159   158    1
    56   159   161   ar
    57   210   208   ar
    58   228   229   ar
    59     5     2    1
    60   222   224   ar
    61   211   212    1
    62   211   199   am
    63   151   150    2
    64   212   215    1
    65   207   204   ar
    66   152   149    1
    67   154   150   am
    68   197   198    1
    69   197   193   am
    70     2     3    1
    71   198   199    1
    72   198   201    1
    73   150   149    1
    74   199   200    2
    75   225   224   ar
    76   225   227   ar
    77   163   161   ar
    78   208   206   ar
    79   229   227   ar
    80    76    75    1
    81    74    75   ar
    82    74    72   ar
    83   204   206   ar
    84   204   202   ar
    85    75    73   ar
    86    72    70   ar
    87   206   205   ar
    88   149   148    1
    89    73    71   ar
    90   192   193    1
    91   192   191    1
    92   192   195    1
    93    70    71   ar
    94    70    69    1
    95   193   194    2
    96    69    66    1
    97   202   201    1
    98   202   203   ar
    99   179   178    1
   100   179   180    2
   101   177   178    1
   102   178   181    1
   103     3     4    2
   104     3     8   am
   105   205   203   ar
   106    50    49    1
   107    50    51    1
   108    50    53    1
   109    52    51    2
   110   147   145    1
   111   195   196    1
   112   148   139   am
   113    68    67    2
   114   189   187   ar
   115   189   190   ar
   116   187   184   ar
   117     8     9    1
   118    53    54    1
   119   190   188   ar
   120    66    67    1
   121    66    65    1
   122    67    77   am
   123   145   146    1
   124   145   144    2
   125   140   139    2
   126   139   138    1
   127   184   182   ar
   128   184   186   ar
   129   127   126    1
   130   181   182    1
   131   188   186   ar
   132   182   183   ar
   133    65    59   am
   134   186   185   ar
   135   144   143    1
   136    77    78    1
   137    43    42    2
   138   112   111    1
   139   141   138    1
   140   141   142    1
   141    11    10    2
   142    78    79    1
   143   183   185   ar
   144     9    10    1
   145     9    12    1
   146    45    44    1
   147    45    46    1
   148   138   137    1
   149    54    56    1
   150    54    55    1
   151    41    42    1
   152    41    40    1
   153    41    44    1
   154    27    26    1
   155   126   123    1
   156   126   128    1
   157    10    13   am
   158    59    58    1
   159    59    60    2
   160   143   142    1
   161    46    48   am
   162    46    47    2
   163   111   113    1
   164   111   108    1
   165    80    79    2
   166   123   122    1
   167   123   124    1
   168    79    81   am
   169    58    57    1
   170    58    61    1
   171    26    25    1
   172   117   116    2
   173   122   116   am
   174   116   115    1
   175    13    14    1
   176    13    19    1
   177    63    62   ar
   178   115   114    1
   179   115   118    1
   180   110   109    2
   181   120   119   ar
   182   109   114   am
   183   109   108    1
   184    39    38    1
   185    14    15    1
   186    14    17    1
   187   108   107    1
   188    19    18    1
   189    81    82    1
   190   121   119   ar
   191   119   118    1
   192   124   125    2
   193    61    62    1
   194    62    64   ar
   195    15    16    2
   196    15    20   am
   197    25    24    1
   198    20    21    1
   199    36    38   ar
   200    36    34   ar
   201    17    18    1
   202    38    37   ar
   203    82    83    1
   204    82    85    1
   205   100    98   am
   206    21    24    1
   207    21    22    1
   208    88    83   am
   209    88    89    1
   210    96    95    2
   211    83    84    2
   212    97    98    1
   213    97    94    1
   214    34    33   ar
   215    37    35   ar
   216    92    89    1
   217    98    99    2
   218    85    86    1
   219    85    87    1
   220   106   105    1
   221    89    90    1
   222    95    94    1
   223    95   101   am
   224    22    23    2
   225   129   130    1
   226   133   130    1
   227   133   134    1
   228   102   105    1
   229   102   101    1
   230   102   103    1
   231    94    93    1
   232    33    35   ar
   233    33    32    1
   234   135   134    2
   235   130   131    1
   236   104   103    2
   237   134   136   am
   238    90    91    2
   239    32    29    1
   240    31    30    2
   241   131   132    2
   242    29    30    1
   243    29    28    1
