@<TRIPOS>MOLECULE
tmp/5f2pA00.pdb
 109 108 0 0 0
SMALL
GASTEIGER

@<TRIPOS>ATOM
      1  N        -27.6970    1.6320  -12.7460 N.3    23  PHE23      -0.1227
      2  CA       -26.8520    0.5330  -12.2590 C.3    23  PHE23       0.1736
      3  C        -26.0290    0.9520  -11.0400 C.2    23  PHE23       0.2595
      4  O        -25.7520    0.1180  -10.1830 O.2    23  PHE23      -0.2718
      5  CB       -25.9120    0.0040  -13.3610 C.3    23  PHE23       0.0547
      6  CG       -26.5540   -0.6150  -14.5830 C.ar   23  PHE23      -0.0202
      7  CD1      -27.5710   -1.5540  -14.4570 C.ar   23  PHE23      -0.0042
      8  CD2      -26.0870   -0.3190  -15.8580 C.ar   23  PHE23      -0.0042
      9  CE1      -28.1510   -2.1370  -15.5920 C.ar   23  PHE23      -0.0003
     10  CE2      -26.6610   -0.9070  -16.9900 C.ar   23  PHE23      -0.0003
     11  CZ       -27.6870   -1.8130  -16.8500 C.ar   23  PHE23      -0.0000
     12  N        -25.6470    2.2400  -10.9640 N.am   24  PHE24      -0.1976
     13  CA       -24.8290    2.7880   -9.8810 C.3    24  PHE24       0.1639
     14  C        -25.6150    3.6560   -8.8820 C.2    24  PHE24       0.2290
     15  O        -25.0110    4.2950   -8.0190 O.2    24  PHE24      -0.2864
     16  CB       -23.6430    3.5670  -10.4740 C.3    24  PHE24       0.0560
     17  CG       -22.7060    2.7250  -11.3080 C.ar   24  PHE24      -0.0200
     18  CD1      -21.7440    1.9210  -10.7060 C.ar   24  PHE24      -0.0042
     19  CD2      -22.7760    2.7440  -12.6950 C.ar   24  PHE24      -0.0042
     20  CE1      -20.8770    1.1400  -11.4790 C.ar   24  PHE24      -0.0003
     21  CE2      -21.9060    1.9620  -13.4680 C.ar   24  PHE24      -0.0003
     22  CZ       -20.9660    1.1620  -12.8550 C.ar   24  PHE24      -0.0000
     23  N        -27.8430    2.6410   -6.4790 N.3    26  PHE26      -0.1241
     24  CA       -28.0650    1.9200   -5.2200 C.3    26  PHE26       0.1605
     25  C        -26.8760    1.0320   -4.7720 C.2    26  PHE26       0.2264
     26  O        -26.1660    0.5420   -5.6490 O.2    26  PHE26      -0.2867
     27  CB       -29.3180    1.0250   -5.4100 C.3    26  PHE26       0.0534
     28  CG       -29.1900   -0.0320   -6.4960 C.ar   26  PHE26      -0.0203
     29  CD1      -28.8690   -1.3470   -6.1770 C.ar   26  PHE26      -0.0042
     30  CD2      -29.3840    0.2910   -7.8360 C.ar   26  PHE26      -0.0042
     31  CE1      -28.7270   -2.3150   -7.1770 C.ar   26  PHE26      -0.0003
     32  CE2      -29.2390   -0.6790   -8.8360 C.ar   26  PHE26      -0.0003
     33  CZ       -28.9170   -1.9760   -8.4990 C.ar   26  PHE26      -0.0000
     34  N        -24.7630   -2.3300   -4.0000 N.3    28  VAL28      -0.1245
     35  CA       -24.8660   -3.6800   -4.5570 C.3    28  VAL28       0.1561
     36  C        -24.9930   -4.6930   -3.4100 C.2    28  VAL28       0.2260
     37  O        -24.1100   -4.7580   -2.5570 O.2    28  VAL28      -0.2867
     38  CB       -23.6830   -4.0220   -5.5080 C.3    28  VAL28       0.0252
     39  CG1      -23.9140   -5.3530   -6.2140 C.3    28  VAL28       0.0019
     40  CG2      -23.4440   -2.9130   -6.5290 C.3    28  VAL28       0.0019
     41  N        -28.2980   -9.7140   -5.1750 N.3    32  ILE32      -0.1231
     42  CA       -28.2030   -9.2510   -6.5590 C.3    32  ILE32       0.1692
     43  C        -26.8950   -9.7570   -7.1970 C.2    32  ILE32       0.2592
     44  O        -26.9380  -10.3160   -8.2940 O.2    32  ILE32      -0.2718
     45  CB       -28.4250   -7.7080   -6.6460 C.3    32  ILE32       0.0266
     46  CG1      -29.9420   -7.3850   -6.5210 C.3    32  ILE32       0.0019
     47  CG2      -27.8210   -7.0950   -7.9280 C.3    32  ILE32       0.0020
     48  CD1      -30.3440   -5.9020   -6.3400 C.3    32  ILE32       0.0001
     49  N        -25.7530   -9.6090   -6.4960 N.am   33  ALA33      -0.1966
     50  CA       -24.4540  -10.0690   -6.9890 C.3    33  ALA33       0.1713
     51  C        -23.7760  -11.0350   -5.9880 C.2    33  ALA33       0.2458
     52  O        -23.3140  -10.5860   -4.9380 O.2    33  ALA33      -0.2730
     53  CB       -23.5570   -8.8790   -7.2950 C.3    33  ALA33       0.0333
     54  N        -23.7300  -12.3620   -6.2850 N.am   34  PRO34      -0.2727
     55  CA       -23.1340  -13.3250   -5.3350 C.3    34  PRO34       0.1402
     56  C        -21.6620  -13.0940   -4.9910 C.2    34  PRO34       0.2269
     57  O        -20.8380  -12.8610   -5.8780 O.2    34  PRO34      -0.2865
     58  CB       -23.3510  -14.6820   -6.0180 C.3    34  PRO34       0.0296
     59  CG       -24.4710  -14.4550   -6.9720 C.3    34  PRO34       0.0237
     60  CD       -24.2750  -13.0580   -7.4660 C.3    34  PRO34       0.0939
     61  N        -20.3510  -10.5360   -3.4630 N.3    36  TYR36      -0.1241
     62  CA       -19.9780   -9.1230   -3.5830 C.3    36  TYR36       0.1605
     63  C        -19.2950   -8.5610   -2.3320 C.2    36  TYR36       0.2264
     64  O        -18.2540   -7.9170   -2.4610 O.2    36  TYR36      -0.2867
     65  CB       -21.1800   -8.2460   -3.9910 C.3    36  TYR36       0.0534
     66  CG       -20.7700   -6.8700   -4.4660 C.ar   36  TYR36      -0.0201
     67  CD1      -20.4040   -6.6490   -5.7900 C.ar   36  TYR36      -0.0009
     68  CD2      -20.7220   -5.7930   -3.5860 C.ar   36  TYR36      -0.0009
     69  CE1      -20.0020   -5.3890   -6.2290 C.ar   36  TYR36       0.0417
     70  CE2      -20.3160   -4.5290   -4.0110 C.ar   36  TYR36       0.0417
     71  CZ       -19.9650   -4.3300   -5.3360 C.ar   36  TYR36       0.1957
     72  OH       -19.5690   -3.0900   -5.7670 O.3    36  TYR36      -0.2866
     73  N        -16.7150   -1.7510   -9.4750 N.3    75  ALA75      -0.1245
     74  CA       -17.4100   -2.3970  -10.5900 C.3    75  ALA75       0.1562
     75  C        -16.4320   -3.0860  -11.5380 C.2    75  ALA75       0.2260
     76  O        -16.7510   -4.1410  -12.0780 O.2    75  ALA75      -0.2867
     77  CB       -18.2500   -1.3840  -11.3400 C.3    75  ALA75       0.0290
     78  N        -15.0370   -6.3730   -9.3700 N.3    78  TYR78      -0.1227
     79  CA       -15.9990   -7.4680   -9.2330 C.3    78  TYR78       0.1736
     80  C        -16.4240   -8.0830  -10.5730 C.2    78  TYR78       0.2595
     81  O        -16.4880   -9.3100  -10.6910 O.2    78  TYR78      -0.2718
     82  CB       -17.2240   -7.0230   -8.4050 C.3    78  TYR78       0.0548
     83  CG       -18.2880   -8.0890   -8.2870 C.ar   78  TYR78      -0.0200
     84  CD1      -18.1760   -9.1110   -7.3500 C.ar   78  TYR78      -0.0009
     85  CD2      -19.3890   -8.0970   -9.1370 C.ar   78  TYR78      -0.0009
     86  CE1      -19.1370  -10.1150   -7.2580 C.ar   78  TYR78       0.0417
     87  CE2      -20.3500   -9.1030   -9.0640 C.ar   78  TYR78       0.0417
     88  CZ       -20.2250  -10.1040   -8.1160 C.ar   78  TYR78       0.1957
     89  OH       -21.1770  -11.0870   -8.0310 O.3    78  TYR78      -0.2866
     90  N        -16.7700   -7.2320  -11.5500 N.am   79  ASN79      -0.1974
     91  CA       -17.2660   -7.6550  -12.8580 C.3    79  ASN79       0.1688
     92  C        -16.1690   -7.8650  -13.8850 C.2    79  ASN79       0.2292
     93  O        -15.2450   -7.0570  -13.9660 O.2    79  ASN79      -0.2864
     94  CB       -18.2920   -6.6550  -13.3860 C.3    79  ASN79       0.1181
     95  CG       -19.4190   -6.3960  -12.4230 C.2    79  ASN79       0.2629
     96  OD1      -20.3140   -7.2230  -12.2510 O.2    79  ASN79      -0.2716
     97  ND2      -19.3780   -5.2550  -11.7500 N.am   79  ASN79      -0.0877
     98  N        -21.6300   -3.8000  -16.6820 N.3    85  TYR85      -0.1241
     99  CA       -21.2180   -3.0870  -15.4730 C.3    85  TYR85       0.1605
    100  C        -19.7840   -2.5890  -15.5520 C.2    85  TYR85       0.2264
    101  O        -19.5380   -1.4320  -15.2200 O.2    85  TYR85      -0.2867
    102  CB       -21.4620   -3.9430  -14.2160 C.3    85  TYR85       0.0534
    103  CG       -22.8430   -4.5610  -14.1700 C.ar   85  TYR85      -0.0201
    104  CD1      -23.9810   -3.7660  -14.0350 C.ar   85  TYR85      -0.0009
    105  CD2      -23.0150   -5.9380  -14.2770 C.ar   85  TYR85      -0.0009
    106  CE1      -25.2570   -4.3250  -14.0310 C.ar   85  TYR85       0.0417
    107  CE2      -24.2870   -6.5120  -14.2540 C.ar   85  TYR85       0.0417
    108  CZ       -25.4050   -5.7010  -14.1250 C.ar   85  TYR85       0.1957
    109  OH       -26.6590   -6.2610  -14.1000 O.3    85  TYR85      -0.2866
@<TRIPOS>BOND
     1    10    11   ar
     2    10     8   ar
     3    11     9   ar
     4    98    99    1
     5     8     6   ar
     6     9     7   ar
     7   100    99    1
     8   100   101    2
     9    99   102    1
    10     6     7   ar
    11     6     5    1
    12   105   107   ar
    13   105   103   ar
    14   107   108   ar
    15   102   103    1
    16   103   104   ar
    17   108   109    1
    18   108   106   ar
    19   104   106   ar
    20    93    92    2
    21    92    91    1
    22    21    22   ar
    23    21    19   ar
    24    94    91    1
    25    94    95    1
    26     5     2    1
    27    91    90    1
    28    22    20   ar
    29     1     2    1
    30    19    17   ar
    31    95    96    2
    32    95    97   am
    33     2     3    1
    34    76    75    2
    35    90    80   am
    36    75    74    1
    37    20    18   ar
    38    77    74    1
    39    17    18   ar
    40    17    16    1
    41     3    12   am
    42     3     4    2
    43    12    13    1
    44    81    80    2
    45    74    73    1
    46    80    79    1
    47    16    13    1
    48    13    14    1
    49    78    79    1
    50    79    82    1
    51    85    87   ar
    52    85    83   ar
    53    87    88   ar
    54    14    15    2
    55    32    33   ar
    56    32    30   ar
    57    33    31   ar
    58    82    83    1
    59    44    43    2
    60    83    84   ar
    61    88    89    1
    62    88    86   ar
    63    47    45    1
    64    30    28   ar
    65    60    59    1
    66    60    54    1
    67    84    86   ar
    68    53    50    1
    69    43    42    1
    70    43    49   am
    71    31    29   ar
    72    50    49    1
    73    50    51    1
    74    59    58    1
    75    45    42    1
    76    45    46    1
    77    42    41    1
    78    40    38    1
    79    46    48    1
    80    28    29   ar
    81    28    27    1
    82    23    24    1
    83    54    51   am
    84    54    55    1
    85    69    67   ar
    86    69    71   ar
    87    39    38    1
    88    58    55    1
    89    51    52    2
    90    57    56    2
    91    67    66   ar
    92    72    71    1
    93    26    25    2
    94    38    35    1
    95    27    24    1
    96    71    70   ar
    97    55    56    1
    98    24    25    1
    99    35    34    1
   100    35    36    1
   101    66    65    1
   102    66    68   ar
   103    70    68   ar
   104    65    62    1
   105    62    61    1
   106    62    63    1
   107    36    37    2
   108    64    63    2
