@<TRIPOS>MOLECULE
tmp/5f2rB00.pdb
 211 195 0 0 0
SMALL
GASTEIGER

@<TRIPOS>ATOM
      1  N          9.8340  -10.8800  -37.9770 N.3     8  ASP8       -0.1239
      2  CA         8.5220  -11.4550  -38.0370 C.3     8  ASP8        0.1674
      3  C          8.2040  -11.5470  -39.5160 C.2     8  ASP8        0.2266
      4  O          8.0800  -10.5320  -40.1840 O.2     8  ASP8       -0.2867
      5  CB         7.5280  -10.5650  -37.2920 C.3     8  ASP8        0.1410
      6  CG         6.0800  -10.9320  -37.5390 C.2     8  ASP8        0.3668
      7  OD1        5.7930  -11.9850  -38.1810 O.co2   8  ASP8       -0.2456
      8  OD2        5.2040  -10.1360  -37.1020 O.co2   8  ASP8       -0.2456
      9  N          5.4570  -12.1850  -41.6440 N.3    10  GLY10      -0.1210
     10  CA         4.0050  -12.2330  -41.5350 C.3    10  GLY10       0.1956
     11  C          3.2850  -12.5830  -42.8480 C.2    10  GLY10       0.2613
     12  O          3.7950  -12.3630  -43.9460 O.2    10  GLY10      -0.2717
     13  N          2.0840  -13.1300  -42.6940 N.am   11  THR11      -0.1938
     14  CA         1.2340  -13.4760  -43.8040 C.3    11  THR11       0.2028
     15  C          0.9550  -12.2260  -44.6140 C.2    11  THR11       0.2643
     16  O          0.9960  -12.2640  -45.8340 O.2    11  THR11      -0.2714
     17  CB        -0.1070  -14.0670  -43.3010 C.3    11  THR11       0.1808
     18  OG1        0.1540  -15.2040  -42.5010 O.3    11  THR11      -0.2208
     19  CG2       -0.9970  -14.4630  -44.4610 C.3    11  THR11       0.0379
     20  N          0.6730  -11.1260  -43.9060 N.am   12  THR12      -0.1936
     21  CA         0.2120   -9.8960  -44.4930 C.3    12  THR12       0.2028
     22  C          1.2650   -8.7860  -44.2770 C.2    12  THR12       0.2642
     23  O          1.5640   -8.0850  -45.1950 O.2    12  THR12      -0.2714
     24  CB        -1.2030   -9.5480  -43.9320 C.3    12  THR12       0.1808
     25  OG1       -1.0870   -9.1030  -42.5950 O.3    12  THR12      -0.2208
     26  CG2       -2.1060  -10.7970  -43.9170 C.3    12  THR12       0.0379
     27  N          1.8380   -8.6640  -43.0660 N.am   13  TYR13      -0.1973
     28  CA         2.8820   -7.6350  -42.7440 C.3    13  TYR13       0.1639
     29  C          4.0420   -8.2260  -41.9620 C.2    13  TYR13       0.2290
     30  O          3.8490   -8.9280  -41.0090 O.2    13  TYR13      -0.2864
     31  CB         2.3150   -6.4810  -41.9150 C.3    13  TYR13       0.0560
     32  CG         1.4040   -5.5420  -42.6580 C.ar   13  TYR13      -0.0198
     33  CD1        0.0440   -5.8110  -42.7720 C.ar   13  TYR13      -0.0009
     34  CD2        1.8990   -4.3940  -43.2450 C.ar   13  TYR13      -0.0009
     35  CE1       -0.8130   -4.9540  -43.4710 C.ar   13  TYR13       0.0417
     36  CE2        1.0580   -3.5210  -43.9280 C.ar   13  TYR13       0.0417
     37  CZ        -0.2940   -3.8080  -44.0330 C.ar   13  TYR13       0.1957
     38  OH        -1.0970   -2.9840  -44.7060 O.3    13  TYR13      -0.2866
     39  N          6.0840   -1.5650  -40.0360 N.3    35  ILE35      -0.1245
     40  CA         5.7370   -2.8230  -40.6670 C.3    35  ILE35       0.1561
     41  C          5.7040   -2.6940  -42.1790 C.2    35  ILE35       0.2260
     42  O          5.4570   -1.6220  -42.7050 O.2    35  ILE35      -0.2867
     43  CB         4.3700   -3.3480  -40.1770 C.3    35  ILE35       0.0252
     44  CG1        3.2480   -2.3730  -40.5110 C.3    35  ILE35       0.0019
     45  CG2        4.4490   -3.6170  -38.6760 C.3    35  ILE35       0.0019
     46  CD1        1.9150   -2.7490  -39.9040 C.3    35  ILE35       0.0001
     47  N          2.7750  -17.1480  -47.5190 N.3    69  LYS69      -0.1245
     48  CA         2.8450  -17.8830  -46.2540 C.3    69  LYS69       0.1561
     49  C          1.7500  -18.9590  -46.1200 C.2    69  LYS69       0.2260
     50  O          1.9690  -19.9810  -45.4530 O.2    69  LYS69      -0.2867
     51  CB         2.7620  -16.9140  -45.0810 C.3    69  LYS69       0.0271
     52  CG         3.0710  -17.5140  -43.7100 C.3    69  LYS69       0.0035
     53  CD         3.4530  -16.4200  -42.7360 C.3    69  LYS69       0.0206
     54  CE         3.3550  -16.8840  -41.2900 C.3    69  LYS69       0.1093
     55  NZ         3.4520  -15.7560  -40.3130 N.3    69  LYS69      -0.1314
     56  N          4.3070  -19.2740  -37.2950 N.3   146  PRO146     -0.2116
     57  CA         3.1480  -19.5760  -36.4390 C.3   146  PRO146      0.1372
     58  C          3.3560  -20.8680  -35.6460 C.2   146  PRO146      0.2244
     59  O          4.1340  -21.7360  -36.0530 O.2   146  PRO146     -0.2868
     60  CB         2.0040  -19.7600  -37.4460 C.3   146  PRO146      0.0268
     61  CG         2.4470  -19.1090  -38.6750 C.3   146  PRO146      0.0207
     62  CD         3.9470  -19.2870  -38.7120 C.3   146  PRO146      0.0892
     63  N          1.4510  -23.4960  -35.0760 N.3   148  TYR148     -0.1241
     64  CA         0.9840  -24.7180  -35.7460 C.3   148  TYR148      0.1605
     65  C          1.8970  -25.1460  -36.8980 C.2   148  TYR148      0.2264
     66  O          1.6970  -26.2050  -37.4700 O.2   148  TYR148     -0.2867
     67  CB        -0.4570  -24.5650  -36.2540 C.3   148  TYR148      0.0534
     68  CG        -0.6380  -23.4290  -37.2430 C.ar  148  TYR148     -0.0201
     69  CD1       -0.3830  -23.6140  -38.6010 C.ar  148  TYR148     -0.0009
     70  CD2       -1.0780  -22.1790  -36.8310 C.ar  148  TYR148     -0.0009
     71  CE1       -0.5320  -22.5780  -39.5150 C.ar  148  TYR148      0.0417
     72  CE2       -1.2320  -21.1440  -37.7460 C.ar  148  TYR148      0.0417
     73  CZ        -0.9500  -21.3590  -39.0930 C.ar  148  TYR148      0.1957
     74  OH        -1.0990  -20.3450  -40.0010 O.3   148  TYR148     -0.2866
     75  N          5.7000  -17.6550  -33.0630 N.3   174  GLU174     -0.1245
     76  CA         5.2240  -16.2820  -32.9670 C.3   174  GLU174      0.1567
     77  C          4.6630  -15.9620  -31.5800 C.2   174  GLU174      0.2260
     78  O          5.0770  -14.9980  -30.9920 O.2   174  GLU174     -0.2867
     79  CB         4.2170  -15.9590  -34.0990 C.3   174  GLU174      0.0388
     80  CG         4.9010  -15.8330  -35.4490 C.3   174  GLU174      0.1160
     81  CD         3.9490  -15.9320  -36.6530 C.2   174  GLU174      0.3649
     82  OE1        2.6960  -15.8850  -36.4720 O.co2 174  GLU174     -0.2457
     83  OE2        4.4710  -16.0580  -37.8000 O.co2 174  GLU174     -0.2457
     84  N         -4.0250  -13.5490  -31.2520 N.3   197  ASP197     -0.1239
     85  CA        -3.3290  -12.9660  -32.4010 C.3   197  ASP197      0.1674
     86  C         -4.2730  -12.7540  -33.5860 C.2   197  ASP197      0.2266
     87  O         -4.5490  -13.6630  -34.3470 O.2   197  ASP197     -0.2867
     88  CB        -2.1870  -13.8880  -32.8010 C.3   197  ASP197      0.1410
     89  CG        -1.4040  -13.3840  -34.0080 C.2   197  ASP197      0.3668
     90  OD1       -1.6900  -12.2760  -34.5360 O.co2 197  ASP197     -0.2456
     91  OD2       -0.4800  -14.1180  -34.4290 O.co2 197  ASP197     -0.2456
     92  N         -4.6610  -10.8930  -36.9640 N.3   199  GLY199     -0.1210
     93  CA        -3.8480  -10.2380  -37.9970 C.3   199  GLY199      0.1956
     94  C         -4.6640   -9.7340  -39.1660 C.2   199  GLY199      0.2612
     95  O         -5.8150   -9.3050  -39.0120 O.2   199  GLY199     -0.2717
     96  N         -4.0610   -9.7690  -40.3430 N.am  200  GLY200     -0.1956
     97  CA        -4.6910   -9.2610  -41.5700 C.3   200  GLY200      0.1869
     98  C         -5.7700  -10.1880  -42.0890 C.2   200  GLY200      0.2309
     99  O         -6.9560   -9.8290  -42.1180 O.2   200  GLY200     -0.2863
    100  N         -5.8040  -13.6090  -40.9350 N.3   202  THR202     -0.1218
    101  CA        -5.6900  -14.8030  -40.0620 C.3   202  THR202      0.1862
    102  C         -5.9690  -14.4960  -38.6200 C.2   202  THR202      0.2287
    103  O         -5.6100  -13.4630  -38.1410 O.2   202  THR202     -0.2866
    104  CB        -4.2510  -15.3790  -40.0750 C.3   202  THR202      0.1770
    105  OG1       -3.3310  -14.3680  -39.6540 O.3   202  THR202     -0.2211
    106  CG2       -3.8540  -15.8450  -41.4610 C.3   202  THR202      0.0375
    107  N         -5.3160  -16.3680  -34.8280 N.3   204  ASP204     -0.1239
    108  CA        -4.6290  -17.4450  -34.1510 C.3   204  ASP204      0.1674
    109  C         -4.7290  -17.2990  -32.6390 C.2   204  ASP204      0.2266
    110  O         -4.4450  -16.2460  -32.0880 O.2   204  ASP204     -0.2867
    111  CB        -3.1370  -17.4740  -34.5860 C.3   204  ASP204      0.1410
    112  CG        -2.9850  -17.7650  -36.0670 C.2   204  ASP204      0.3668
    113  OD1       -3.2140  -18.9270  -36.4660 O.co2 204  ASP204     -0.2456
    114  OD2       -2.6820  -16.8290  -36.8340 O.co2 204  ASP204     -0.2456
    115  N         -8.3700   -8.5250  -40.1220 N.3   228  GLY228     -0.1210
    116  CA        -8.6330   -7.1260  -40.4300 C.3   228  GLY228      0.1956
    117  C         -9.1690   -6.8810  -41.8410 C.2   228  GLY228      0.2611
    118  O         -9.9450   -5.9490  -42.0610 O.2   228  GLY228     -0.2717
    119  N         -8.7480   -7.7240  -42.7790 N.am  229  GLU229     -0.1979
    120  CA        -9.2390   -7.6910  -44.1630 C.3   229  GLU229      0.1602
    121  C        -10.7570   -7.8690  -44.1990 C.2   229  GLU229      0.2287
    122  O        -11.4560   -7.2090  -44.9980 O.2   229  GLU229     -0.2864
    123  CB        -8.5160   -8.7420  -45.0280 C.3   229  GLU229      0.0415
    124  CG        -7.0590   -8.3390  -45.3460 C.3   229  GLU229      0.1163
    125  CD        -6.1620   -9.4830  -45.8640 C.2   229  GLU229      0.3649
    126  OE1       -6.5800  -10.6660  -45.9140 O.co2 229  GLU229     -0.2457
    127  OE2       -5.0050   -9.1890  -46.2220 O.co2 229  GLU229     -0.2457
    128  N        -12.2780   -4.5320  -43.1570 N.3   232  ASP232     -0.1239
    129  CA       -12.2050   -3.6230  -44.3060 C.3   232  ASP232      0.1674
    130  C        -13.3800   -3.8640  -45.2390 C.2   232  ASP232      0.2266
    131  O        -14.0760   -2.9350  -45.6190 O.2   232  ASP232     -0.2867
    132  CB       -10.9330   -3.8550  -45.1430 C.3   232  ASP232      0.1410
    133  CG        -9.6740   -3.6120  -44.3850 C.2   232  ASP232      0.3668
    134  OD1       -9.7420   -3.0490  -43.2760 O.co2 232  ASP232     -0.2456
    135  OD2       -8.5920   -3.9910  -44.9000 O.co2 232  ASP232     -0.2456
    136  N         -8.8630    1.1170  -45.4140 N.3   266  GLU266     -0.1245
    137  CA        -7.8540    0.5040  -44.5540 C.3   266  GLU266      0.1567
    138  C         -7.2070    1.5710  -43.6410 C.2   266  GLU266      0.2260
    139  O         -7.0380    1.3790  -42.4340 O.2   266  GLU266     -0.2867
    140  CB        -6.7860   -0.2150  -45.4120 C.3   266  GLU266      0.0388
    141  CG        -5.9910   -1.3090  -44.6670 C.3   266  GLU266      0.1160
    142  CD        -4.7480   -0.7960  -43.9270 C.2   266  GLU266      0.3649
    143  OE1       -4.1600   -1.5960  -43.1380 O.co2 266  GLU266     -0.2457
    144  OE2       -4.3360    0.3920  -44.1230 O.co2 266  GLU266     -0.2457
    145  N         -9.7440    2.9350  -41.0010 N.3   269  LYS269     -0.1231
    146  CA        -9.7960    1.9330  -39.9260 C.3   269  LYS269      0.1693
    147  C         -8.6540    2.1010  -38.9000 C.2   269  LYS269      0.2591
    148  O         -8.9000    2.1340  -37.6900 O.2   269  LYS269     -0.2718
    149  CB        -9.7810    0.5190  -40.5270 C.3   269  LYS269      0.0285
    150  CG        -9.7930   -0.6040  -39.4960 C.3   269  LYS269      0.0035
    151  CD        -9.6020   -1.9770  -40.1190 C.3   269  LYS269      0.0206
    152  CE        -8.2010   -2.1500  -40.6800 C.3   269  LYS269      0.1093
    153  NZ        -8.0200   -3.4750  -41.3440 N.3   269  LYS269     -0.1314
    154  N         -7.4170    2.2120  -39.3800 N.am  270  ARG270     -0.1980
    155  CA        -6.2700    2.4430  -38.5000 C.3   270  ARG270      0.1597
    156  C         -6.4070    3.7150  -37.6410 C.2   270  ARG270      0.2287
    157  O         -6.0870    3.7130  -36.4380 O.2   270  ARG270     -0.2864
    158  CB        -4.9920    2.5710  -39.3020 C.3   270  ARG270      0.0334
    159  CG        -4.5820    1.3220  -40.0230 C.3   270  ARG270      0.0492
    160  CD        -3.2140    1.5340  -40.6490 C.3   270  ARG270      0.2205
    161  NE        -2.7910    0.3580  -41.3800 N.pl3 270  ARG270     -0.0865
    162  CZ        -1.5350   -0.0880  -41.4500 C.cat 270  ARG270      0.5346
    163  NH1       -1.2890   -1.1700  -42.1590 N.pl3 270  ARG270      0.1354
    164  NH2       -0.5280    0.5110  -40.8010 N.pl3 270  ARG270      0.1354
    165  N         -8.5330    3.5180  -34.5710 N.3   273  SER273     -0.1217
    166  CA        -7.9930    2.8810  -33.3810 C.3   273  SER273      0.1889
    167  C         -7.4680    3.9070  -32.3580 C.2   273  SER273      0.2288
    168  O         -7.2080    3.5630  -31.2040 O.2   273  SER273     -0.2866
    169  CB        -6.8940    1.8790  -33.7570 C.3   273  SER273      0.2089
    170  OG        -7.4750    0.7240  -34.3350 O.3   273  SER273     -0.2183
    171  N         -0.8990   -8.8980  -33.0780 N.3   336  GLY336     -0.1210
    172  CA        -1.4860   -8.5810  -34.3930 C.3   336  GLY336      0.1956
    173  C         -2.0940   -7.2000  -34.4820 C.2   336  GLY336      0.2612
    174  O         -2.5970   -6.6760  -33.4930 O.2   336  GLY336     -0.2717
    175  N         -2.0480   -6.6220  -35.6870 N.am  337  GLY337     -0.1942
    176  CA        -2.4620   -5.2520  -35.9200 C.3   337  GLY337      0.2014
    177  C         -3.9310   -4.9660  -35.5830 C.2   337  GLY337      0.2639
    178  O         -4.2570   -3.8840  -35.1170 O.2   337  GLY337     -0.2714
    179  N         -4.8000   -5.9560  -35.7580 N.am  338  SER338     -0.1949
    180  CA        -6.2140   -5.7730  -35.4410 C.3   338  SER338      0.1924
    181  C         -6.5200   -5.7260  -33.9420 C.2   338  SER338      0.2314
    182  O         -7.5960   -5.2790  -33.5630 O.2   338  SER338     -0.2863
    183  CB        -7.0520   -6.8710  -36.0850 C.3   338  SER338      0.2116
    184  OG        -6.9570   -6.8090  -37.4960 O.3   338  SER338     -0.2180
    185  N         -5.1120   -3.7110  -32.0690 N.3   340  ARG340     -0.1231
    186  CA        -5.1270   -2.2620  -31.7750 C.3   340  ARG340      0.1694
    187  C         -6.5260   -1.6660  -31.7640 C.2   340  ARG340      0.2591
    188  O         -6.7030   -0.5520  -31.3130 O.2   340  ARG340     -0.2718
    189  CB        -4.3260   -1.4950  -32.7840 C.3   340  ARG340      0.0321
    190  CG        -2.8450   -1.7820  -32.7880 C.3   340  ARG340      0.0489
    191  CD        -2.2430   -0.8080  -33.7830 C.3   340  ARG340      0.2205
    192  NE        -0.7980   -0.8200  -33.8360 N.pl3 340  ARG340     -0.0865
    193  CZ        -0.0040    0.2220  -33.5770 C.cat 340  ARG340      0.5346
    194  NH1       -0.4880    1.4170  -33.2410 N.pl3 340  ARG340      0.1354
    195  NH2        1.2970    0.0530  -33.6640 N.pl3 340  ARG340      0.1354
    196  N         -7.5090   -2.4110  -32.2690 N.am  341  ILE341     -0.1980
    197  CA        -8.8840   -1.9630  -32.2760 C.3   341  ILE341      0.1595
    198  C         -9.3670   -1.9510  -30.8130 C.2   341  ILE341      0.2287
    199  O         -9.3690   -2.9910  -30.1530 O.2   341  ILE341     -0.2864
    200  CB        -9.7860   -2.8700  -33.1650 C.3   341  ILE341      0.0276
    201  CG1       -9.3450   -2.7980  -34.6390 C.3   341  ILE341      0.0022
    202  CG2      -11.2570   -2.4500  -33.0570 C.3   341  ILE341      0.0022
    203  CD1       -9.9690   -3.8470  -35.5330 C.3   341  ILE341      0.0001
    204  N          1.3710   -5.4220  -33.2850 N.3   364  ASP364     -0.1239
    205  CA         1.8770   -5.8060  -34.5730 C.3   364  ASP364      0.1674
    206  C          3.4170   -5.8040  -34.6020 C.2   364  ASP364      0.2266
    207  O          4.0100   -6.2420  -35.5700 O.2   364  ASP364     -0.2867
    208  CB         1.2730   -4.9780  -35.7100 C.3   364  ASP364      0.1410
    209  CG         1.4370   -3.4700  -35.5310 C.2   364  ASP364      0.3668
    210  OD1        1.6700   -2.9780  -34.4010 O.co2 364  ASP364     -0.2456
    211  OD2        1.3060   -2.7790  -36.5450 O.co2 364  ASP364     -0.2456
@<TRIPOS>BOND
     1    47    48    1
     2    48    49    1
     3    48    51    1
     4   127   125   ar
     5    49    50    2
     6   126   125   ar
     7   125   124    1
     8    16    15    2
     9   131   130    2
    10   136   137    1
    11   140   141    1
    12   140   137    1
    13   124   123    1
    14   130   129    1
    15    23    22    2
    16   132   133    1
    17   132   129    1
    18    51    52    1
    19   123   120    1
    20   122   121    2
    21   135   133   ar
    22    38    37    1
    23   141   142    1
    24    15    20   am
    25    15    14    1
    26   137   138    1
    27    21    22    1
    28    21    24    1
    29    21    20    1
    30    19    17    1
    31   133   134   ar
    32   129   128    1
    33    22    27   am
    34   121   120    1
    35   120   119    1
    36   144   142   ar
    37    37    36   ar
    38    37    35   ar
    39    12    11    2
    40    24    26    1
    41    24    25    1
    42    36    34   ar
    43   142   143   ar
    44    14    17    1
    45    14    13    1
    46    52    53    1
    47   138   139    2
    48    35    33   ar
    49    17    18    1
    50    34    32   ar
    51    27    28    1
    52    11    13   am
    53    11    10    1
    54   119   117   am
    55    33    32   ar
    56    28    29    1
    57    28    31    1
    58    53    54    1
    59    42    41    2
    60    32    31    1
    61    41    40    1
    62   163   162    1
    63    99    98    2
    64    98    97    1
    65   118   117    2
    66    29    30    2
    67   117   116    1
    68     9    10    1
    69    97    96    1
    70   106   104    1
    71   162   161    2
    72   162   164    1
    73   161   160    1
    74   153   152    1
    75    54    55    1
    76   145   146    1
    77   100   101    1
    78   152   151    1
    79    40    43    1
    80    40    39    1
    81   160   159    1
    82   149   146    1
    83   149   150    1
    84    44    43    1
    85    44    46    1
    86   116   115    1
    87    96    94   am
    88     4     3    2
    89    43    45    1
    90   151   150    1
    91   104   101    1
    92   104   105    1
    93   101   102    1
    94   159   158    1
    95    74    73    1
    96   146   147    1
    97     3     2    1
    98    71    73   ar
    99    71    69   ar
   100   154   147   am
   101   154   155    1
   102   158   155    1
   103    94    95    2
   104    94    93    1
   105    73    72   ar
   106   147   148    2
   107    62    61    1
   108    62    56    1
   109    61    60    1
   110   102   103    2
   111    69    68   ar
   112   155   156    1
   113     7     6   ar
   114     2     1    1
   115     2     5    1
   116    93    92    1
   117    83    81   ar
   118    72    70   ar
   119   156   157    2
   120     6     5    1
   121     6     8   ar
   122   184   183    1
   123    66    65    2
   124    60    57    1
   125    56    57    1
   126    68    70   ar
   127    68    67    1
   128    65    64    1
   129   114   112   ar
   130    81    82   ar
   131    81    80    1
   132   211   209   ar
   133   113   112   ar
   134    57    58    1
   135    67    64    1
   136   183   180    1
   137   112   111    1
   138    59    58    2
   139   176   175    1
   140   176   177    1
   141   179   177   am
   142   179   180    1
   143    64    63    1
   144   208   209    1
   145   208   205    1
   146   175   173   am
   147   177   178    2
   148   207   206    2
   149   203   201    1
   150   209   210   ar
   151    80    79    1
   152   180   181    1
   153   107   108    1
   154   201   200    1
   155   206   205    1
   156   111   108    1
   157   205   204    1
   158   165   166    1
   159    90    89   ar
   160   173   172    1
   161   173   174    2
   162    91    89   ar
   163   172   171    1
   164    87    86    2
   165   170   169    1
   166   108   109    1
   167    79    76    1
   168    89    88    1
   169   181   182    2
   170   192   191    1
   171   192   193    2
   172   191   190    1
   173   169   166    1
   174   195   193    1
   175    86    85    1
   176   193   194    1
   177   166   167    1
   178   200   202    1
   179   200   197    1
   180    75    76    1
   181    76    77    1
   182    88    85    1
   183   190   189    1
   184   189   186    1
   185   109   110    2
   186    85    84    1
   187   167   168    2
   188   197   196    1
   189   197   198    1
   190   196   187   am
   191   185   186    1
   192   186   187    1
   193   187   188    2
   194    77    78    2
   195   198   199    2
