@<TRIPOS>MOLECULE
tmp/5f2sD00.pdb
 153 146 0 0 0
SMALL
GASTEIGER

@<TRIPOS>ATOM
      1  N         54.8300 -124.2040   16.3450 N.3   127  TYR127     -0.1241
      2  CA        55.2750 -122.8660   16.7220 C.3   127  TYR127      0.1605
      3  C         55.6760 -122.8500   18.1960 C.2   127  TYR127      0.2264
      4  O         54.8570 -123.1350   19.0740 O.2   127  TYR127     -0.2867
      5  CB        54.1540 -121.8250   16.4300 C.3   127  TYR127      0.0534
      6  CG        54.6070 -120.3910   16.1880 C.ar  127  TYR127     -0.0201
      7  CD1       55.9570 -120.0430   16.2320 C.ar  127  TYR127     -0.0009
      8  CD2       53.6800 -119.3750   15.9540 C.ar  127  TYR127     -0.0009
      9  CE1       56.3710 -118.7240   16.0540 C.ar  127  TYR127      0.0417
     10  CE2       54.0860 -118.0600   15.7390 C.ar  127  TYR127      0.0417
     11  CZ        55.4380 -117.7430   15.7720 C.ar  127  TYR127      0.1957
     12  OH        55.8730 -116.4670   15.4980 O.3   127  TYR127     -0.2866
     13  N         55.0300 -117.8690   22.6730 N.3   130  ASP130     -0.1239
     14  CA        54.7040 -117.4320   24.0460 C.3   130  ASP130      0.1674
     15  C         55.6230 -117.9720   25.1450 C.2   130  ASP130      0.2266
     16  O         55.1550 -118.3150   26.2400 O.2   130  ASP130     -0.2867
     17  CB        53.2310 -117.7720   24.3790 C.3   130  ASP130      0.1410
     18  CG        52.2140 -117.3150   23.3480 C.2   130  ASP130      0.3668
     19  OD1       52.4880 -116.3170   22.6330 O.co2 130  ASP130     -0.2456
     20  OD2       51.1520 -117.9600   23.2460 O.co2 130  ASP130     -0.2456
     21  N         58.4580 -111.9870   25.6980 N.3   170  TYR170     -0.1241
     22  CA        58.1040 -113.2990   25.1670 C.3   170  TYR170      0.1605
     23  C         59.0760 -113.6390   24.0500 C.2   170  TYR170      0.2264
     24  O         59.4220 -112.7530   23.2650 O.2   170  TYR170     -0.2867
     25  CB        56.6880 -113.2630   24.5360 C.3   170  TYR170      0.0534
     26  CG        55.5100 -113.7600   25.3610 C.ar  170  TYR170     -0.0201
     27  CD1       55.6810 -114.2160   26.6720 C.ar  170  TYR170     -0.0009
     28  CD2       54.2310 -113.8250   24.8090 C.ar  170  TYR170     -0.0009
     29  CE1       54.5990 -114.6970   27.4190 C.ar  170  TYR170      0.0417
     30  CE2       53.1440 -114.3060   25.5420 C.ar  170  TYR170      0.0417
     31  CZ        53.3270 -114.7280   26.8500 C.ar  170  TYR170      0.1957
     32  OH        52.2260 -115.1880   27.5380 O.3   170  TYR170     -0.2866
     33  N         59.5140 -116.2010   20.5840 N.3   172  TYR172     -0.1241
     34  CA        58.7500 -116.9220   19.5700 C.3   172  TYR172      0.1605
     35  C         59.7590 -117.6450   18.6860 C.2   172  TYR172      0.2264
     36  O         60.4720 -116.9880   17.9250 O.2   172  TYR172     -0.2867
     37  CB        57.9330 -115.9400   18.6810 C.3   172  TYR172      0.0534
     38  CG        56.7830 -115.2770   19.3980 C.ar  172  TYR172     -0.0201
     39  CD1       56.9690 -114.0890   20.1010 C.ar  172  TYR172     -0.0009
     40  CD2       55.5180 -115.8650   19.4270 C.ar  172  TYR172     -0.0009
     41  CE1       55.9350 -113.5190   20.8410 C.ar  172  TYR172      0.0417
     42  CE2       54.4670 -115.2870   20.1430 C.ar  172  TYR172      0.0417
     43  CZ        54.6840 -114.1090   20.8420 C.ar  172  TYR172      0.1957
     44  OH        53.6800 -113.5060   21.5460 O.3   172  TYR172     -0.2866
     45  N         50.8490 -115.9160   12.6080 N.3   180  PHE180     -0.1241
     46  CA        50.2010 -115.0700   13.5820 C.3   180  PHE180      0.1605
     47  C         49.0010 -114.4630   12.8470 C.2   180  PHE180      0.2264
     48  O         49.1360 -113.8530   11.8000 O.2   180  PHE180     -0.2867
     49  CB        51.1100 -114.0740   14.3230 C.3   180  PHE180      0.0534
     50  CG        51.9190 -113.1540   13.4480 C.ar  180  PHE180     -0.0203
     51  CD1       53.0730 -113.5900   12.8430 C.ar  180  PHE180     -0.0042
     52  CD2       51.5630 -111.8270   13.2990 C.ar  180  PHE180     -0.0042
     53  CE1       53.8300 -112.7370   12.0700 C.ar  180  PHE180     -0.0003
     54  CE2       52.3150 -110.9720   12.5250 C.ar  180  PHE180     -0.0003
     55  CZ        53.4490 -111.4290   11.9090 C.ar  180  PHE180     -0.0000
     56  N         45.1960 -109.3610   14.2480 N.3   183  HIS183     -0.1241
     57  CA        44.8880 -108.8390   15.5660 C.3   183  HIS183      0.1621
     58  C         45.5130 -107.4790   15.8180 C.2   183  HIS183      0.2264
     59  O         46.3800 -107.0410   15.0920 O.2   183  HIS183     -0.2867
     60  CB        45.3950 -109.7980   16.6560 C.3   183  HIS183      0.0745
     61  CG        46.8810 -109.7920   16.8040 C.ar  183  HIS183      0.0817
     62  ND1       47.7170 -110.3950   15.9000 N.ar  183  HIS183     -0.2268
     63  CD2       47.6840 -109.2040   17.7190 C.ar  183  HIS183      0.1154
     64  CE1       48.9670 -110.1950   16.2580 C.ar  183  HIS183      0.1986
     65  NE2       48.9770 -109.4760   17.3620 N.ar  183  HIS183     -0.2212
     66  N         46.9370 -105.3460   19.4660 N.3   185  GLU185     -0.1231
     67  CA        47.4950 -105.7740   20.7520 C.3   185  GLU185      0.1699
     68  C         46.4540 -105.7150   21.8820 C.2   185  GLU185      0.2592
     69  O         45.4240 -105.0630   21.7360 O.2   185  GLU185     -0.2718
     70  CB        48.7100 -104.8920   21.1030 C.3   185  GLU185      0.0402
     71  CG        49.8430 -104.9630   20.0880 C.3   185  GLU185      0.1161
     72  CD        50.3400 -106.3780   19.9150 C.2   185  GLU185      0.3649
     73  OE1       50.8590 -106.9600   20.8940 O.co2 185  GLU185     -0.2457
     74  OE2       50.0210 -106.9620   18.8640 O.co2 185  GLU185     -0.2457
     75  N         46.7200 -106.3850   23.0030 N.am  186  ASP186     -0.1974
     76  CA        45.8320 -106.3220   24.1810 C.3   186  ASP186      0.1709
     77  C         45.7040 -104.8500   24.5850 C.2   186  ASP186      0.2293
     78  O         46.7090 -104.1360   24.5570 O.2   186  ASP186     -0.2864
     79  CB        46.3950 -107.1560   25.3570 C.3   186  ASP186      0.1436
     80  CG        46.3880 -108.6590   25.1060 C.2   186  ASP186      0.3671
     81  OD1       45.3610 -109.1800   24.6410 O.co2 186  ASP186     -0.2456
     82  OD2       47.3830 -109.3070   25.4210 O.co2 186  ASP186     -0.2456
     83  N         58.8840 -105.8840   18.3590 N.3   193  ASN193     -0.1240
     84  CA        59.2810 -107.2490   17.9960 C.3   193  ASN193      0.1653
     85  C         60.6810 -107.1780   17.3850 C.2   193  ASN193      0.2266
     86  O         60.8780 -106.4990   16.3850 O.2   193  ASN193     -0.2867
     87  CB        58.2220 -107.8960   17.0080 C.3   193  ASN193      0.1155
     88  CG        58.4980 -109.3400   16.5500 C.2   193  ASN193      0.2627
     89  OD1       59.5230 -109.6340   15.9120 O.2   193  ASN193     -0.2716
     90  ND2       57.5390 -110.2710   16.7730 N.am  193  ASN193     -0.0877
     91  N         60.5590 -113.0270    8.8000 N.3   201  LYS201     -0.1245
     92  CA        59.1840 -113.0300    9.2620 C.3   201  LYS201      0.1561
     93  C         58.4680 -111.9800    8.3950 C.2   201  LYS201      0.2260
     94  O         58.8470 -110.8080    8.4140 O.2   201  LYS201     -0.2867
     95  CB        59.1090 -112.6360   10.7460 C.3   201  LYS201      0.0271
     96  CG        57.6980 -112.7370   11.3620 C.3   201  LYS201      0.0035
     97  CD        57.6540 -112.0460   12.7190 C.3   201  LYS201      0.0206
     98  CE        58.5190 -112.7080   13.7830 C.3   201  LYS201      0.1093
     99  NZ        58.0400 -114.0760   14.1160 N.3   201  LYS201     -0.1314
    100  N         55.0690 -109.7050    7.3550 N.3   203  TRP203     -0.1241
    101  CA        53.9500 -109.0310    8.0320 C.3   203  TRP203      0.1605
    102  C         53.0030 -108.4080    7.0290 C.2   203  TRP203      0.2264
    103  O         53.4350 -107.9280    5.9960 O.2   203  TRP203     -0.2867
    104  CB        54.4890 -107.8680    8.8740 C.3   203  TRP203      0.0550
    105  CG        55.4380 -108.2510    9.9800 C.ar  203  TRP203      0.0003
    106  CD1       56.6910 -108.7800    9.8510 C.ar  203  TRP203      0.0946
    107  CD2       55.2290 -108.0430   11.3810 C.ar  203  TRP203      0.0152
    108  NE1       57.2640 -108.9390   11.0930 N.ar  203  TRP203     -0.2442
    109  CE2       56.3720 -108.5310   12.0510 C.ar  203  TRP203      0.0810
    110  CE3       54.1440 -107.5750   12.1420 C.ar  203  TRP203      0.0012
    111  CZ2       56.4840 -108.5140   13.4470 C.ar  203  TRP203      0.0191
    112  CZ3       54.2640 -107.5370   13.5210 C.ar  203  TRP203      0.0001
    113  CH2       55.4200 -108.0030   14.1610 C.ar  203  TRP203      0.0015
    114  N         42.7740 -114.3790   18.0690 N.3   236  LYS236     -0.1245
    115  CA        43.9650 -114.5840   17.1910 C.3   236  LYS236      0.1561
    116  C         43.8550 -115.9070   16.4320 C.2   236  LYS236      0.2260
    117  O         44.7910 -116.7070   16.4180 O.2   236  LYS236     -0.2867
    118  CB        45.3080 -114.5090   17.9760 C.3   236  LYS236      0.0271
    119  CG        45.5870 -113.1780   18.6760 C.3   236  LYS236      0.0035
    120  CD        46.8070 -113.2930   19.5910 C.3   236  LYS236      0.0206
    121  CE        47.0560 -112.0120   20.3800 C.3   236  LYS236      0.1093
    122  NZ        45.8360 -111.6090   21.1450 N.3   236  LYS236     -0.1314
    123  N         54.4690 -102.0340   16.2980 N.3   265  THR265     -0.1218
    124  CA        53.0420 -101.9710   15.9620 C.3   265  THR265      0.1862
    125  C         52.4670 -100.8480   16.8150 C.2   265  THR265      0.2287
    126  O         52.8540 -100.6840   17.9640 O.2   265  THR265     -0.2866
    127  CB        52.2800 -103.3080   16.0870 C.3   265  THR265      0.1770
    128  OG1       51.8340 -103.4990   17.4410 O.3   265  THR265     -0.2211
    129  CG2       53.0700 -104.5150   15.5730 C.3   265  THR265      0.0375
    130  N         47.5320 -106.4140   12.4500 N.3   271  HIS271     -0.1241
    131  CA        48.6640 -107.0420   11.7480 C.3   271  HIS271      0.1621
    132  C         48.5350 -108.5650   11.7890 C.2   271  HIS271      0.2264
    133  O         47.8660 -109.1120   12.6670 O.2   271  HIS271     -0.2867
    134  CB        50.0310 -106.5690   12.3270 C.3   271  HIS271      0.0745
    135  CG        50.1720 -106.7610   13.8140 C.ar  271  HIS271      0.0817
    136  ND1       49.5730 -105.8750   14.7190 N.ar  271  HIS271     -0.2268
    137  CD2       50.8030 -107.7400   14.5120 C.ar  271  HIS271      0.1154
    138  CE1       49.8710 -106.3280   15.9300 C.ar  271  HIS271      0.1986
    139  NE2       50.6120 -107.4440   15.8740 N.ar  271  HIS271     -0.2212
    140  N         59.4440 -110.1900   21.9650 N.3   283  SER283     -0.1217
    141  CA        58.3990 -109.1900   21.9180 C.3   283  SER283      0.1889
    142  C         57.8180 -108.8200   23.2640 C.2   283  SER283      0.2288
    143  O         57.8340 -109.6240   24.1810 O.2   283  SER283     -0.2866
    144  CB        57.2530 -109.7160   21.0410 C.3   283  SER283      0.2089
    145  OG        56.4500 -108.6150   20.6520 O.3   283  SER283     -0.2183
    146  N         54.7770 -105.4480   25.0130 N.3   285  ASN285     -0.1240
    147  CA        53.9400 -104.2900   24.7660 C.3   285  ASN285      0.1653
    148  C         54.5390 -103.0940   25.4290 C.2   285  ASN285      0.2266
    149  O         55.3480 -103.2430   26.3390 O.2   285  ASN285     -0.2867
    150  CB        52.5100 -104.5270   25.2800 C.3   285  ASN285      0.1155
    151  CG        51.7410 -105.4930   24.4100 C.2   285  ASN285      0.2627
    152  OD1       51.2730 -106.5210   24.8720 O.2   285  ASN285     -0.2716
    153  ND2       51.5890 -105.1950   23.1230 N.am  285  ASN285     -0.0877
@<TRIPOS>BOND
     1   103   102    2
     2   102   101    1
     3   100   101    1
     4   101   104    1
     5    93    94    2
     6    93    92    1
     7    91    92    1
     8   104   105    1
     9    92    95    1
    10   106   105   ar
    11   106   108   ar
    12   105   107   ar
    13    95    96    1
    14   108   109   ar
    15    96    97    1
    16   107   109   ar
    17   107   110   ar
    18   131   132    1
    19   131   134    1
    20   131   130    1
    21   132   133    2
    22    48    47    2
    23    55    53   ar
    24    55    54   ar
    25   109   111   ar
    26    53    51   ar
    27   110   112   ar
    28   134   135    1
    29    54    52   ar
    30    45    46    1
    31    97    98    1
    32    51    50   ar
    33    47    46    1
    34    52    50   ar
    35   111   113   ar
    36    50    49    1
    37   112   113   ar
    38    46    49    1
    39    98    99    1
    40   135   137   ar
    41   135   136   ar
    42    56    57    1
    43   137   139   ar
    44   136   138   ar
    45    59    58    2
    46    12    11    1
    47    57    58    1
    48    57    60    1
    49   129   127    1
    50    10    11   ar
    51    10     8   ar
    52    11     9   ar
    53   139   138   ar
    54    62    64   ar
    55    62    61   ar
    56    89    88    2
    57     8     6   ar
    58   124   127    1
    59   124   123    1
    60   124   125    1
    61     9     7   ar
    62   127   128    1
    63     6     7   ar
    64     6     5    1
    65    64    65   ar
    66     1     2    1
    67    86    85    2
    68   117   116    2
    69     5     2    1
    70   116   115    1
    71    88    90   am
    72    88    87    1
    73    60    61    1
    74     2     3    1
    75    61    63   ar
    76   125   126    2
    77    87    84    1
    78   115   118    1
    79   115   114    1
    80    65    63   ar
    81    85    84    1
    82    36    35    2
    83   118   119    1
    84    84    83    1
    85     3     4    2
    86   119   120    1
    87    37    38    1
    88    37    34    1
    89    35    34    1
    90    74    72   ar
    91    38    40   ar
    92    38    39   ar
    93    40    42   ar
    94    66    67    1
    95    34    33    1
    96   120   121    1
    97    72    71    1
    98    72    73   ar
    99    71    70    1
   100    39    41   ar
   101    42    43   ar
   102   121   122    1
   103   145   144    1
   104    67    70    1
   105    67    68    1
   106    41    43   ar
   107    43    44    1
   108   144   141    1
   109    69    68    2
   110    68    75   am
   111   141   140    1
   112   141   142    1
   113    19    18   ar
   114    13    14    1
   115    75    76    1
   116   153   151   am
   117    20    18   ar
   118   142   143    2
   119    24    23    2
   120    18    17    1
   121    14    17    1
   122    14    15    1
   123    23    22    1
   124    76    77    1
   125    76    79    1
   126   151   152    2
   127   151   150    1
   128    25    22    1
   129    25    26    1
   130    78    77    2
   131    81    80   ar
   132   147   146    1
   133   147   150    1
   134   147   148    1
   135    28    26   ar
   136    28    30   ar
   137    80    79    1
   138    80    82   ar
   139    15    16    2
   140    22    21    1
   141    26    27   ar
   142   148   149    2
   143    30    31   ar
   144    27    29   ar
   145    31    29   ar
   146    31    32    1
