@<TRIPOS>MOLECULE
tmp/5f2tB00.pdb
 217 206 0 0 0
SMALL
GASTEIGER

@<TRIPOS>ATOM
      1  N         54.5060   -4.3780   -1.4140 N.3    64  VAL64      -0.1245
      2  CA        54.4170   -3.1630   -0.6130 C.3    64  VAL64       0.1561
      3  C         53.4970   -2.1920   -1.3380 C.2    64  VAL64       0.2260
      4  O         53.7910   -1.7770   -2.4650 O.2    64  VAL64      -0.2867
      5  CB        55.7970   -2.5240   -0.3790 C.3    64  VAL64       0.0252
      6  CG1       55.6680   -1.2150    0.4030 C.3    64  VAL64       0.0019
      7  CG2       56.7150   -3.4910    0.3520 C.3    64  VAL64       0.0019
      8  N         54.7170    1.3370   -3.1150 N.3    67  ILE67      -0.1245
      9  CA        56.1750    1.3420   -3.0440 C.3    67  ILE67       0.1561
     10  C         56.7630    2.3660   -4.0060 C.2    67  ILE67       0.2260
     11  O         57.8740    2.8660   -3.7870 O.2    67  ILE67      -0.2867
     12  CB        56.7260   -0.0710   -3.3250 C.3    67  ILE67       0.0252
     13  CG1       58.2530   -0.1100   -3.1770 C.3    67  ILE67       0.0019
     14  CG2       56.3190   -0.5490   -4.7160 C.3    67  ILE67       0.0019
     15  CD1       58.7440    0.0960   -1.7580 C.3    67  ILE67       0.0001
     16  N         58.5530    5.3960   -2.7650 N.3    70  LEU70      -0.1245
     17  CA        59.9610    5.3220   -2.3990 C.3    70  LEU70       0.1561
     18  C         60.8540    5.3020   -3.6340 C.2    70  LEU70       0.2260
     19  O         61.8440    6.0400   -3.7040 O.2    70  LEU70      -0.2867
     20  CB        60.2090    4.0850   -1.5320 C.3    70  LEU70       0.0270
     21  CG        61.6690    3.7670   -1.2060 C.3    70  LEU70       0.0019
     22  CD1       62.3340    4.9410   -0.5030 C.3    70  LEU70       0.0001
     23  CD2       61.7460    2.5120   -0.3600 C.3    70  LEU70       0.0001
     24  N         62.4660    6.2370    6.0280 N.3    82  LEU82      -0.1245
     25  CA        61.3060    5.3740    6.2180 C.3    82  LEU82       0.1561
     26  C         61.0450    5.2620    7.7170 C.2    82  LEU82       0.2260
     27  O         61.8190    4.6350    8.4460 O.2    82  LEU82      -0.2867
     28  CB        61.5380    4.0090    5.5750 C.3    82  LEU82       0.0270
     29  CG        61.8170    4.0630    4.0670 C.3    82  LEU82       0.0019
     30  CD1       62.3770    2.7470    3.5650 C.3    82  LEU82       0.0001
     31  CD2       60.5580    4.4280    3.2970 C.3    82  LEU82       0.0001
     32  N         58.4640    4.1980   10.8020 N.3    84  LEU84      -0.1245
     33  CA        57.3930    3.2430   11.0350 C.3    84  LEU84       0.1561
     34  C         57.2330    2.9760   12.5210 C.2    84  LEU84       0.2260
     35  O         58.1810    3.1430   13.2970 O.2    84  LEU84      -0.2867
     36  CB        57.6530    1.9190   10.3040 C.3    84  LEU84       0.0270
     37  CG        58.9720    1.1940   10.5770 C.3    84  LEU84       0.0019
     38  CD1       58.7930   -0.2980   10.3320 C.3    84  LEU84       0.0001
     39  CD2       60.0930    1.7400    9.6990 C.3    84  LEU84       0.0001
     40  N         56.0800    0.2240   15.8270 N.3    86  HIS86      -0.1241
     41  CA        56.3910   -1.1660   16.1640 C.3    86  HIS86       0.1621
     42  C         55.1640   -2.0380   15.8930 C.2    86  HIS86       0.2264
     43  O         54.5250   -2.5780   16.7980 O.2    86  HIS86      -0.2867
     44  CB        56.8360   -1.2830   17.6160 C.3    86  HIS86       0.0745
     45  CG        58.1560   -0.6380   17.9010 C.ar   86  HIS86       0.0817
     46  ND1       58.3070    0.7260   18.0260 N.ar   86  HIS86      -0.2268
     47  CD2       59.3870   -1.1700   18.0870 C.ar   86  HIS86       0.1154
     48  CE1       59.5730    1.0070   18.2770 C.ar   86  HIS86       0.1986
     49  NE2       60.2500   -0.1260   18.3190 N.ar   86  HIS86      -0.2212
     50  N         58.5240   -5.7540   11.2740 N.3    90  TRP90      -0.1227
     51  CA        59.3830   -4.8090   10.5690 C.3    90  TRP90       0.1737
     52  C         60.6710   -5.4500   10.0660 C.2    90  TRP90       0.2595
     53  O         61.2640   -4.9450    9.1060 O.2    90  TRP90      -0.2718
     54  CB        59.7090   -3.6180   11.4730 C.3    90  TRP90       0.0564
     55  CG        60.1490   -3.9990   12.8520 C.ar   90  TRP90       0.0003
     56  CD1       61.4240   -4.2280   13.2740 C.ar   90  TRP90       0.0946
     57  CD2       59.3080   -4.1890   13.9950 C.ar   90  TRP90       0.0152
     58  NE1       61.4300   -4.5550   14.6080 N.ar   90  TRP90      -0.2442
     59  CE2       60.1410   -4.5390   15.0740 C.ar   90  TRP90       0.0810
     60  CE3       57.9290   -4.1030   14.2080 C.ar   90  TRP90       0.0012
     61  CZ2       59.6430   -4.7990   16.3470 C.ar   90  TRP90       0.0191
     62  CZ3       57.4360   -4.3630   15.4730 C.ar   90  TRP90       0.0001
     63  CH2       58.2910   -4.7060   16.5260 C.ar   90  TRP90       0.0015
     64  N         61.1260   -6.5370   10.6900 N.am   91  ASP91      -0.1974
     65  CA        62.3150   -7.2220   10.1940 C.3    91  ASP91       0.1709
     66  C         62.0290   -7.9210    8.8710 C.2    91  ASP91       0.2293
     67  O         62.8840   -7.9450    7.9770 O.2    91  ASP91      -0.2864
     68  CB        62.8200   -8.2110   11.2430 C.3    91  ASP91       0.1436
     69  CG        63.4610   -7.5170   12.4310 C.2    91  ASP91       0.3671
     70  OD1       64.1460   -6.4920   12.2200 O.co2  91  ASP91      -0.2456
     71  OD2       63.2800   -7.9890   13.5720 O.co2  91  ASP91      -0.2456
     72  N         59.9250   -6.7630    6.7250 N.3    93  ALA93      -0.1231
     73  CA        59.9470   -5.6530    5.7810 C.3    93  ALA93       0.1694
     74  C         61.3780   -5.2790    5.4220 C.2    93  ALA93       0.2592
     75  O         61.6730   -4.9530    4.2660 O.2    93  ALA93      -0.2718
     76  CB        59.2040   -4.4520    6.3660 C.3    93  ALA93       0.0304
     77  N         62.2860   -5.3290    6.4000 N.am   94  GLY94      -0.1957
     78  CA        63.6850   -5.0620    6.1140 C.3    94  GLY94       0.1869
     79  C         64.2610   -6.0420    5.1120 C.2    94  GLY94       0.2309
     80  O         64.9200   -5.6470    4.1480 O.2    94  GLY94      -0.2863
     81  N         62.6250   -7.6460    2.9000 N.3    96  TRP96      -0.1227
     82  CA        62.0400   -7.2890    1.6140 C.3    96  TRP96       0.1737
     83  C         62.8040   -6.1430    0.9640 C.2    96  TRP96       0.2595
     84  O         63.0550   -6.1630   -0.2470 O.2    96  TRP96      -0.2718
     85  CB        60.5690   -6.9150    1.7810 C.3    96  TRP96       0.0564
     86  CG        59.8880   -6.6990    0.4700 C.ar   96  TRP96       0.0003
     87  CD1       59.1810   -7.6180   -0.2450 C.ar   96  TRP96       0.0946
     88  CD2       59.8660   -5.4900   -0.2950 C.ar   96  TRP96       0.0152
     89  NE1       58.7120   -7.0540   -1.4060 N.ar   96  TRP96      -0.2442
     90  CE2       59.1200   -5.7480   -1.4620 C.ar   96  TRP96       0.0810
     91  CE3       60.4030   -4.2130   -0.1060 C.ar   96  TRP96       0.0012
     92  CZ2       58.8950   -4.7770   -2.4340 C.ar   96  TRP96       0.0191
     93  CZ3       60.1780   -3.2490   -1.0730 C.ar   96  TRP96       0.0001
     94  CH2       59.4310   -3.5370   -2.2220 C.ar   96  TRP96       0.0015
     95  N         63.1800   -5.1310    1.7510 N.am   97  LEU97      -0.1980
     96  CA        63.9000   -3.9960    1.1850 C.3    97  LEU97       0.1596
     97  C         65.3360   -4.3630    0.8280 C.2    97  LEU97       0.2287
     98  O         65.8840   -3.8360   -0.1460 O.2    97  LEU97      -0.2864
     99  CB        63.8760   -2.8140    2.1580 C.3    97  LEU97       0.0297
    100  CG        64.4890   -1.5060    1.6470 C.3    97  LEU97       0.0022
    101  CD1       63.8690   -1.0740    0.3200 C.3    97  LEU97       0.0001
    102  CD2       64.3240   -0.4060    2.6860 C.3    97  LEU97       0.0001
    103  N         70.3010   -1.3200    3.6550 N.3   104  PHE104     -0.1241
    104  CA        69.9330   -0.0060    4.1520 C.3   104  PHE104      0.1605
    105  C         70.4610    0.1280    5.5700 C.2   104  PHE104      0.2264
    106  O         70.9320   -0.8400    6.1730 O.2   104  PHE104     -0.2867
    107  CB        68.4150    0.2100    4.1150 C.3   104  PHE104      0.0534
    108  CG        67.6480   -0.7310    4.9980 C.ar  104  PHE104     -0.0203
    109  CD1       67.3120   -0.3740    6.2940 C.ar  104  PHE104     -0.0042
    110  CD2       67.2610   -1.9750    4.5300 C.ar  104  PHE104     -0.0042
    111  CE1       66.6080   -1.2430    7.1060 C.ar  104  PHE104     -0.0003
    112  CE2       66.5560   -2.8450    5.3360 C.ar  104  PHE104     -0.0003
    113  CZ        66.2310   -2.4810    6.6260 C.ar  104  PHE104     -0.0000
    114  N         69.8500    1.4510    9.6140 N.3   106  THR106     -0.1203
    115  CA        68.9210    1.7980   10.6740 C.3   106  THR106      0.1994
    116  C         69.7150    1.9180   11.9660 C.2   106  THR106      0.2618
    117  O         70.9510    1.9270   11.9570 O.2   106  THR106     -0.2717
    118  CB        67.7900    0.7730   10.7860 C.3   106  THR106      0.1784
    119  OG1       66.9220    1.1330   11.8720 O.3   106  THR106     -0.2211
    120  CG2       68.3610   -0.6160   11.0240 C.3   106  THR106      0.0376
    121  N         69.0030    1.9260   13.0880 N.am  107  VAL107     -0.1965
    122  CA        69.5640    2.3780   14.3500 C.3   107  VAL107      0.1727
    123  C         68.9300    1.5650   15.4670 C.2   107  VAL107      0.2616
    124  O         67.7200    1.3180   15.4490 O.2   107  VAL107     -0.2715
    125  CB        69.3190    3.8990   14.4920 C.3   107  VAL107      0.0290
    126  CG1       68.2190    4.3750   15.4990 C.3   107  VAL107      0.0023
    127  CG2       70.3800    4.8620   13.8320 C.3   107  VAL107      0.0023
    128  N         69.7460    1.1150   16.4240 N.am  108  ALA108     -0.1963
    129  CA        69.2730    0.2120   17.4680 C.3   108  ALA108      0.1728
    130  C         69.6380    0.7320   18.8530 C.2   108  ALA108      0.2616
    131  O         70.7900    1.0910   19.1150 O.2   108  ALA108     -0.2715
    132  CB        69.8350   -1.2000   17.2790 C.3   108  ALA108      0.0334
    133  N         68.6380    0.7620   19.7270 N.am  109  GLU109     -0.1977
    134  CA        68.8370    0.9380   21.1590 C.3   109  GLU109      0.1602
    135  C         69.8620   -0.0640   21.6840 C.2   109  GLU109      0.2287
    136  O         69.7720   -1.2640   21.4060 O.2   109  GLU109     -0.2864
    137  CB        67.4820    0.7480   21.8490 C.3   109  GLU109      0.0415
    138  CG        67.4110    1.0340   23.3320 C.3   109  GLU109      0.1163
    139  CD        65.9980    0.8650   23.8570 C.2   109  GLU109      0.3649
    140  OE1       65.0540    0.9250   23.0380 O.co2 109  GLU109     -0.2457
    141  OE2       65.8270    0.6620   25.0780 O.co2 109  GLU109     -0.2457
    142  N         70.2160   -8.9650   12.9270 N.3   124  ARG124     -0.1245
    143  CA        69.7900   -8.0760   11.8540 C.3   124  ARG124      0.1563
    144  C         70.8480   -7.9390   10.7680 C.2   124  ARG124      0.2260
    145  O         70.5080   -7.6520    9.6150 O.2   124  ARG124     -0.2867
    146  CB        69.4130   -6.7140   12.4360 C.3   124  ARG124      0.0307
    147  CG        68.2380   -6.8180   13.3930 C.3   124  ARG124      0.0489
    148  CD        67.4240   -5.5450   13.4740 C.3   124  ARG124      0.2205
    149  NE        66.0800   -5.8210   13.9820 N.pl3 124  ARG124     -0.0865
    150  CZ        65.7120   -5.7490   15.2580 C.cat 124  ARG124      0.5346
    151  NH1       66.5780   -5.3900   16.1980 N.pl3 124  ARG124      0.1354
    152  NH2       64.4600   -6.0300   15.5960 N.pl3 124  ARG124      0.1354
    153  N         70.8440   -5.7540    6.9870 N.3   129  PHE129     -0.1241
    154  CA        70.8030   -4.3590    7.3980 C.3   129  PHE129      0.1605
    155  C         72.1660   -3.9270    7.9200 C.2   129  PHE129      0.2264
    156  O         72.9580   -4.7420    8.4020 O.2   129  PHE129     -0.2867
    157  CB        69.7860   -4.0870    8.5180 C.3   129  PHE129      0.0534
    158  CG        68.5050   -4.8870    8.4530 C.ar  129  PHE129     -0.0203
    159  CD1       68.0660   -5.5060    7.2930 C.ar  129  PHE129     -0.0042
    160  CD2       67.7190   -4.9840    9.5900 C.ar  129  PHE129     -0.0042
    161  CE1       66.8840   -6.2210    7.2850 C.ar  129  PHE129     -0.0003
    162  CE2       66.5410   -5.6920    9.5840 C.ar  129  PHE129     -0.0003
    163  CZ        66.1220   -6.3120    8.4320 C.ar  129  PHE129     -0.0000
    164  N         73.2760   -1.7510   11.0520 N.3   131  VAL131     -0.1245
    165  CA        72.6540   -1.3760   12.3160 C.3   131  VAL131      0.1561
    166  C         73.6380   -0.5020   13.0790 C.2   131  VAL131      0.2260
    167  O         74.6960   -0.9760   13.5160 O.2   131  VAL131     -0.2867
    168  CB        72.2490   -2.6070   13.1380 C.3   131  VAL131      0.0252
    169  CG1       71.7240   -2.2000   14.5110 C.3   131  VAL131      0.0019
    170  CG2       71.1930   -3.4130   12.3860 C.3   131  VAL131      0.0019
    171  N         65.8710    3.4890    7.6520 N.3   156  CYS156     -0.1235
    172  CA        64.6400    3.0670    8.3030 C.3   156  CYS156      0.1677
    173  C         64.7580    3.3250    9.7940 C.2   156  CYS156      0.2270
    174  O         65.7790    2.9920   10.4030 O.2   156  CYS156     -0.2867
    175  CB        64.3580    1.5850    8.0370 C.3   156  CYS156      0.0956
    176  SG        64.1250    1.1770    6.2910 S.3   156  CYS156     -0.0801
    177  N         62.4840    3.2120   13.5640 N.3   158  MET158     -0.1245
    178  CA        61.3130    2.9960   14.4020 C.3   158  MET158      0.1570
    179  C         60.9930    4.3010   15.1250 C.2   158  MET158      0.2261
    180  O         61.8210    4.8050   15.8910 O.2   158  MET158     -0.2867
    181  CB        61.5820    1.8700   15.3910 C.3   158  MET158      0.0387
    182  CG        62.1530    0.6110   14.7480 C.3   158  MET158      0.0595
    183  SD        61.1150   -0.0620   13.4290 S.3   158  MET158     -0.1393
    184  CE        59.6650   -0.5330   14.3710 C.3   158  MET158      0.0692
    185  N         55.6860    4.6650    7.1560 N.3   197  VAL197     -0.1245
    186  CA        55.5770    3.2780    6.7300 C.3   197  VAL197      0.1561
    187  C         54.8000    2.5210    7.7950 C.2   197  VAL197      0.2260
    188  O         54.8090    2.8880    8.9740 O.2   197  VAL197     -0.2867
    189  CB        56.9660    2.6430    6.4890 C.3   197  VAL197      0.0252
    190  CG1       56.8590    1.1450    6.2320 C.3   197  VAL197      0.0019
    191  CG2       57.6520    3.3270    5.3180 C.3   197  VAL197      0.0019
    192  N         52.4360   -4.4860    4.0500 N.3   208  MET208     -0.1230
    193  CA        53.3650   -3.3700    4.1300 C.3   208  MET208      0.1702
    194  C         52.8700   -2.2610    3.2150 C.2   208  MET208      0.2592
    195  O         52.2100   -2.5210    2.2060 O.2   208  MET208     -0.2718
    196  CB        54.7830   -3.7900    3.7280 C.3   208  MET208      0.0401
    197  CG        55.4330   -4.7880    4.6760 C.3   208  MET208      0.0596
    198  SD        56.8860   -5.5760    3.9580 S.3   208  MET208     -0.1393
    199  CE        56.1220   -6.6380    2.7330 C.3   208  MET208      0.0692
    200  N         53.1970   -1.0210    3.5710 N.am  209  ARG209     -0.1966
    201  CA        52.7050    0.1180    2.8120 C.3   209  ARG209      0.1729
    202  C         53.5740    1.3340    3.0840 C.2   209  ARG209      0.2616
    203  O         53.9560    1.5900    4.2290 O.2   209  ARG209     -0.2715
    204  CB        51.2460    0.4230    3.1710 C.3   209  ARG209      0.0348
    205  CG        50.6370    1.5910    2.4170 C.3   209  ARG209      0.0492
    206  CD        49.1270    1.5890    2.5720 C.3   209  ARG209      0.2205
    207  NE        48.5020    2.7990    2.0480 N.pl3 209  ARG209     -0.0865
    208  CZ        47.2210    3.1110    2.2220 C.cat 209  ARG209      0.5346
    209  NH1       46.4250    2.3030    2.9100 N.pl3 209  ARG209      0.1354
    210  NH2       46.7330    4.2330    1.7120 N.pl3 209  ARG209      0.1354
    211  N         53.8850    2.0670    2.0190 N.am  210  VAL210     -0.1977
    212  CA        54.5310    3.3710    2.1030 C.3   210  VAL210      0.1596
    213  C         53.4590    4.4270    1.8900 C.2   210  VAL210      0.2287
    214  O         52.6260    4.3000    0.9830 O.2   210  VAL210     -0.2864
    215  CB        55.6510    3.5100    1.0570 C.3   210  VAL210      0.0276
    216  CG1       56.2980    4.8910    1.1360 C.3   210  VAL210      0.0022
    217  CG2       56.6900    2.4210    1.2360 C.3   210  VAL210      0.0022
@<TRIPOS>BOND
     1    14    12    1
     2    10    11    2
     3    10     9    1
     4    19    18    2
     5    18    17    1
     6    12    13    1
     7    12     9    1
     8    13    15    1
     9     8     9    1
    10    16    17    1
    11     4     3    2
    12    92    94   ar
    13    92    90   ar
    14    17    20    1
    15    94    93   ar
    16    20    21    1
    17    90    89   ar
    18    90    88   ar
    19     1     2    1
    20    89    87   ar
    21     3     2    1
    22    21    22    1
    23    21    23    1
    24    93    91   ar
    25     2     5    1
    26     5     7    1
    27     5     6    1
    28    88    91   ar
    29    88    86   ar
    30    84    83    2
    31    87    86   ar
    32    98    97    2
    33   101   100    1
    34    86    85    1
    35    97    96    1
    36    83    82    1
    37    83    95   am
    38   214   213    2
    39   215   216    1
    40   215   217    1
    41   215   212    1
    42    96    95    1
    43    96    99    1
    44    82    85    1
    45    82    81    1
    46   100    99    1
    47   100   102    1
    48   210   208    1
    49   213   212    1
    50   211   212    1
    51   211   202   am
    52   207   208    2
    53   207   206    1
    54   195   194    2
    55   208   209    1
    56   205   206    1
    57   205   204    1
    58   199   198    1
    59   201   202    1
    60   201   204    1
    61   201   200    1
    62   202   203    2
    63   194   200   am
    64   194   193    1
    65    31    29    1
    66    30    29    1
    67   103   104    1
    68   196   193    1
    69   196   197    1
    70   198   197    1
    71   192   193    1
    72    29    28    1
    73   107   104    1
    74   107   108    1
    75    80    79    2
    76   104   105    1
    77    75    74    2
    78   110   108   ar
    79   110   112   ar
    80   108   109   ar
    81    79    78    1
    82   191   189    1
    83   112   113   ar
    84    74    73    1
    85    74    77   am
    86   105   106    2
    87    28    25    1
    88    73    76    1
    89    73    72    1
    90    24    25    1
    91    78    77    1
    92    25    26    1
    93   190   189    1
    94   176   175    1
    95   109   111   ar
    96   189   186    1
    97   113   111   ar
    98   186   185    1
    99   186   187    1
   100   153   154    1
   101   161   159   ar
   102   161   163   ar
   103   159   158   ar
   104   154   155    1
   105   154   157    1
   106   171   172    1
   107    26    27    2
   108   187   188    2
   109   155   156    2
   110    67    66    2
   111   175   172    1
   112   172   173    1
   113   163   162   ar
   114   158   157    1
   115   158   160   ar
   116    66    65    1
   117    53    52    2
   118   162   160   ar
   119   114   115    1
   120   145   144    2
   121    39    37    1
   122   173   174    2
   123    52    51    1
   124    52    64   am
   125    65    64    1
   126    65    68    1
   127    36    37    1
   128    36    33    1
   129    38    37    1
   130    51    50    1
   131    51    54    1
   132   115   118    1
   133   115   116    1
   134   144   143    1
   135   118   120    1
   136   118   119    1
   137    32    33    1
   138    33    34    1
   139   164   165    1
   140    68    69    1
   141    54    55    1
   142   143   146    1
   143   143   142    1
   144   117   116    2
   145   116   121   am
   146    70    69   ar
   147   165   166    1
   148   165   168    1
   149   170   168    1
   150    69    71   ar
   151   146   147    1
   152    34    35    2
   153    55    56   ar
   154    55    57   ar
   155   166   167    2
   156   121   122    1
   157   168   169    1
   158    56    58   ar
   159   147   148    1
   160   183   184    1
   161   183   182    1
   162   148   149    1
   163   177   178    1
   164   127   125    1
   165   149   150    2
   166    57    60   ar
   167    57    59   ar
   168    60    62   ar
   169   122   125    1
   170   122   123    1
   171   178   179    1
   172   178   181    1
   173   125   126    1
   174    58    59   ar
   175   182   181    1
   176    59    61   ar
   177   179   180    2
   178   150   152    1
   179   150   151    1
   180   124   123    2
   181   123   128   am
   182    62    63   ar
   183    40    41    1
   184    42    41    1
   185    42    43    2
   186    41    44    1
   187    61    63   ar
   188   128   129    1
   189   132   129    1
   190   129   130    1
   191    44    45    1
   192    45    46   ar
   193    45    47   ar
   194    46    48   ar
   195    47    49   ar
   196    48    49   ar
   197   130   131    2
   198   130   133   am
   199   133   134    1
   200   134   135    1
   201   134   137    1
   202   136   135    2
   203   137   138    1
   204   140   139   ar
   205   138   139    1
   206   139   141   ar
