@<TRIPOS>MOLECULE
tmp/5f2uB01.pdb
 112 106 0 0 0
SMALL
GASTEIGER

@<TRIPOS>ATOM
      1  N         18.7270   34.0730  -16.8810 N.3    20  LEU20      -0.1245
      2  CA        18.9830   35.4540  -16.4880 C.3    20  LEU20       0.1561
      3  C         19.7030   35.4210  -15.1180 C.2    20  LEU20       0.2260
      4  O         19.1230   34.9550  -14.1110 O.2    20  LEU20      -0.2867
      5  CB        17.6930   36.2820  -16.3460 C.3    20  LEU20       0.0270
      6  CG        16.8960   36.3030  -17.6780 C.3    20  LEU20       0.0019
      7  CD1       15.4940   36.8880  -17.4680 C.3    20  LEU20       0.0001
      8  CD2       17.6760   37.1520  -18.7030 C.3    20  LEU20       0.0001
      9  N         14.6770   41.1750  -10.0700 N.3    51  ILE51      -0.1231
     10  CA        15.5340   41.3650  -11.2170 C.3    51  ILE51       0.1692
     11  C         15.6820   42.8520  -11.5930 C.2    51  ILE51       0.2591
     12  O         16.7150   43.2460  -12.1210 O.2    51  ILE51      -0.2718
     13  CB        15.1000   40.5820  -12.4390 C.3    51  ILE51       0.0266
     14  CG1       16.2680   40.6120  -13.4380 C.3    51  ILE51       0.0019
     15  CG2       13.7790   41.0850  -13.0660 C.3    51  ILE51       0.0020
     16  CD1       16.2360   39.4180  -14.3380 C.3    51  ILE51       0.0001
     17  N         14.6670   43.6650  -11.2760 N.am   52  LEU52      -0.1980
     18  CA        14.6580   45.0830  -11.6310 C.3    52  LEU52       0.1596
     19  C         15.5970   45.8890  -10.7440 C.2    52  LEU52       0.2287
     20  O         15.8660   47.0520  -11.0310 O.2    52  LEU52      -0.2864
     21  CB        13.2710   45.6700  -11.5040 C.3    52  LEU52       0.0297
     22  CG        12.2940   45.0430  -12.4940 C.3    52  LEU52       0.0022
     23  CD1       10.8670   45.2820  -12.0300 C.3    52  LEU52       0.0001
     24  CD2       12.4760   45.6600  -13.8740 C.3    52  LEU52       0.0001
     25  N         18.7270   44.6810  -10.1930 N.3    54  CYS54      -0.1235
     26  CA        20.1240   44.3080  -10.6020 C.3    54  CYS54       0.1677
     27  C         20.7250   45.4420  -11.3980 C.2    54  CYS54       0.2270
     28  O         20.0310   46.0560  -12.2170 O.2    54  CYS54      -0.2867
     29  CB        20.0840   43.1210  -11.5780 C.3    54  CYS54       0.0956
     30  SG        19.4710   41.6370  -10.7530 S.3    54  CYS54      -0.0801
     31  N         23.0660   44.8510  -13.5880 N.3    56  ALA56      -0.1231
     32  CA        23.3100   44.2360  -14.8680 C.3    56  ALA56       0.1694
     33  C         22.9360   42.7880  -14.8090 C.2    56  ALA56       0.2591
     34  O         23.0400   42.1720  -13.7590 O.2    56  ALA56      -0.2718
     35  CB        24.7890   44.3650  -15.1160 C.3    56  ALA56       0.0304
     36  N         22.5140   42.2320  -15.9190 N.am   57  VAL57      -0.1980
     37  CA        22.0740   40.9030  -15.9630 C.3    57  VAL57       0.1595
     38  C         22.8550   40.2220  -17.1100 C.2    57  VAL57       0.2287
     39  O         22.8980   40.7090  -18.2380 O.2    57  VAL57      -0.2864
     40  CB        20.5720   40.8610  -16.3030 C.3    57  VAL57       0.0276
     41  CG1       20.1220   39.4660  -16.6180 C.3    57  VAL57       0.0022
     42  CG2       19.7850   41.4670  -15.1230 C.3    57  VAL57       0.0022
     43  N         11.3410   49.7970  -26.1700 N.3    86  GLU86      -0.1245
     44  CA        12.7930   49.5740  -26.3300 C.3    86  GLU86       0.1567
     45  C         12.9910   48.6090  -27.4440 C.2    86  GLU86       0.2260
     46  O         12.1300   47.7840  -27.6670 O.2    86  GLU86      -0.2867
     47  CB        13.4480   48.9570  -25.0890 C.3    86  GLU86       0.0388
     48  CG        13.2950   49.7590  -23.8060 C.3    86  GLU86       0.1160
     49  CD        13.9450   49.1050  -22.5870 C.2    86  GLU86       0.3649
     50  OE1       14.0360   49.8370  -21.5890 O.co2  86  GLU86      -0.2457
     51  OE2       14.3560   47.9010  -22.6130 O.co2  86  GLU86      -0.2457
     52  N         16.0960   46.0140  -28.8630 N.3    88  TRP88      -0.1241
     53  CA        17.4140   45.4820  -28.5410 C.3    88  TRP88       0.1605
     54  C         17.9390   44.6330  -29.7250 C.2    88  TRP88       0.2264
     55  O         17.1800   43.9230  -30.4410 O.2    88  TRP88      -0.2867
     56  CB        17.4290   44.6150  -27.3080 C.3    88  TRP88       0.0550
     57  CG        16.7350   45.0640  -25.9700 C.ar   88  TRP88       0.0003
     58  CD1       16.6140   46.3320  -25.4660 C.ar   88  TRP88       0.0946
     59  CD2       16.2030   44.1660  -24.9570 C.ar   88  TRP88       0.0152
     60  NE1       15.9860   46.2790  -24.2500 N.ar   88  TRP88      -0.2442
     61  CE2       15.7230   44.9770  -23.9000 C.ar   88  TRP88       0.0810
     62  CE3       16.0510   42.7530  -24.8580 C.ar   88  TRP88       0.0012
     63  CZ2       15.1130   44.4370  -22.7520 C.ar   88  TRP88       0.0191
     64  CZ3       15.4240   42.2040  -23.7090 C.ar   88  TRP88       0.0001
     65  CH2       14.9700   43.0530  -22.6650 C.ar   88  TRP88       0.0015
     66  N         23.2050   42.6420  -20.2070 N.3   107  ILE107     -0.1231
     67  CA        22.2060   43.6950  -20.3650 C.3   107  ILE107      0.1692
     68  C         22.3230   44.6030  -19.1370 C.2   107  ILE107      0.2592
     69  O         22.2280   44.1390  -17.9880 O.2   107  ILE107     -0.2718
     70  CB        20.7780   43.1370  -20.4810 C.3   107  ILE107      0.0266
     71  CG1       20.6900   42.2300  -21.7290 C.3   107  ILE107      0.0019
     72  CG2       19.7680   44.3100  -20.5720 C.3   107  ILE107      0.0020
     73  CD1       19.5090   41.2800  -21.8150 C.3   107  ILE107      0.0001
     74  N         22.5640   45.8770  -19.3670 N.am  108  GLU108     -0.1966
     75  CA        22.7930   46.8220  -18.3030 C.3   108  GLU108      0.1733
     76  C         21.5010   47.5070  -17.9260 C.2   108  GLU108      0.2616
     77  O         20.7250   47.8430  -18.8100 O.2   108  GLU108     -0.2715
     78  CB        23.7970   47.8540  -18.7620 C.3   108  GLU108      0.0429
     79  CG        25.2040   47.2780  -18.7590 C.3   108  GLU108      0.1163
     80  CD        26.2730   48.2810  -19.1850 C.2   108  GLU108      0.3649
     81  OE1       25.9570   49.2590  -19.9220 O.co2 108  GLU108     -0.2457
     82  OE2       27.4400   48.0950  -18.7640 O.co2 108  GLU108     -0.2457
     83  N         21.2750   47.7240  -16.6320 N.am  109  ALA109     -0.1963
     84  CA        20.0960   48.4760  -16.2170 C.3   109  ALA109      0.1728
     85  C         20.2160   49.9340  -16.5780 C.2   109  ALA109      0.2616
     86  O         21.2970   50.5030  -16.4990 O.2   109  ALA109     -0.2715
     87  CB        19.8970   48.3640  -14.7380 C.3   109  ALA109      0.0334
     88  N         19.0770   50.5550  -16.9070 N.am  110  ALA110     -0.1977
     89  CA        18.9290   52.0260  -16.9830 C.3   110  ALA110      0.1597
     90  C         19.2150   52.6060  -15.6050 C.2   110  ALA110      0.2287
     91  O         19.2020   51.8690  -14.6570 O.2   110  ALA110     -0.2864
     92  CB        17.4980   52.4010  -17.4330 C.3   110  ALA110      0.0319
     93  N         13.9810   53.1550  -14.1430 N.3   115  MET115     -0.1245
     94  CA        13.5140   51.7880  -14.1520 C.3   115  MET115      0.1570
     95  C         11.9990   51.7760  -13.9520 C.2   115  MET115      0.2261
     96  O         11.4600   52.5070  -13.1610 O.2   115  MET115     -0.2867
     97  CB        14.1530   50.9360  -13.0820 C.3   115  MET115      0.0387
     98  CG        15.6830   50.7800  -13.1730 C.3   115  MET115      0.0595
     99  SD        16.1580   49.9800  -14.7840 S.3   115  MET115     -0.1393
    100  CE        15.4010   48.3680  -14.6070 C.3   115  MET115      0.0692
    101  N          6.1980   39.7490  -13.5150 N.3   147  TYR147     -0.1241
    102  CA         7.2490   40.0210  -12.5320 C.3   147  TYR147      0.1605
    103  C          6.7050   39.6210  -11.2050 C.2   147  TYR147      0.2264
    104  O          5.8180   40.2950  -10.6970 O.2   147  TYR147     -0.2867
    105  CB         7.6550   41.5260  -12.5130 C.3   147  TYR147      0.0534
    106  CG         8.4010   41.9720  -13.7500 C.ar  147  TYR147     -0.0201
    107  CD1        7.7250   42.2470  -14.9360 C.ar  147  TYR147     -0.0009
    108  CD2        9.8020   42.0840  -13.7660 C.ar  147  TYR147     -0.0009
    109  CE1        8.3850   42.5960  -16.0660 C.ar  147  TYR147      0.0417
    110  CE2       10.4880   42.4530  -14.9140 C.ar  147  TYR147      0.0417
    111  CZ         9.7700   42.7280  -16.0480 C.ar  147  TYR147      0.1957
    112  OH        10.4360   43.1060  -17.1820 O.3   147  TYR147     -0.2866
@<TRIPOS>BOND
     1    55    54    2
     2    54    53    1
     3    52    53    1
     4    53    56    1
     5    46    45    2
     6    45    44    1
     7    56    57    1
     8    44    43    1
     9    44    47    1
    10    57    58   ar
    11    57    59   ar
    12    58    60   ar
    13    47    48    1
    14    59    62   ar
    15    59    61   ar
    16    62    64   ar
    17    60    61   ar
    18    61    63   ar
    19    48    49    1
    20    64    65   ar
    21    63    65   ar
    22    51    49   ar
    23    49    50   ar
    24    73    71    1
    25    71    70    1
    26    72    70    1
    27    70    67    1
    28    67    66    1
    29    67    68    1
    30    81    80   ar
    31    74    68   am
    32    74    75    1
    33    80    82   ar
    34    80    79    1
    35    68    69    2
    36    77    76    2
    37    78    79    1
    38    78    75    1
    39     8     6    1
    40    75    76    1
    41    39    38    2
    42    76    83   am
    43     6     7    1
    44     6     5    1
    45    92    89    1
    46   112   111    1
    47    38    37    1
    48    89    88    1
    49    89    90    1
    50    88    85   am
    51     1     2    1
    52    83    84    1
    53    41    40    1
    54    85    86    2
    55    85    84    1
    56     2     5    1
    57     2     3    1
    58    40    37    1
    59    40    42    1
    60    84    87    1
    61   109   111   ar
    62   109   107   ar
    63   111   110   ar
    64    37    36    1
    65    36    33   am
    66    90    91    2
    67     3     4    2
    68    35    32    1
    69   107   106   ar
    70   110   108   ar
    71    32    33    1
    72    32    31    1
    73    33    34    2
    74    99   100    1
    75    99    98    1
    76    16    14    1
    77    94    93    1
    78    94    95    1
    79    94    97    1
    80    95    96    2
    81    24    22    1
    82   108   106   ar
    83   106   105    1
    84   101   102    1
    85    14    13    1
    86    98    97    1
    87    15    13    1
    88   102   105    1
    89   102   103    1
    90    22    23    1
    91    22    21    1
    92    13    10    1
    93    28    27    2
    94    12    11    2
    95    18    21    1
    96    18    17    1
    97    18    19    1
    98    11    17   am
    99    11    10    1
   100    29    30    1
   101    29    26    1
   102    27    26    1
   103    10     9    1
   104   103   104    2
   105    20    19    2
   106    26    25    1
