@<TRIPOS>MOLECULE
tmp/5f2uB00.pdb
 156 149 0 0 0
SMALL
GASTEIGER

@<TRIPOS>ATOM
      1  N         14.6770   41.1750  -10.0700 N.3    51  ILE51      -0.1231
      2  CA        15.5340   41.3650  -11.2170 C.3    51  ILE51       0.1692
      3  C         15.6820   42.8520  -11.5930 C.2    51  ILE51       0.2591
      4  O         16.7150   43.2460  -12.1210 O.2    51  ILE51      -0.2718
      5  CB        15.1000   40.5820  -12.4390 C.3    51  ILE51       0.0266
      6  CG1       16.2680   40.6120  -13.4380 C.3    51  ILE51       0.0019
      7  CG2       13.7790   41.0850  -13.0660 C.3    51  ILE51       0.0020
      8  CD1       16.2360   39.4180  -14.3380 C.3    51  ILE51       0.0001
      9  N         14.6670   43.6650  -11.2760 N.am   52  LEU52      -0.1980
     10  CA        14.6580   45.0830  -11.6310 C.3    52  LEU52       0.1596
     11  C         15.5970   45.8890  -10.7440 C.2    52  LEU52       0.2287
     12  O         15.8660   47.0520  -11.0310 O.2    52  LEU52      -0.2864
     13  CB        13.2710   45.6700  -11.5040 C.3    52  LEU52       0.0297
     14  CG        12.2940   45.0430  -12.4940 C.3    52  LEU52       0.0022
     15  CD1       10.8670   45.2820  -12.0300 C.3    52  LEU52       0.0001
     16  CD2       12.4760   45.6600  -13.8740 C.3    52  LEU52       0.0001
     17  N         10.3980   45.5100  -27.0150 N.3    78  VAL78      -0.1245
     18  CA         9.7340   45.4360  -25.7490 C.3    78  VAL78       0.1561
     19  C          8.4600   46.3240  -25.9530 C.2    78  VAL78       0.2260
     20  O          8.5920   47.5140  -26.2300 O.2    78  VAL78      -0.2867
     21  CB        10.6020   46.0520  -24.6750 C.3    78  VAL78       0.0252
     22  CG1        9.8760   46.0760  -23.3370 C.3    78  VAL78       0.0019
     23  CG2       11.8990   45.2390  -24.5250 C.3    78  VAL78       0.0019
     24  N          8.5820   50.2880  -26.2480 N.3    85  LEU85      -0.1231
     25  CA         9.4360   51.0720  -25.3820 C.3    85  LEU85       0.1693
     26  C         10.8880   50.9460  -25.6750 C.2    85  LEU85       0.2591
     27  O         11.5990   51.8380  -25.3580 O.2    85  LEU85      -0.2718
     28  CB         9.3280   50.6410  -23.9300 C.3    85  LEU85       0.0284
     29  CG         7.9570   50.8160  -23.3160 C.3    85  LEU85       0.0019
     30  CD1        8.0640   50.3950  -21.8610 C.3    85  LEU85       0.0001
     31  CD2        7.4650   52.2410  -23.4450 C.3    85  LEU85       0.0001
     32  N         11.3410   49.7970  -26.1700 N.am   86  GLU86      -0.1979
     33  CA        12.7930   49.5740  -26.3300 C.3    86  GLU86       0.1602
     34  C         12.9910   48.6090  -27.4440 C.2    86  GLU86       0.2287
     35  O         12.1300   47.7840  -27.6670 O.2    86  GLU86      -0.2864
     36  CB        13.4480   48.9570  -25.0890 C.3    86  GLU86       0.0415
     37  CG        13.2950   49.7590  -23.8060 C.3    86  GLU86       0.1163
     38  CD        13.9450   49.1050  -22.5870 C.2    86  GLU86       0.3649
     39  OE1       14.0360   49.8370  -21.5890 O.co2  86  GLU86      -0.2457
     40  OE2       14.3560   47.9010  -22.6130 O.co2  86  GLU86      -0.2457
     41  N         16.0960   46.0140  -28.8630 N.3    88  TRP88      -0.1241
     42  CA        17.4140   45.4820  -28.5410 C.3    88  TRP88       0.1605
     43  C         17.9390   44.6330  -29.7250 C.2    88  TRP88       0.2264
     44  O         17.1800   43.9230  -30.4410 O.2    88  TRP88      -0.2867
     45  CB        17.4290   44.6150  -27.3080 C.3    88  TRP88       0.0550
     46  CG        16.7350   45.0640  -25.9700 C.ar   88  TRP88       0.0003
     47  CD1       16.6140   46.3320  -25.4660 C.ar   88  TRP88       0.0946
     48  CD2       16.2030   44.1660  -24.9570 C.ar   88  TRP88       0.0152
     49  NE1       15.9860   46.2790  -24.2500 N.ar   88  TRP88      -0.2442
     50  CE2       15.7230   44.9770  -23.9000 C.ar   88  TRP88       0.0810
     51  CE3       16.0510   42.7530  -24.8580 C.ar   88  TRP88       0.0012
     52  CZ2       15.1130   44.4370  -22.7520 C.ar   88  TRP88       0.0191
     53  CZ3       15.4240   42.2040  -23.7090 C.ar   88  TRP88       0.0001
     54  CH2       14.9700   43.0530  -22.6650 C.ar   88  TRP88       0.0015
     55  N         23.2050   42.6420  -20.2070 N.3   107  ILE107     -0.1231
     56  CA        22.2060   43.6950  -20.3650 C.3   107  ILE107      0.1692
     57  C         22.3230   44.6030  -19.1370 C.2   107  ILE107      0.2592
     58  O         22.2280   44.1390  -17.9880 O.2   107  ILE107     -0.2718
     59  CB        20.7780   43.1370  -20.4810 C.3   107  ILE107      0.0266
     60  CG1       20.6900   42.2300  -21.7290 C.3   107  ILE107      0.0019
     61  CG2       19.7680   44.3100  -20.5720 C.3   107  ILE107      0.0020
     62  CD1       19.5090   41.2800  -21.8150 C.3   107  ILE107      0.0001
     63  N         22.5640   45.8770  -19.3670 N.am  108  GLU108     -0.1966
     64  CA        22.7930   46.8220  -18.3030 C.3   108  GLU108      0.1733
     65  C         21.5010   47.5070  -17.9260 C.2   108  GLU108      0.2616
     66  O         20.7250   47.8430  -18.8100 O.2   108  GLU108     -0.2715
     67  CB        23.7970   47.8540  -18.7620 C.3   108  GLU108      0.0429
     68  CG        25.2040   47.2780  -18.7590 C.3   108  GLU108      0.1163
     69  CD        26.2730   48.2810  -19.1850 C.2   108  GLU108      0.3649
     70  OE1       25.9570   49.2590  -19.9220 O.co2 108  GLU108     -0.2457
     71  OE2       27.4400   48.0950  -18.7640 O.co2 108  GLU108     -0.2457
     72  N         21.2750   47.7240  -16.6320 N.am  109  ALA109     -0.1963
     73  CA        20.0960   48.4760  -16.2170 C.3   109  ALA109      0.1728
     74  C         20.2160   49.9340  -16.5780 C.2   109  ALA109      0.2616
     75  O         21.2970   50.5030  -16.4990 O.2   109  ALA109     -0.2715
     76  CB        19.8970   48.3640  -14.7380 C.3   109  ALA109      0.0334
     77  N         19.0770   50.5550  -16.9070 N.am  110  ALA110     -0.1964
     78  CA        18.9290   52.0260  -16.9830 C.3   110  ALA110      0.1713
     79  C         19.2150   52.6060  -15.6050 C.2   110  ALA110      0.2458
     80  O         19.2020   51.8690  -14.6570 O.2   110  ALA110     -0.2730
     81  CB        17.4980   52.4010  -17.4330 C.3   110  ALA110      0.0333
     82  N         19.5000   53.9080  -15.5020 N.am  111  PRO111     -0.2727
     83  CA        19.6460   54.5300  -14.2250 C.3   111  PRO111      0.1402
     84  C         18.3740   54.2500  -13.4320 C.2   111  PRO111      0.2269
     85  O         17.2760   54.0080  -14.0090 O.2   111  PRO111     -0.2865
     86  CB        19.7930   56.0270  -14.5520 C.3   111  PRO111      0.0296
     87  CG        20.1830   56.1030  -15.9510 C.3   111  PRO111      0.0237
     88  CD        19.6650   54.8580  -16.6180 C.3   111  PRO111      0.0939
     89  N         14.8780   55.7230  -13.9440 N.3   114  GLN114     -0.1231
     90  CA        14.1650   55.3660  -15.1220 C.3   114  GLN114      0.1698
     91  C         13.5980   53.9650  -15.0980 C.2   114  GLN114      0.2592
     92  O         12.8800   53.5860  -16.0030 O.2   114  GLN114     -0.2718
     93  CB        15.1030   55.4360  -16.3560 C.3   114  GLN114      0.0381
     94  CG        15.4950   56.8680  -16.6950 C.3   114  GLN114      0.0905
     95  CD        16.6310   56.8590  -17.6800 C.2   114  GLN114      0.2608
     96  OE1       17.7130   57.3730  -17.3780 O.2   114  GLN114     -0.2717
     97  NE2       16.4170   56.2180  -18.8520 N.am  114  GLN114     -0.0878
     98  N         13.9810   53.1550  -14.1430 N.am  115  MET115     -0.1965
     99  CA        13.5140   51.7880  -14.1520 C.3   115  MET115      0.1736
    100  C         11.9990   51.7760  -13.9520 C.2   115  MET115      0.2616
    101  O         11.4600   52.5070  -13.1610 O.2   115  MET115     -0.2715
    102  CB        14.1530   50.9360  -13.0820 C.3   115  MET115      0.0427
    103  CG        15.6830   50.7800  -13.1730 C.3   115  MET115      0.0599
    104  SD        16.1580   49.9800  -14.7840 S.3   115  MET115     -0.1393
    105  CE        15.4010   48.3680  -14.6070 C.3   115  MET115      0.0692
    106  N         11.3370   50.8850  -14.6460 N.am  116  MET116     -0.1977
    107  CA         9.8910   50.7020  -14.4810 C.3   116  MET116      0.1605
    108  C          9.5150   49.8690  -13.3180 C.2   116  MET116      0.2287
    109  O         10.1410   48.8240  -13.0190 O.2   116  MET116     -0.2864
    110  CB         9.3390   50.0990  -15.7680 C.3   116  MET116      0.0413
    111  CG         9.6230   51.0380  -16.8910 C.3   116  MET116      0.0598
    112  SD         8.6480   50.7220  -18.3680 S.3   116  MET116     -0.1393
    113  CE         6.9670   51.1230  -17.7520 C.3   116  MET116      0.0692
    114  N          4.5650   46.9370  -14.7760 N.3   121  LEU121     -0.1245
    115  CA         4.9500   46.0550  -15.8570 C.3   121  LEU121      0.1561
    116  C          4.2120   44.7530  -15.9120 C.2   121  LEU121      0.2260
    117  O          4.0460   44.2060  -16.9760 O.2   121  LEU121     -0.2867
    118  CB         6.4380   45.6950  -15.6910 C.3   121  LEU121      0.0270
    119  CG         7.3790   46.8480  -15.9020 C.3   121  LEU121      0.0019
    120  CD1        8.7730   46.3920  -15.4830 C.3   121  LEU121      0.0001
    121  CD2        7.4100   47.2860  -17.3510 C.3   121  LEU121      0.0001
    122  N          3.8480   43.4480  -20.3930 N.3   125  VAL125     -0.1245
    123  CA         4.9400   43.4820  -21.3120 C.3   125  VAL125      0.1561
    124  C          4.9790   42.3050  -22.2190 C.2   125  VAL125      0.2260
    125  O          4.8630   41.1690  -21.7400 O.2   125  VAL125     -0.2867
    126  CB         6.2520   43.4890  -20.5000 C.3   125  VAL125      0.0252
    127  CG1        7.4530   43.3630  -21.4110 C.3   125  VAL125      0.0019
    128  CG2        6.3330   44.7560  -19.7230 C.3   125  VAL125      0.0019
    129  N          7.6220   40.7180  -25.0900 N.3   127  ILE127     -0.1245
    130  CA         8.8760   40.7900  -25.8790 C.3   127  ILE127      0.1561
    131  C          8.6410   40.0490  -27.1610 C.2   127  ILE127      0.2260
    132  O          8.3320   38.8630  -27.1460 O.2   127  ILE127     -0.2867
    133  CB        10.0100   40.0670  -25.1690 C.3   127  ILE127      0.0252
    134  CG1       10.1350   40.5360  -23.7630 C.3   127  ILE127      0.0019
    135  CG2       11.3050   40.2280  -25.9610 C.3   127  ILE127      0.0019
    136  CD1       10.4770   41.9520  -23.6540 C.3   127  ILE127      0.0001
    137  N          5.5740   38.7950  -20.1560 N.3   145  LEU145     -0.1245
    138  CA         6.3280   38.7710  -18.9100 C.3   145  LEU145      0.1561
    139  C          5.5090   39.1370  -17.6580 C.2   145  LEU145      0.2260
    140  O          4.8190   40.1390  -17.6460 O.2   145  LEU145     -0.2867
    141  CB         7.4850   39.7610  -18.8940 C.3   145  LEU145      0.0270
    142  CG         8.4950   39.6750  -20.0120 C.3   145  LEU145      0.0019
    143  CD1        9.6570   40.6790  -19.8300 C.3   145  LEU145      0.0001
    144  CD2        8.9340   38.2560  -20.1030 C.3   145  LEU145      0.0001
    145  N          6.1980   39.7490  -13.5150 N.3   147  TYR147     -0.1241
    146  CA         7.2490   40.0210  -12.5320 C.3   147  TYR147      0.1605
    147  C          6.7050   39.6210  -11.2050 C.2   147  TYR147      0.2264
    148  O          5.8180   40.2950  -10.6970 O.2   147  TYR147     -0.2867
    149  CB         7.6550   41.5260  -12.5130 C.3   147  TYR147      0.0534
    150  CG         8.4010   41.9720  -13.7500 C.ar  147  TYR147     -0.0201
    151  CD1        7.7250   42.2470  -14.9360 C.ar  147  TYR147     -0.0009
    152  CD2        9.8020   42.0840  -13.7660 C.ar  147  TYR147     -0.0009
    153  CE1        8.3850   42.5960  -16.0660 C.ar  147  TYR147      0.0417
    154  CE2       10.4880   42.4530  -14.9140 C.ar  147  TYR147      0.0417
    155  CZ         9.7700   42.7280  -16.0480 C.ar  147  TYR147      0.1957
    156  OH        10.4360   43.1060  -17.1820 O.3   147  TYR147     -0.2866
@<TRIPOS>BOND
     1    44    43    2
     2    43    42    1
     3    41    42    1
     4    42    45    1
     5    35    34    2
     6    34    33    1
     7    45    46    1
     8   131   132    2
     9   131   130    1
    10    17    18    1
    11    33    32    1
    12    33    36    1
    13    24    25    1
    14    20    19    2
    15    32    26   am
    16    46    47   ar
    17    46    48   ar
    18   135   133    1
    19    19    18    1
    20   130   133    1
    21   130   129    1
    22    18    21    1
    23    26    25    1
    24    26    27    2
    25    47    49   ar
    26    25    28    1
    27   133   134    1
    28    36    37    1
    29    48    51   ar
    30    48    50   ar
    31    51    53   ar
    32    21    23    1
    33    21    22    1
    34    49    50   ar
    35    28    29    1
    36    50    52   ar
    37    37    38    1
    38   134   136    1
    39    53    54   ar
    40    31    29    1
    41    29    30    1
    42    52    54   ar
    43    40    38   ar
    44    38    39   ar
    45   124   125    2
    46   124   123    1
    47    62    60    1
    48    60    59    1
    49   127   126    1
    50   123   126    1
    51   123   122    1
    52    61    59    1
    53   126   128    1
    54    59    56    1
    55    56    55    1
    56    56    57    1
    57   137   138    1
    58   144   142    1
    59   142   143    1
    60   142   141    1
    61    70    69   ar
    62    63    57   am
    63    63    64    1
    64    69    71   ar
    65    69    68    1
    66    57    58    2
    67   138   141    1
    68   138   139    1
    69    97    95   am
    70    66    65    2
    71    67    68    1
    72    67    64    1
    73   112   113    1
    74   112   111    1
    75    64    65    1
    76    65    72   am
    77    95    96    2
    78    95    94    1
    79   139   140    2
    80    81    78    1
    81   121   119    1
    82   156   155    1
    83    78    77    1
    84    78    79    1
    85   117   116    2
    86    77    74   am
    87   111   110    1
    88    94    93    1
    89    72    73    1
    90    88    87    1
    91    88    82    1
    92    74    75    2
    93    74    73    1
    94    93    90    1
    95    73    76    1
    96   153   155   ar
    97   153   151   ar
    98   155   154   ar
    99    92    91    2
   100    87    86    1
   101   116   115    1
   102   119   118    1
   103   119   120    1
   104   115   118    1
   105   115   114    1
   106   110   107    1
   107    79    82   am
   108    79    80    2
   109    82    83    1
   110    90    91    1
   111    90    89    1
   112    91    98   am
   113   151   150   ar
   114   154   152   ar
   115   104   105    1
   116   104   103    1
   117   106   107    1
   118   106   100   am
   119    86    83    1
   120   107   108    1
   121     8     6    1
   122    83    84    1
   123    99    98    1
   124    99   100    1
   125    99   102    1
   126    85    84    2
   127   100   101    2
   128    16    14    1
   129   152   150   ar
   130   150   149    1
   131   145   146    1
   132     6     5    1
   133   108   109    2
   134   103   102    1
   135     7     5    1
   136   146   149    1
   137   146   147    1
   138    14    15    1
   139    14    13    1
   140     5     2    1
   141     4     3    2
   142    10    13    1
   143    10     9    1
   144    10    11    1
   145     3     9   am
   146     3     2    1
   147     2     1    1
   148   147   148    2
   149    12    11    2
