@<TRIPOS>MOLECULE
tmp/5f2vA00.pdb
 123 115 0 0 0
SMALL
GASTEIGER

@<TRIPOS>ATOM
      1  N          9.7720  -14.2010   78.6420 N.3    41  THR41      -0.1203
      2  CA         9.0230  -15.4180   78.8500 C.3    41  THR41       0.1994
      3  C          7.8040  -15.1020   79.7000 C.2    41  THR41       0.2618
      4  O          7.6780  -14.0010   80.2670 O.2    41  THR41      -0.2717
      5  CB         9.8820  -16.5240   79.4950 C.3    41  THR41       0.1784
      6  OG1       10.3830  -16.0710   80.7510 O.3    41  THR41      -0.2211
      7  CG2       11.0330  -16.8930   78.5740 C.3    41  THR41       0.0376
      8  N          6.8860  -16.0590   79.7390 N.am   42  GLY42      -0.1942
      9  CA         5.6590  -15.9040   80.4880 C.3    42  GLY42       0.2014
     10  C          5.1480  -17.2650   80.8780 C.2    42  GLY42       0.2638
     11  O          5.4330  -18.2670   80.2300 O.2    42  GLY42      -0.2714
     12  N          4.3810  -17.3140   81.9500 N.am   43  ARG43      -0.1977
     13  CA         3.8780  -18.5950   82.3730 C.3    43  ARG43       0.1597
     14  C          2.5740  -18.4240   83.1480 C.2    43  ARG43       0.2287
     15  O          2.3680  -17.4270   83.8530 O.2    43  ARG43      -0.2864
     16  CB         4.9610  -19.3200   83.1880 C.3    43  ARG43       0.0334
     17  CG         4.5820  -19.7730   84.5840 C.3    43  ARG43       0.0492
     18  CD         4.4920  -18.6010   85.5110 C.3    43  ARG43       0.2205
     19  NE         4.3230  -18.9980   86.9060 N.pl3  43  ARG43      -0.0865
     20  CZ         3.8560  -18.1840   87.8480 C.cat  43  ARG43       0.5346
     21  NH1        3.4870  -16.9540   87.5390 N.pl3  43  ARG43       0.1354
     22  NH2        3.7470  -18.6000   89.0980 N.pl3  43  ARG43       0.1354
     23  N          0.7980  -19.6630   86.2220 N.3    45  LYS45      -0.1231
     24  CA         1.1090  -20.3920   87.4410 C.3    45  LYS45       0.1678
     25  C          0.3010  -21.6840   87.4770 C.2    45  LYS45       0.2434
     26  O         -0.9310  -21.6540   87.4260 O.2    45  LYS45      -0.2733
     27  CB         0.8370  -19.5270   88.6710 C.3    45  LYS45       0.0284
     28  CG         0.5610  -20.3330   89.9010 C.3    45  LYS45       0.0035
     29  CD         1.5900  -20.1490   90.9620 C.3    45  LYS45       0.0206
     30  CE         1.5070  -18.8020   91.6310 C.3    45  LYS45       0.1093
     31  NZ         2.8450  -18.5800   92.3120 N.3    45  LYS45      -0.1314
     32  N          0.9870  -22.8340   87.5350 N.am   46  PRO46      -0.2729
     33  CA         0.3040  -24.1370   87.4720 C.3    46  PRO46       0.1401
     34  C         -0.5650  -24.4030   88.7170 C.2    46  PRO46       0.2269
     35  O         -0.3310  -23.8090   89.7880 O.2    46  PRO46      -0.2865
     36  CB         1.4660  -25.1320   87.3700 C.3    46  PRO46       0.0296
     37  CG         2.5690  -24.4580   88.0810 C.3    46  PRO46       0.0237
     38  CD         2.4210  -22.9780   87.8330 C.3    46  PRO46       0.0939
     39  N          0.7410  -24.9580   92.2970 N.3    49  SER49      -0.1217
     40  CA         1.4150  -23.8530   92.9860 C.3    49  SER49       0.1889
     41  C          0.3870  -22.9150   93.5500 C.2    49  SER49       0.2288
     42  O          0.5350  -22.4240   94.6760 O.2    49  SER49      -0.2866
     43  CB         2.3580  -23.0760   92.0630 C.3    49  SER49       0.2089
     44  OG         3.3410  -23.9190   91.5040 O.3    49  SER49      -0.2183
     45  N          0.5080  -22.0160   97.3420 N.3    53  LYS53      -0.1245
     46  CA         0.7320  -20.6150   97.7100 C.3    53  LYS53       0.1561
     47  C         -0.4430  -20.1300   98.5330 C.2    53  LYS53       0.2260
     48  O         -0.2830  -19.3810   99.4860 O.2    53  LYS53      -0.2867
     49  CB         0.9290  -19.7340   96.4670 C.3    53  LYS53       0.0271
     50  CG         1.0870  -18.2450   96.7530 C.3    53  LYS53       0.0035
     51  CD         1.7190  -17.5130   95.5630 C.3    53  LYS53       0.0206
     52  CE         2.0840  -16.0740   95.9140 C.3    53  LYS53       0.1093
     53  NZ         2.8810  -15.4000   94.8330 N.3    53  LYS53      -0.1314
     54  N         -0.1720  -21.4000  102.0490 N.3    56  ARG56      -0.1245
     55  CA         0.8740  -20.5990  102.6840 C.3    56  ARG56       0.1563
     56  C          0.3210  -19.2530  103.1290 C.2    56  ARG56       0.2260
     57  O          0.2580  -18.9610  104.3290 O.2    56  ARG56      -0.2867
     58  CB         2.0640  -20.3870  101.7330 C.3    56  ARG56       0.0307
     59  CG         3.3650  -21.1080  102.1190 C.3    56  ARG56       0.0489
     60  CD         4.3730  -21.1920  100.9420 C.3    56  ARG56       0.2205
     61  NE         4.5790  -19.9030  100.2740 N.pl3  56  ARG56      -0.0865
     62  CZ         4.5870  -19.7340   98.9490 C.cat  56  ARG56       0.5346
     63  NH1        4.4100  -20.7790   98.1400 N.pl3  56  ARG56       0.1354
     64  NH2        4.7740  -18.5210   98.4300 N.pl3  56  ARG56       0.1354
     65  N          0.4320  -13.4720   90.9660 N.3    69  ASP69      -0.1239
     66  CA         1.2320  -14.0910   89.9130 C.3    69  ASP69       0.1674
     67  C          0.6010  -15.2950   89.2270 C.2    69  ASP69       0.2266
     68  O          1.3180  -16.1940   88.7950 O.2    69  ASP69      -0.2867
     69  CB         2.6050  -14.4990   90.4690 C.3    69  ASP69       0.1410
     70  CG         2.5060  -15.4520   91.6440 C.2    69  ASP69       0.3668
     71  OD1        1.3970  -15.5740   92.1930 O.co2  69  ASP69      -0.2456
     72  OD2        3.5310  -16.0620   92.0310 O.co2  69  ASP69      -0.2456
     73  N          2.2070  -14.6080   84.9020 N.3    72  GLY72      -0.1210
     74  CA         3.5150  -14.0330   85.1190 C.3    72  GLY72       0.1956
     75  C          4.2380  -13.8750   83.8070 C.2    72  GLY72       0.2612
     76  O          4.2210  -14.7760   82.9570 O.2    72  GLY72      -0.2717
     77  N          4.8570  -12.7150   83.6280 N.am   73  LEU73      -0.1965
     78  CA         5.8190  -12.5380   82.5550 C.3    73  LEU73       0.1728
     79  C          7.1560  -12.1780   83.1570 C.2    73  LEU73       0.2616
     80  O          7.2410  -11.5880   84.2380 O.2    73  LEU73      -0.2715
     81  CB         5.3850  -11.4590   81.5650 C.3    73  LEU73       0.0311
     82  CG         4.2160  -11.8030   80.6470 C.3    73  LEU73       0.0022
     83  CD1        2.9150  -11.3600   81.2870 C.3    73  LEU73       0.0001
     84  CD2        4.4150  -11.1380   79.3000 C.3    73  LEU73       0.0001
     85  N          8.2100  -12.5630   82.4640 N.am   74  ARG74      -0.1977
     86  CA         9.5420  -12.2650   82.9300 C.3    74  ARG74       0.1597
     87  C         10.3620  -11.6980   81.7880 C.2    74  ARG74       0.2287
     88  O         10.5440  -12.3500   80.7670 O.2    74  ARG74      -0.2864
     89  CB        10.1830  -13.5230   83.4990 C.3    74  ARG74       0.0334
     90  CG        11.4970  -13.2820   84.1970 C.3    74  ARG74       0.0492
     91  CD        12.0950  -14.5840   84.6150 C.3    74  ARG74       0.2205
     92  NE        11.5610  -15.0290   85.8940 N.pl3  74  ARG74      -0.0865
     93  CZ        11.4220  -16.3060   86.2200 C.cat  74  ARG74       0.5346
     94  NH1       11.7520  -17.2470   85.3470 N.pl3  74  ARG74       0.1354
     95  NH2       10.9310  -16.6440   87.4000 N.pl3  74  ARG74       0.1354
     96  N          1.8410  -10.3010   86.8640 N.3   122  GLU122     -0.1245
     97  CA         3.1350   -9.9980   87.4560 C.3   122  GLU122      0.1567
     98  C          4.1970   -9.9750   86.3920 C.2   122  GLU122      0.2260
     99  O          4.3420  -10.9250   85.6290 O.2   122  GLU122     -0.2867
    100  CB         3.4940  -11.0150   88.5260 C.3   122  GLU122      0.0388
    101  CG         4.8150  -10.7250   89.2000 C.3   122  GLU122      0.1160
    102  CD         5.2400  -11.8350   90.1210 C.2   122  GLU122      0.3649
    103  OE1        5.9780  -12.7430   89.6420 O.co2 122  GLU122     -0.2457
    104  OE2        4.8230  -11.7940   91.3120 O.co2 122  GLU122     -0.2457
    105  N          8.2010   -9.6460   85.9510 N.3   124  GLN124     -0.1245
    106  CA         9.5240   -9.6440   86.5480 C.3   124  GLN124      0.1566
    107  C         10.5690   -9.0780   85.5960 C.2   124  GLN124      0.2260
    108  O         10.5970   -9.4330   84.4240 O.2   124  GLN124     -0.2867
    109  CB         9.9050  -11.0600   86.9570 C.3   124  GLN124      0.0367
    110  CG         9.2610  -11.5140   88.2550 C.3   124  GLN124      0.0905
    111  CD         9.4350  -12.9940   88.4790 C.2   124  GLN124      0.2608
    112  OE1       10.0690  -13.6780   87.6780 O.2   124  GLN124     -0.2717
    113  NE2        8.8640  -13.5020   89.5610 N.am  124  GLN124     -0.0878
    114  N         15.6920  -21.9760   92.0740 N.3   138  HIS138     -0.1241
    115  CA        14.3450  -22.5200   91.9870 C.3   138  HIS138      0.1621
    116  C         14.3860  -24.0420   91.8250 C.2   138  HIS138      0.2264
    117  O         13.7950  -24.7690   92.6340 O.2   138  HIS138     -0.2867
    118  CB        13.5600  -21.8880   90.8390 C.3   138  HIS138      0.0745
    119  CG        12.1620  -22.4030   90.7240 C.ar  138  HIS138      0.0817
    120  ND1       11.8630  -23.6100   90.1170 N.ar  138  HIS138     -0.2268
    121  CD2       10.9850  -21.9000   91.1580 C.ar  138  HIS138      0.1154
    122  CE1       10.5590  -23.8210   90.1790 C.ar  138  HIS138      0.1986
    123  NE2       10.0040  -22.7940   90.8030 N.ar  138  HIS138     -0.2212
@<TRIPOS>BOND
     1     7     5    1
     2     1     2    1
     3     2     5    1
     4     2     3    1
     5    84    82    1
     6     5     6    1
     7     3     8   am
     8     3     4    2
     9     8     9    1
    10    11    10    2
    11     9    10    1
    12    82    83    1
    13    82    81    1
    14    88    87    2
    15    10    12   am
    16    81    78    1
    17    87    86    1
    18    12    13    1
    19    13    14    1
    20    13    16    1
    21    85    86    1
    22    85    79   am
    23    78    79    1
    24    78    77    1
    25    86    89    1
    26    76    75    2
    27    14    15    2
    28    79    80    2
    29    16    17    1
    30    89    90    1
    31    77    75   am
    32    75    74    1
    33    90    91    1
    34   108   107    2
    35    17    18    1
    36    91    92    1
    37    73    74    1
    38    94    93    1
    39    18    19    1
    40   107   106    1
    41    99    98    2
    42    92    93    2
    43   105   106    1
    44    93    95    1
    45    23    24    1
    46    98    97    1
    47   106   109    1
    48    96    97    1
    49    19    20    2
    50   109   110    1
    51    36    33    1
    52    36    37    1
    53    26    25    2
    54    24    25    1
    55    24    27    1
    56    97   100    1
    57    33    32    1
    58    33    34    1
    59    25    32   am
    60    32    38    1
    61    21    20    1
    62   112   111    2
    63    38    37    1
    64    20    22    1
    65   110   111    1
    66   111   113   am
    67   100   101    1
    68    27    28    1
    69    34    35    2
    70    68    67    2
    71   101   102    1
    72    67    66    1
    73   103   102   ar
    74    28    29    1
    75    66    69    1
    76    66    65    1
    77   120   122   ar
    78   120   119   ar
    79   102   104   ar
    80   122   123   ar
    81    69    70    1
    82   119   118    1
    83   119   121   ar
    84   123   121   ar
    85   118   115    1
    86    29    30    1
    87    44    43    1
    88    30    31    1
    89    70    72   ar
    90    70    71   ar
    91   116   115    1
    92   116   117    2
    93   115   114    1
    94    43    40    1
    95    39    40    1
    96    40    41    1
    97    41    42    2
    98    53    52    1
    99    51    52    1
   100    51    50    1
   101    49    50    1
   102    49    46    1
   103    45    46    1
   104    46    47    1
   105    63    62    1
   106    64    62    1
   107    47    48    2
   108    62    61    2
   109    61    60    1
   110    60    59    1
   111    58    59    1
   112    58    55    1
   113    54    55    1
   114    55    56    1
   115    56    57    2
