@<TRIPOS>MOLECULE
tmp/5f2wA00.pdb
 152 143 0 0 0
SMALL
GASTEIGER

@<TRIPOS>ATOM
      1  N         14.4140   60.5340  -51.8320 N.3   124  TYR124     -0.1241
      2  CA        13.9520   59.1840  -51.4840 C.3   124  TYR124      0.1605
      3  C         13.8060   59.0860  -49.9630 C.2   124  TYR124      0.2264
      4  O         14.7780   59.2850  -49.2340 O.2   124  TYR124     -0.2867
      5  CB        14.9280   58.0780  -51.9930 C.3   124  TYR124      0.0534
      6  CG        14.2460   56.7340  -52.2380 C.ar  124  TYR124     -0.0201
      7  CD1       12.8620   56.6140  -52.1860 C.ar  124  TYR124     -0.0009
      8  CD2       14.9840   55.5970  -52.5640 C.ar  124  TYR124     -0.0009
      9  CE1       12.2260   55.4000  -52.4190 C.ar  124  TYR124      0.0417
     10  CE2       14.3530   54.3740  -52.8300 C.ar  124  TYR124      0.0417
     11  CZ        12.9670   54.2840  -52.7610 C.ar  124  TYR124      0.1957
     12  OH        12.2690   53.1190  -53.0090 O.3   124  TYR124     -0.2866
     13  N         14.8410   53.5860  -45.9670 N.3   127  ASP127     -0.1239
     14  CA        15.3370   52.9440  -44.7420 C.3   127  ASP127      0.1674
     15  C         14.6580   53.4020  -43.4330 C.2   127  ASP127      0.2266
     16  O         15.3020   53.4160  -42.3720 O.2   127  ASP127     -0.2867
     17  CB        16.8680   53.0900  -44.6210 C.3   127  ASP127      0.1410
     18  CG        17.6760   52.7720  -45.8560 C.2   127  ASP127      0.3668
     19  OD1       17.2860   51.8350  -46.6020 O.co2 127  ASP127     -0.2456
     20  OD2       18.7280   53.4190  -46.0540 O.co2 127  ASP127     -0.2456
     21  N          9.7740   52.4630  -47.3400 N.3   169  TYR169     -0.1241
     22  CA        10.3690   53.2370  -48.4360 C.3   169  TYR169      0.1605
     23  C          9.3330   54.1570  -49.0770 C.2   169  TYR169      0.2264
     24  O          8.4140   53.7010  -49.7590 O.2   169  TYR169     -0.2867
     25  CB        10.9490   52.3090  -49.5180 C.3   169  TYR169      0.0534
     26  CG        12.1340   51.4930  -49.0640 C.ar  169  TYR169     -0.0201
     27  CD1       11.9610   50.2500  -48.4650 C.ar  169  TYR169     -0.0009
     28  CD2       13.4350   51.9440  -49.2680 C.ar  169  TYR169     -0.0009
     29  CE1       13.0550   49.4880  -48.0570 C.ar  169  TYR169      0.0417
     30  CE2       14.5340   51.1970  -48.8530 C.ar  169  TYR169      0.0417
     31  CZ        14.3390   49.9690  -48.2530 C.ar  169  TYR169      0.1957
     32  OH        15.4360   49.2560  -47.8540 O.3   169  TYR169     -0.2866
     33  N         16.5080   52.2760  -57.1070 N.3   177  PHE177     -0.1241
     34  CA        17.3590   51.3250  -56.4300 C.3   177  PHE177      0.1605
     35  C         18.3440   50.8090  -57.4670 C.2   177  PHE177      0.2264
     36  O         17.9630   50.3690  -58.5240 O.2   177  PHE177     -0.2867
     37  CB        16.6080   50.2160  -55.6640 C.3   177  PHE177      0.0534
     38  CG        15.4280   49.6130  -56.3780 C.ar  177  PHE177     -0.0203
     39  CD1       14.2770   50.3290  -56.5770 C.ar  177  PHE177     -0.0042
     40  CD2       15.4500   48.2920  -56.7720 C.ar  177  PHE177     -0.0042
     41  CE1       13.1880   49.7580  -57.2020 C.ar  177  PHE177     -0.0003
     42  CE2       14.3660   47.7160  -57.3970 C.ar  177  PHE177     -0.0003
     43  CZ        13.2300   48.4490  -57.6110 C.ar  177  PHE177     -0.0000
     44  N         21.7970   45.3550  -57.4900 N.3   180  HIS180     -0.1241
     45  CA        22.2780   44.6830  -56.2900 C.3   180  HIS180      0.1621
     46  C         21.5660   43.3620  -56.0780 C.2   180  HIS180      0.2264
     47  O         20.5070   43.1330  -56.6470 O.2   180  HIS180     -0.2867
     48  CB        22.0180   45.5680  -55.0520 C.3   180  HIS180      0.0745
     49  CG        20.5650   45.6550  -54.6420 C.ar  180  HIS180      0.0817
     50  ND1       19.6860   46.5270  -55.2620 N.ar  180  HIS180     -0.2268
     51  CD2       19.8930   44.9790  -53.6740 C.ar  180  HIS180      0.1154
     52  CE1       18.5190   46.3490  -54.6620 C.ar  180  HIS180      0.1986
     53  NE2       18.5930   45.4220  -53.7070 N.ar  180  HIS180     -0.2212
     54  N         20.6420   40.8360  -52.4140 N.3   182  GLU182     -0.1231
     55  CA        20.3770   41.1040  -50.9960 C.3   182  GLU182      0.1699
     56  C         21.6030   40.8450  -50.1200 C.2   182  GLU182      0.2592
     57  O         22.5310   40.1530  -50.5380 O.2   182  GLU182     -0.2718
     58  CB        19.1820   40.2600  -50.5080 C.3   182  GLU182      0.0402
     59  CG        17.8730   40.5530  -51.2240 C.3   182  GLU182      0.1161
     60  CD        17.4710   42.0000  -51.1290 C.2   182  GLU182      0.3649
     61  OE1       17.2050   42.4590  -49.9980 O.co2 182  GLU182     -0.2457
     62  OE2       17.5310   42.7000  -52.1630 O.co2 182  GLU182     -0.2457
     63  N         21.6060   41.3950  -48.9000 N.am  183  ASP183     -0.1974
     64  CA        22.6910   41.1310  -47.9460 C.3   183  ASP183      0.1709
     65  C         22.7380   39.6150  -47.6800 C.2   183  ASP183      0.2293
     66  O         21.6800   38.9860  -47.5450 O.2   183  ASP183     -0.2864
     67  CB        22.5100   41.9250  -46.6340 C.3   183  ASP183      0.1436
     68  CG        22.7050   43.4290  -46.7790 C.2   183  ASP183      0.3671
     69  OD1       23.7620   43.8500  -47.3510 O.co2 183  ASP183     -0.2456
     70  OD2       21.8190   44.1900  -46.3070 O.co2 183  ASP183     -0.2456
     71  N         14.0940   38.4890  -50.4260 N.3   188  SER188     -0.1217
     72  CA        13.4170   39.6800  -49.9430 C.3   188  SER188      0.1889
     73  C         11.9580   39.6590  -50.3590 C.2   188  SER188      0.2288
     74  O         11.5810   38.9530  -51.3090 O.2   188  SER188     -0.2866
     75  CB        14.1320   40.9630  -50.3690 C.3   188  SER188      0.2089
     76  OG        13.7310   41.4430  -51.6410 O.3   188  SER188     -0.2183
     77  N          8.6810   42.5410  -50.8470 N.3   190  ASN190     -0.1240
     78  CA         8.3700   43.9540  -51.0470 C.3   190  ASN190      0.1653
     79  C          6.8760   44.1170  -51.3080 C.2   190  ASN190      0.2266
     80  O          6.3750   43.6140  -52.3020 O.2   190  ASN190     -0.2867
     81  CB         9.2160   44.5410  -52.2050 C.3   190  ASN190      0.1155
     82  CG         9.1690   46.0370  -52.3110 C.2   190  ASN190      0.2627
     83  OD1        8.1680   46.6390  -52.7270 O.2   190  ASN190     -0.2716
     84  ND2       10.2680   46.6720  -51.9650 N.am  190  ASN190     -0.0877
     85  N          5.9270   50.8710  -59.1720 N.3   198  LYS198     -0.1245
     86  CA         7.3630   50.6750  -59.0230 C.3   198  LYS198      0.1561
     87  C          7.7830   49.6570  -60.1010 C.2   198  LYS198      0.2260
     88  O          7.2940   48.5240  -60.1390 O.2   198  LYS198     -0.2867
     89  CB         7.6980   50.1650  -57.6170 C.3   198  LYS198      0.0271
     90  CG         9.1910   49.9310  -57.4070 C.3   198  LYS198      0.0035
     91  CD         9.4900   48.9480  -56.3000 C.3   198  LYS198      0.0206
     92  CE         8.9220   49.2880  -54.9280 C.3   198  LYS198      0.1093
     93  NZ         9.3920   50.6090  -54.4450 N.3   198  LYS198     -0.1314
     94  N         10.5990   47.3660  -62.0270 N.3   200  TRP200     -0.1241
     95  CA        11.7300   46.5270  -61.6510 C.3   200  TRP200      0.1605
     96  C         12.3900   45.9340  -62.8680 C.2   200  TRP200      0.2264
     97  O         11.7080   45.6280  -63.8470 O.2   200  TRP200     -0.2867
     98  CB        11.2230   45.3420  -60.8040 C.3   200  TRP200      0.0550
     99  CG        10.6270   45.6740  -59.4630 C.ar  200  TRP200      0.0003
    100  CD1        9.3980   46.2240  -59.2240 C.ar  200  TRP200      0.0946
    101  CD2       11.1320   45.2540  -58.1840 C.ar  200  TRP200      0.0152
    102  NE1        9.1360   46.2260  -57.8750 N.ar  200  TRP200     -0.2442
    103  CE2       10.1840   45.6410  -57.2120 C.ar  200  TRP200      0.0810
    104  CE3       12.3000   44.5890  -57.7670 C.ar  200  TRP200      0.0012
    105  CZ2       10.3880   45.4250  -55.8460 C.ar  200  TRP200      0.0191
    106  CZ3       12.5050   44.3780  -56.4140 C.ar  200  TRP200      0.0001
    107  CH2       11.5580   44.7910  -55.4710 C.ar  200  TRP200      0.0015
    108  N         25.4550   49.6780  -53.8640 N.3   233  LYS233     -0.1245
    109  CA        24.1910   50.0410  -54.4870 C.3   233  LYS233      0.1561
    110  C         24.1680   51.4200  -55.1320 C.2   233  LYS233      0.2260
    111  O         23.1770   52.1320  -55.0590 O.2   233  LYS233     -0.2867
    112  CB        23.0270   49.8640  -53.5070 C.3   233  LYS233      0.0271
    113  CG        22.8340   48.4260  -53.0730 C.3   233  LYS233      0.0035
    114  CD        21.8790   48.2970  -51.9110 C.3   233  LYS233      0.0206
    115  CE        22.2200   47.0700  -51.0930 C.3   233  LYS233      0.1093
    116  NZ        23.6630   47.0940  -50.7560 N.3   233  LYS233     -0.1314
    117  N         12.1850   38.6020  -54.2440 N.3   262  THR262     -0.1218
    118  CA        13.5120   38.5100  -54.8680 C.3   262  THR262      0.1862
    119  C         14.1550   37.2470  -54.2600 C.2   262  THR262      0.2287
    120  O         13.9750   36.9470  -53.0850 O.2   262  THR262     -0.2866
    121  CB        14.3700   39.7750  -54.6760 C.3   262  THR262      0.1770
    122  OG1       14.9030   39.7920  -53.3610 O.3   262  THR262     -0.2211
    123  CG2       13.6250   41.0720  -54.9700 C.3   262  THR262      0.0375
    124  N         18.7150   42.9040  -58.9770 N.3   268  HIS268     -0.1241
    125  CA        17.5940   43.7680  -59.3430 C.3   268  HIS268      0.1621
    126  C         17.9550   45.2310  -59.2200 C.2   268  HIS268      0.2264
    127  O         18.9020   45.6020  -58.5240 O.2   268  HIS268     -0.2867
    128  CB        16.2850   43.4140  -58.5740 C.3   268  HIS268      0.0745
    129  CG        16.4620   43.2880  -57.0780 C.ar  268  HIS268      0.0817
    130  ND1       17.1010   42.1880  -56.5090 N.ar  268  HIS268     -0.2268
    131  CD2       16.0900   44.1310  -56.0870 C.ar  268  HIS268      0.1154
    132  CE1       17.1140   42.4100  -55.2080 C.ar  268  HIS268      0.1986
    133  NE2       16.5230   43.5710  -54.9060 N.ar  268  HIS268     -0.2212
    134  N          6.4140   51.5070  -49.9350 N.3   278  ALA278     -0.1245
    135  CA         6.7220   50.0660  -49.9820 C.3   278  ALA278      0.1562
    136  C          7.2910   49.5990  -48.6510 C.2   278  ALA278      0.2260
    137  O          8.0420   50.3380  -48.0260 O.2   278  ALA278     -0.2867
    138  CB         7.7110   49.7660  -51.0970 C.3   278  ALA278      0.0290
    139  N          9.5420   46.4850  -46.8170 N.3   280  SER280     -0.1217
    140  CA        10.5140   45.4670  -47.2020 C.3   280  SER280      0.1889
    141  C         11.2260   44.8290  -46.0150 C.2   280  SER280      0.2288
    142  O         11.3640   45.4620  -44.9610 O.2   280  SER280     -0.2866
    143  CB        11.5450   46.1120  -48.1270 C.3   280  SER280      0.2089
    144  OG        12.2240   45.1380  -48.8920 O.3   280  SER280     -0.2183
    145  N         14.0860   40.8950  -45.3690 N.3   282  ASN282     -0.1240
    146  CA        14.7370   39.7150  -45.9170 C.3   282  ASN282      0.1653
    147  C         14.1970   38.4960  -45.1880 C.2   282  ASN282      0.2266
    148  O         13.7180   38.6220  -44.0690 O.2   282  ASN282     -0.2867
    149  CB        16.2690   39.7910  -45.7560 C.3   282  ASN282      0.1155
    150  CG        16.9520   40.7900  -46.6420 C.2   282  ASN282      0.2627
    151  OD1       17.4910   41.7920  -46.1780 O.2   282  ASN282     -0.2716
    152  ND2       17.0160   40.5040  -47.9210 N.am  282  ASN282     -0.0877
@<TRIPOS>BOND
     1    97    96    2
     2    96    95    1
     3    94    95    1
     4    95    98    1
     5    98    99    1
     6    88    87    2
     7    87    86    1
     8    99   100   ar
     9    99   101   ar
    10   125   126    1
    11   125   124    1
    12   125   128    1
    13   100   102   ar
    14   126   127    2
    15    85    86    1
    16    86    89    1
    17   128   129    1
    18    36    35    2
    19   101   104   ar
    20   101   103   ar
    21   102   103   ar
    22   104   106   ar
    23    89    90    1
    24    43    42   ar
    25    43    41   ar
    26    44    45    1
    27    35    34    1
    28    90    91    1
    29    42    40   ar
    30   103   105   ar
    31    41    39   ar
    32    33    34    1
    33   129   130   ar
    34   129   131   ar
    35    40    38   ar
    36    47    46    2
    37    39    38   ar
    38   130   132   ar
    39    34    37    1
    40   106   107   ar
    41    38    37    1
    42    91    92    1
    43    45    46    1
    44    45    48    1
    45   131   133   ar
    46   105   107   ar
    47    50    52   ar
    48    50    49   ar
    49   132   133   ar
    50   110   111    2
    51   110   109    1
    52    48    49    1
    53   123   121    1
    54    92    93    1
    55   118   121    1
    56   118   119    1
    57   118   117    1
    58   121   122    1
    59    52    53   ar
    60    49    51   ar
    61   109   108    1
    62   109   112    1
    63   119   120    2
    64    53    51   ar
    65   112   113    1
    66   113   114    1
    67    12    11    1
    68    10    11   ar
    69    10     8   ar
    70    11     9   ar
    71    83    82    2
    72     8     6   ar
    73     9     7   ar
    74    54    55    1
    75    82    81    1
    76    82    84   am
    77    80    79    2
    78     6     7   ar
    79     6     5    1
    80    81    78    1
    81    62    60   ar
    82     5     2    1
    83   114   115    1
    84     1     2    1
    85    76    75    1
    86     2     3    1
    87    74    73    2
    88    79    78    1
    89    59    60    1
    90    59    58    1
    91    60    61   ar
    92   138   135    1
    93   115   116    1
    94    78    77    1
    95    55    58    1
    96    55    56    1
    97    57    56    2
    98    71    72    1
    99    75    72    1
   100    73    72    1
   101    56    63   am
   102   135   134    1
   103   135   136    1
   104     3     4    2
   105    24    23    2
   106    25    26    1
   107    25    22    1
   108    28    26   ar
   109    28    30   ar
   110    23    22    1
   111    26    27   ar
   112    63    64    1
   113   144   143    1
   114    30    31   ar
   115   136   137    2
   116    27    29   ar
   117    22    21    1
   118    31    29   ar
   119    31    32    1
   120   143   140    1
   121    64    65    1
   122    64    67    1
   123   152   150   am
   124    65    66    2
   125    69    68   ar
   126   140   139    1
   127   140   141    1
   128    68    67    1
   129    68    70   ar
   130   150   151    2
   131   150   149    1
   132    19    18   ar
   133    20    18   ar
   134   141   142    2
   135    13    14    1
   136   146   149    1
   137   146   145    1
   138   146   147    1
   139    18    17    1
   140   147   148    2
   141    14    17    1
   142    14    15    1
   143    15    16    2
