@<TRIPOS>MOLECULE
tmp/5f33A00.pdb
 145 136 0 0 0
SMALL
GASTEIGER

@<TRIPOS>ATOM
      1  N         56.3710   -2.3290   17.3400 N.3    24  HIS24      -0.1241
      2  CA        57.0610   -1.8950   16.1290 C.3    24  HIS24       0.1621
      3  C         56.3220   -2.4220   14.8860 C.2    24  HIS24       0.2264
      4  O         55.6970   -3.4940   14.8760 O.2    24  HIS24      -0.2867
      5  CB        58.5420   -2.2930   16.1550 C.3    24  HIS24       0.0745
      6  CG        59.3280   -1.7050   15.0260 C.ar   24  HIS24       0.0817
      7  ND1       59.4840   -2.3640   13.8370 N.ar   24  HIS24      -0.2268
      8  CD2       59.9280   -0.5040   14.8740 C.ar   24  HIS24       0.1154
      9  CE1       60.1640   -1.6010   13.0100 C.ar   24  HIS24       0.1986
     10  NE2       60.4380   -0.4630   13.6070 N.ar   24  HIS24      -0.2212
     11  N         57.3840   -4.0050   12.4330 N.3    26  TYR26      -0.1241
     12  CA        57.8090   -5.2960   11.8950 C.3    26  TYR26       0.1605
     13  C         57.2300   -6.4520   12.6870 C.2    26  TYR26       0.2264
     14  O         57.5270   -7.6100   12.4120 O.2    26  TYR26      -0.2867
     15  CB        59.3160   -5.4370   11.8390 C.3    26  TYR26       0.0534
     16  CG        60.0580   -4.4400   10.9730 C.ar   26  TYR26      -0.0201
     17  CD1       59.3980   -3.6730   10.0140 C.ar   26  TYR26      -0.0009
     18  CD2       61.4320   -4.2430   11.1350 C.ar   26  TYR26      -0.0009
     19  CE1       60.0910   -2.7790    9.2180 C.ar   26  TYR26       0.0417
     20  CE2       62.1150   -3.3330   10.3430 C.ar   26  TYR26       0.0417
     21  CZ        61.4380   -2.5920    9.4030 C.ar   26  TYR26       0.1957
     22  OH        62.1580   -1.7140    8.6180 O.3    26  TYR26      -0.2866
     23  N         57.0930    3.3210   14.0480 N.3    40  ASP40      -0.1225
     24  CA        58.5080    3.1360   13.8040 C.3    40  ASP40       0.1805
     25  C         59.3170    3.4930   15.0400 C.2    40  ASP40       0.2598
     26  O         58.7410    3.8410   16.1010 O.2    40  ASP40      -0.2718
     27  CB        58.9550    3.8550   12.5400 C.3    40  ASP40       0.1424
     28  CG        59.1500    5.3390   12.6820 C.2    40  ASP40       0.3668
     29  OD1       58.8890    5.9480   13.7250 O.co2  40  ASP40      -0.2456
     30  OD2       59.6240    5.9440   11.6520 O.co2  40  ASP40      -0.2456
     31  N         60.6530    3.3860   14.9650 N.am   41  SER41      -0.1938
     32  CA        61.4530    3.5470   16.1950 C.3    41  SER41       0.2055
     33  C         61.3000    4.9490   16.7740 C.2    41  SER41       0.2642
     34  O         61.1710    5.1140   18.0120 O.2    41  SER41      -0.2714
     35  CB        62.9060    3.2030   15.9350 C.3    41  SER41       0.2130
     36  OG        63.0340    1.8500   15.5470 O.3    41  SER41      -0.2179
     37  N         61.2670    5.9670   15.9150 N.am   42  LEU42      -0.1977
     38  CA        61.1430    7.3470   16.3910 C.3    42  LEU42       0.1596
     39  C         59.7700    7.5800   16.9950 C.2    42  LEU42       0.2287
     40  O         59.6520    8.2400   18.0430 O.2    42  LEU42      -0.2864
     41  CB        61.4030    8.3650   15.2840 C.3    42  LEU42       0.0297
     42  CG        61.2930    9.8570   15.6630 C.3    42  LEU42       0.0022
     43  CD1       62.2720   10.1850   16.7830 C.3    42  LEU42       0.0001
     44  CD2       61.5610   10.7270   14.4460 C.3    42  LEU42       0.0001
     45  N         62.3040   -5.2610   19.4880 N.3    61  VAL61      -0.1245
     46  CA        63.5840   -5.8350   19.8960 C.3    61  VAL61       0.1561
     47  C         64.1670   -5.1000   21.0770 C.2    61  VAL61       0.2260
     48  O         63.7470   -3.9540   21.4030 O.2    61  VAL61      -0.2867
     49  CB        64.5940   -5.9360   18.7770 C.3    61  VAL61       0.0252
     50  CG1       64.1120   -6.9100   17.6960 C.3    61  VAL61       0.0019
     51  CG2       64.9020   -4.5520   18.2120 C.3    61  VAL61       0.0019
     52  N         68.6430   -6.9890   17.8980 N.3    86  CYS86      -0.1235
     53  CA        69.1220   -6.6600   16.5470 C.3    86  CYS86       0.1677
     54  C         70.5980   -7.0910   16.4360 C.2    86  CYS86       0.2270
     55  O         71.4430   -6.5480   17.1170 O.2    86  CYS86      -0.2867
     56  CB        68.9860   -5.1660   16.2780 C.3    86  CYS86       0.0956
     57  SG        69.7120   -4.6850   14.6980 S.3    86  CYS86      -0.0801
     58  N         72.8000    5.0680   16.0010 N.3   112  PHE112     -0.1241
     59  CA        71.5080    4.5630   15.5900 C.3   112  PHE112      0.1605
     60  C         70.8980    3.8470   16.8010 C.2   112  PHE112      0.2264
     61  O         71.5860    3.2650   17.6380 O.2   112  PHE112     -0.2867
     62  CB        71.7500    3.6480   14.3790 C.3   112  PHE112      0.0534
     63  CG        70.5230    3.0510   13.7590 C.ar  112  PHE112     -0.0203
     64  CD1       69.4450    3.8520   13.3730 C.ar  112  PHE112     -0.0042
     65  CD2       70.4680    1.6790   13.4890 C.ar  112  PHE112     -0.0042
     66  CE1       68.3270    3.2870   12.7850 C.ar  112  PHE112     -0.0003
     67  CE2       69.3360    1.1070   12.9070 C.ar  112  PHE112     -0.0003
     68  CZ        68.2730    1.9160   12.5530 C.ar  112  PHE112     -0.0000
     69  N         69.4230    1.0500   17.1210 N.3   114  ASN114     -0.1240
     70  CA        69.7910   -0.3490   17.2490 C.3   114  ASN114      0.1653
     71  C         71.2460   -0.4670   17.6840 C.2   114  ASN114      0.2266
     72  O         72.1490   -0.7140   16.8860 O.2   114  ASN114     -0.2867
     73  CB        69.4490   -1.1330   15.9840 C.3   114  ASN114      0.1155
     74  CG        67.9370   -1.2350   15.7610 C.2   114  ASN114      0.2627
     75  OD1       67.1090   -0.8020   16.6040 O.2   114  ASN114     -0.2716
     76  ND2       67.5600   -1.7990   14.6280 N.am  114  ASN114     -0.0877
     77  N         67.3360    7.7670   14.7860 N.3   128  THR128     -0.1203
     78  CA        66.6680    6.6670   14.1230 C.3   128  THR128      0.1994
     79  C         66.7560    6.9300   12.6260 C.2   128  THR128      0.2618
     80  O         67.2520    7.9590   12.1890 O.2   128  THR128     -0.2717
     81  CB        65.1740    6.5440   14.5130 C.3   128  THR128      0.1784
     82  OG1       64.4110    7.4760   13.7610 O.3   128  THR128     -0.2211
     83  CG2       64.9690    6.7680   15.9920 C.3   128  THR128      0.0376
     84  N         66.2270    6.0070   11.8440 N.am  129  SER129     -0.1951
     85  CA        66.2340    6.1300   10.3820 C.3   129  SER129      0.1924
     86  C         65.5160    7.3880    9.9060 C.2   129  SER129      0.2314
     87  O         65.8760    7.9840    8.8910 O.2   129  SER129     -0.2863
     88  CB        65.5610    4.8990    9.7740 C.3   129  SER129      0.2116
     89  OG        66.0160    3.7250   10.4240 O.3   129  SER129     -0.2180
     90  N         72.2500   -4.1660    8.0300 N.3   173  CYS173     -0.1235
     91  CA        71.0450   -4.9330    8.3360 C.3   173  CYS173      0.1677
     92  C         70.8780   -5.9440    7.2190 C.2   173  CYS173      0.2270
     93  O         70.6120   -5.5330    6.0890 O.2   173  CYS173     -0.2867
     94  CB        69.8270   -4.0110    8.3900 C.3   173  CYS173      0.0956
     95  SG        68.2810   -4.9690    8.4130 S.3   173  CYS173     -0.0801
     96  N         67.5810   -5.7150    4.8990 N.3   176  HIS176     -0.1241
     97  CA        67.4360   -4.6550    3.9080 C.3   176  HIS176      0.1621
     98  C         68.4280   -4.7630    2.7430 C.2   176  HIS176      0.2264
     99  O         68.5040   -3.8510    1.8940 O.2   176  HIS176     -0.2867
    100  CB        67.5620   -3.3070    4.6130 C.3   176  HIS176      0.0745
    101  CG        66.3290   -2.9310    5.3590 C.ar  176  HIS176      0.0817
    102  ND1       66.1550   -3.1960    6.7020 N.ar  176  HIS176     -0.2268
    103  CD2       65.1740   -2.3790    4.9280 C.ar  176  HIS176      0.1154
    104  CE1       64.9590   -2.7830    7.0710 C.ar  176  HIS176      0.1986
    105  NE2       64.3530   -2.2640    6.0240 N.ar  176  HIS176     -0.2212
    106  N         63.8740    1.6700    2.4630 N.3   198  HIS198     -0.1241
    107  CA        64.4380    2.1010    3.7280 C.3   198  HIS198      0.1621
    108  C         65.8510    2.6130    3.5450 C.2   198  HIS198      0.2264
    109  O         66.5490    2.0910    2.6930 O.2   198  HIS198     -0.2867
    110  CB        64.4650    0.8990    4.6640 C.3   198  HIS198      0.0745
    111  CG        64.4930    1.2750    6.0950 C.ar  198  HIS198      0.0817
    112  ND1       65.6570    1.6100    6.7390 N.ar  198  HIS198     -0.2268
    113  CD2       63.4940    1.4570    6.9920 C.ar  198  HIS198      0.1154
    114  CE1       65.3810    1.9520    7.9820 C.ar  198  HIS198      0.1986
    115  NE2       64.0770    1.8660    8.1520 N.ar  198  HIS198     -0.2212
    116  N         68.3690    1.9540    5.2620 N.3   200  GLU200     -0.1245
    117  CA        69.2620    0.8300    5.5950 C.3   200  GLU200      0.1567
    118  C         69.5830   -0.0200    4.3600 C.2   200  GLU200      0.2260
    119  O         70.4600   -0.8780    4.4210 O.2   200  GLU200     -0.2867
    120  CB        68.6410   -0.0750    6.6860 C.3   200  GLU200      0.0388
    121  CG        68.6710    0.5260    8.0920 C.3   200  GLU200      0.1160
    122  CD        67.7760   -0.2020    9.0740 C.2   200  GLU200      0.3649
    123  OE1       67.5260   -1.4230    8.9190 O.co2 200  GLU200     -0.2457
    124  OE2       67.2830    0.4540    9.9890 O.co2 200  GLU200     -0.2457
    125  N         62.2400    6.0940    6.6640 N.3   214  SER214     -0.1202
    126  CA        61.8870    5.1760    7.7360 C.3   214  SER214      0.2020
    127  C         60.5180    4.5740    7.4650 C.2   214  SER214      0.2619
    128  O         59.7460    5.1100    6.7050 O.2   214  SER214     -0.2717
    129  CB        61.8150    5.9250    9.0590 C.3   214  SER214      0.2103
    130  OG        60.6890    6.7920    9.0990 O.3   214  SER214     -0.2182
    131  N         60.1530    3.5700    8.2380 N.am  215  THR215     -0.1952
    132  CA        58.8390    2.9770    8.0690 C.3   215  THR215      0.1897
    133  C         57.7310    3.9940    8.4090 C.2   215  THR215      0.2313
    134  O         56.7220    4.0090    7.7610 O.2   215  THR215     -0.2863
    135  CB        58.6890    1.6680    8.8270 C.3   215  THR215      0.1794
    136  OG1       58.8020    1.9000   10.2340 O.3   215  THR215     -0.2208
    137  CG2       59.7590    0.6570    8.3870 C.3   215  THR215      0.0378
    138  N         62.4470   -9.9900   15.0040 N.3   262  MET262     -0.1245
    139  CA        61.1280   -9.3620   15.1490 C.3   262  MET262      0.1570
    140  C         59.9990  -10.3670   15.1820 C.2   262  MET262      0.2261
    141  O         58.9810  -10.1140   15.8100 O.2   262  MET262     -0.2867
    142  CB        60.8960   -8.3510   14.0220 C.3   262  MET262      0.0387
    143  CG        61.7340   -7.0850   14.1610 C.3   262  MET262      0.0595
    144  SD        61.0040   -5.9950   15.3970 S.3   262  MET262     -0.1393
    145  CE        62.0380   -4.5570   15.1070 C.3   262  MET262      0.0692
@<TRIPOS>BOND
     1    99    98    2
     2   106   107    1
     3   109   108    2
     4    98    97    1
     5   108   107    1
     6   107   110    1
     7    97   100    1
     8    97    96    1
     9   118   119    2
    10   118   117    1
    11   100   101    1
    12   110   111    1
    13   103   101   ar
    14   103   105   ar
    15   116   117    1
    16   101   102   ar
    17   117   120    1
    18   105   104   ar
    19    93    92    2
    20   111   112   ar
    21   111   113   ar
    22   125   126    1
    23   120   121    1
    24   102   104   ar
    25   128   127    2
    26   112   114   ar
    27   113   115   ar
    28    92    91    1
    29   127   126    1
    30   127   131   am
    31   126   129    1
    32   134   133    2
    33   114   115   ar
    34    90    91    1
    35   132   131    1
    36   132   133    1
    37   132   135    1
    38   121   122    1
    39    91    94    1
    40   137   135    1
    41    94    95    1
    42    22    21    1
    43   135   136    1
    44    87    86    2
    45   123   122   ar
    46   129   130    1
    47   122   124   ar
    48    19    21   ar
    49    19    17   ar
    50    21    20   ar
    51    88    85    1
    52    88    89    1
    53    86    85    1
    54    17    16   ar
    55    20    18   ar
    56    85    84    1
    57    16    18   ar
    58    16    15    1
    59    30    28   ar
    60    15    12    1
    61    84    79   am
    62    12    11    1
    63    12    13    1
    64    80    79    2
    65    14    13    2
    66    27    28    1
    67    27    24    1
    68    68    66   ar
    69    68    67   ar
    70    79    78    1
    71    28    29   ar
    72    66    64   ar
    73    67    65   ar
    74     9    10   ar
    75     9     7   ar
    76    64    63   ar
    77    65    63   ar
    78    10     8   ar
    79    63    62    1
    80    82    81    1
    81    24    23    1
    82    24    25    1
    83     7     6   ar
    84   142   143    1
    85   142   139    1
    86    78    81    1
    87    78    77    1
    88   143   144    1
    89    62    59    1
    90    44    42    1
    91    81    83    1
    92    76    74   am
    93    57    56    1
    94     8     6   ar
    95     4     3    2
    96     3     2    1
    97    31    25   am
    98    31    32    1
    99   138   139    1
   100     6     5    1
   101    25    26    2
   102   145   144    1
   103   139   140    1
   104   140   141    2
   105    41    42    1
   106    41    38    1
   107    36    35    1
   108    59    58    1
   109    59    60    1
   110    42    43    1
   111    74    73    1
   112    74    75    2
   113    37    38    1
   114    37    33   am
   115    35    32    1
   116    73    70    1
   117     2     5    1
   118     2     1    1
   119    32    33    1
   120    56    53    1
   121    38    39    1
   122    54    53    1
   123    54    55    2
   124    53    52    1
   125    33    34    2
   126    60    61    2
   127    72    71    2
   128    39    40    2
   129    69    70    1
   130    70    71    1
   131    50    49    1
   132    51    49    1
   133    49    46    1
   134    45    46    1
   135    46    47    1
   136    47    48    2
