@<TRIPOS>MOLECULE
tmp/5f37B00.pdb
 121 115 0 0 0
SMALL
GASTEIGER

@<TRIPOS>ATOM
      1  N        -15.4830 -133.2070   51.6790 N.3   132  TYR132     -0.1241
      2  CA       -14.9320 -134.5560   51.4910 C.3   132  TYR132      0.1605
      3  C        -14.9160 -134.8290   49.9880 C.2   132  TYR132      0.2264
      4  O        -15.9580 -134.7680   49.3310 O.2   132  TYR132     -0.2867
      5  CB       -15.7980 -135.5930   52.2430 C.3   132  TYR132      0.0534
      6  CG       -15.1190 -136.8840   52.6410 C.ar  132  TYR132     -0.0201
      7  CD1      -13.7910 -137.1310   52.3040 C.ar  132  TYR132     -0.0009
      8  CD2      -15.7950 -137.8480   53.3880 C.ar  132  TYR132     -0.0009
      9  CE1      -13.1600 -138.3180   52.6590 C.ar  132  TYR132      0.0417
     10  CE2      -15.1690 -139.0380   53.7700 C.ar  132  TYR132      0.0417
     11  CZ       -13.8440 -139.2630   53.4080 C.ar  132  TYR132      0.1957
     12  OH       -13.1880 -140.4040   53.7780 O.3   132  TYR132     -0.2866
     13  N        -15.0090 -137.3840   48.2270 N.3   134  ALA134     -0.1245
     14  CA       -15.4510 -138.7700   48.3530 C.3   134  ALA134      0.1562
     15  C        -16.0230 -139.4120   47.0990 C.2   134  ALA134      0.2260
     16  O        -16.5520 -138.7350   46.2190 O.2   134  ALA134     -0.2867
     17  CB       -16.4570 -138.8690   49.4800 C.3   134  ALA134      0.0290
     18  N        -10.8950 -141.4800   48.0250 N.3   177  TYR177     -0.1241
     19  CA       -11.4560 -140.5660   49.0280 C.3   177  TYR177      0.1605
     20  C        -10.3730 -139.5860   49.4400 C.2   177  TYR177      0.2264
     21  O         -9.3930 -139.9810   50.0710 O.2   177  TYR177     -0.2867
     22  CB       -11.9290 -141.3250   50.2900 C.3   177  TYR177      0.0534
     23  CG       -13.0370 -142.3130   50.0320 C.ar  177  TYR177     -0.0201
     24  CD1      -14.3700 -141.9160   50.0750 C.ar  177  TYR177     -0.0009
     25  CD2      -12.7590 -143.6560   49.7740 C.ar  177  TYR177     -0.0009
     26  CE1      -15.4020 -142.8130   49.8110 C.ar  177  TYR177      0.0417
     27  CE2      -13.7870 -144.5690   49.5180 C.ar  177  TYR177      0.0417
     28  CZ       -15.1100 -144.1390   49.5390 C.ar  177  TYR177      0.1957
     29  OH       -16.1510 -145.0080   49.3390 O.3   177  TYR177     -0.2866
     30  N        -17.2590 -140.8140   57.7860 N.3   185  PHE185     -0.1241
     31  CA       -18.1840 -141.7760   57.2440 C.3   185  PHE185      0.1605
     32  C        -19.0960 -142.2170   58.3900 C.2   185  PHE185      0.2264
     33  O        -18.6560 -142.4420   59.4940 O.2   185  PHE185     -0.2867
     34  CB       -17.5040 -142.9310   56.4720 C.3   185  PHE185      0.0534
     35  CG       -16.3270 -143.5660   57.1720 C.ar  185  PHE185     -0.0203
     36  CD1      -15.0980 -142.9390   57.2200 C.ar  185  PHE185     -0.0042
     37  CD2      -16.4500 -144.8000   57.7590 C.ar  185  PHE185     -0.0042
     38  CE1      -14.0280 -143.5250   57.8460 C.ar  185  PHE185     -0.0003
     39  CE2      -15.3830 -145.3910   58.3850 C.ar  185  PHE185     -0.0003
     40  CZ       -14.1710 -144.7580   58.4310 C.ar  185  PHE185     -0.0000
     41  N        -22.2950 -147.8770   58.9210 N.3   188  HIS188     -0.1241
     42  CA       -22.8370 -148.6480   57.8220 C.3   188  HIS188      0.1621
     43  C        -22.1470 -149.9910   57.6800 C.2   188  HIS188      0.2264
     44  O        -21.0870 -150.1990   58.2350 O.2   188  HIS188     -0.2867
     45  CB       -22.6420 -147.8860   56.5120 C.3   188  HIS188      0.0745
     46  CG       -21.2170 -147.8240   56.0730 C.ar  188  HIS188      0.0817
     47  ND1      -20.2830 -147.0480   56.7070 N.ar  188  HIS188     -0.2268
     48  CD2      -20.5580 -148.4770   55.0960 C.ar  188  HIS188      0.1154
     49  CE1      -19.1140 -147.2090   56.1300 C.ar  188  HIS188      0.1986
     50  NE2      -19.2520 -148.0780   55.1530 N.ar  188  HIS188     -0.2212
     51  N        -21.3800 -152.9070   54.3630 N.3   190  GLU190     -0.1245
     52  CA       -21.1770 -152.6990   52.9210 C.3   190  GLU190      0.1567
     53  C        -22.4410 -153.0410   52.1110 C.2   190  GLU190      0.2260
     54  O        -23.3580 -153.6510   52.6490 O.2   190  GLU190     -0.2867
     55  CB       -19.9750 -153.5110   52.4340 C.3   190  GLU190      0.0388
     56  CG       -18.6710 -153.1160   53.1040 C.3   190  GLU190      0.1160
     57  CD       -18.3360 -151.6510   52.9500 C.2   190  GLU190      0.3649
     58  OE1      -18.1640 -151.2020   51.7970 O.co2 190  GLU190     -0.2457
     59  OE2      -18.2800 -150.9430   53.9780 O.co2 190  GLU190     -0.2457
     60  N        -14.8760 -155.3220   52.4710 N.3   196  SER196     -0.1217
     61  CA       -14.2640 -154.1550   51.8530 C.3   196  SER196      0.1889
     62  C        -12.8070 -154.1040   52.2370 C.2   196  SER196      0.2288
     63  O        -12.3950 -154.6850   53.2470 O.2   196  SER196     -0.2866
     64  CB       -14.9850 -152.8460   52.1760 C.3   196  SER196      0.2089
     65  OG       -14.7440 -152.3640   53.4840 O.3   196  SER196     -0.2183
     66  N         -9.5510 -151.1200   52.2310 N.3   198  ASN198     -0.1240
     67  CA        -9.2700 -149.6860   52.2670 C.3   198  ASN198      0.1653
     68  C         -7.7920 -149.5470   52.5120 C.2   198  ASN198      0.2266
     69  O         -7.2770 -150.0180   53.5150 O.2   198  ASN198     -0.2867
     70  CB       -10.0830 -148.9600   53.3870 C.3   198  ASN198      0.1155
     71  CG        -9.9330 -147.4370   53.4030 C.2   198  ASN198      0.2627
     72  OD1       -8.8620 -146.8770   53.7490 O.2   198  ASN198     -0.2716
     73  ND2      -11.0200 -146.7190   53.0770 N.am  198  ASN198     -0.0877
     74  N         -6.6290 -141.9090   59.5500 N.3   206  LYS206     -0.1245
     75  CA        -8.0530 -142.1540   59.4530 C.3   206  LYS206      0.1561
     76  C         -8.4110 -143.0250   60.6400 C.2   206  LYS206      0.2260
     77  O         -7.8880 -144.1290   60.7670 O.2   206  LYS206     -0.2867
     78  CB        -8.3880 -142.8550   58.1250 C.3   206  LYS206      0.0271
     79  CG        -9.8890 -143.0330   57.8800 C.3   206  LYS206      0.0035
     80  CD       -10.1730 -143.9960   56.7220 C.3   206  LYS206      0.0206
     81  CE        -9.7360 -143.5220   55.3420 C.3   206  LYS206      0.1093
     82  NZ       -10.4170 -142.2660   54.9000 N.3   206  LYS206     -0.1314
     83  N        -11.1050 -145.2590   62.9180 N.3   208  TRP208     -0.1241
     84  CA       -12.2490 -146.1300   62.7030 C.3   208  TRP208      0.1605
     85  C        -12.8600 -146.6140   64.0140 C.2   208  TRP208      0.2264
     86  O        -12.1620 -146.8010   65.0020 O.2   208  TRP208     -0.2867
     87  CB       -11.7950 -147.3940   61.9350 C.3   208  TRP208      0.0550
     88  CG       -11.1940 -147.1890   60.5690 C.ar  208  TRP208      0.0003
     89  CD1       -9.9910 -146.6170   60.2770 C.ar  208  TRP208      0.0946
     90  CD2      -11.6900 -147.7330   59.3390 C.ar  208  TRP208      0.0152
     91  NE1       -9.7660 -146.6610   58.9260 N.ar  208  TRP208     -0.2442
     92  CE2      -10.7860 -147.3560   58.3230 C.ar  208  TRP208      0.0810
     93  CE3      -12.8300 -148.4940   58.9920 C.ar  208  TRP208      0.0012
     94  CZ2      -10.9830 -147.7050   56.9790 C.ar  208  TRP208      0.0191
     95  CZ3      -13.0230 -148.8340   57.6620 C.ar  208  TRP208      0.0001
     96  CH2      -12.1100 -148.4380   56.6730 C.ar  208  TRP208      0.0015
     97  N        -26.1080 -143.8320   54.9170 N.3   241  LYS241     -0.1245
     98  CA       -24.8230 -143.3320   55.4160 C.3   241  LYS241      0.1561
     99  C        -24.9590 -141.9080   55.9990 C.2   241  LYS241      0.2260
    100  O        -24.1350 -141.0250   55.7430 O.2   241  LYS241     -0.2867
    101  CB       -23.7570 -143.4160   54.3110 C.3   241  LYS241      0.0271
    102  CG       -22.7750 -144.5390   54.5030 C.3   241  LYS241      0.0035
    103  CD       -21.3670 -144.0610   54.2550 C.3   241  LYS241      0.0206
    104  CE       -20.9190 -144.1660   52.8210 C.3   241  LYS241      0.1093
    105  NZ       -19.4230 -144.0210   52.6610 N.3   241  LYS241     -0.1314
    106  N        -19.2330 -150.0420   60.6920 N.3   276  HIS276     -0.1241
    107  CA       -18.0690 -149.1880   60.9330 C.3   276  HIS276      0.1621
    108  C        -18.4120 -147.7460   60.6230 C.2   276  HIS276      0.2264
    109  O        -19.3070 -147.4810   59.8390 O.2   276  HIS276     -0.2867
    110  CB       -16.8120 -149.6730   60.1650 C.3   276  HIS276      0.0745
    111  CG       -17.0370 -149.8640   58.6940 C.ar  276  HIS276      0.0817
    112  ND1      -17.7230 -150.9640   58.2010 N.ar  276  HIS276     -0.2268
    113  CD2      -16.6920 -149.0680   57.6630 C.ar  276  HIS276      0.1154
    114  CE1      -17.7700 -150.8050   56.8910 C.ar  276  HIS276      0.1986
    115  NE2      -17.1710 -149.6650   56.5210 N.ar  276  HIS276     -0.2212
    116  N        -10.5500 -147.6070   47.8620 N.3   288  SER288     -0.1217
    117  CA       -11.4400 -148.6290   48.4060 C.3   288  SER288      0.1889
    118  C        -12.2820 -149.3640   47.3620 C.2   288  SER288      0.2288
    119  O        -12.5810 -148.8200   46.3130 O.2   288  SER288     -0.2866
    120  CB       -12.3440 -147.9910   49.4610 C.3   288  SER288      0.2089
    121  OG       -13.2360 -148.9110   50.0570 O.3   288  SER288     -0.2183
@<TRIPOS>BOND
     1    16    15    2
     2   119   118    2
     3    15    14    1
     4   118   117    1
     5   116   117    1
     6    18    19    1
     7    13    14    1
     8    14    17    1
     9   117   120    1
    10    19    20    1
    11    19    22    1
    12     4     3    2
    13    29    28    1
    14    20    21    2
    15   120   121    1
    16    27    28   ar
    17    27    25   ar
    18    28    26   ar
    19    25    23   ar
    20    26    24   ar
    21     3     2    1
    22    23    24   ar
    23    23    22    1
    24     2     1    1
    25     2     5    1
    26    58    57   ar
    27    61    64    1
    28    61    62    1
    29    61    60    1
    30    53    54    2
    31    53    52    1
    32    64    65    1
    33    66    67    1
    34    62    63    2
    35     5     6    1
    36    67    68    1
    37    67    70    1
    38     7     6   ar
    39     7     9   ar
    40    55    52    1
    41    55    56    1
    42    68    69    2
    43     6     8   ar
    44     9    11   ar
    45   105   104    1
    46   104   103    1
    47    52    51    1
    48    57    56    1
    49    57    59   ar
    50    73    71   am
    51    70    71    1
    52     8    10   ar
    53    71    72    2
    54    11    10   ar
    55    11    12    1
    56   103   102    1
    57   101   102    1
    58   101    98    1
    59    82    81    1
    60    97    98    1
    61    48    50   ar
    62    48    46   ar
    63    50    49   ar
    64    81    80    1
    65    98    99    1
    66   100    99    2
    67    46    45    1
    68    46    47   ar
    69    49    47   ar
    70    34    35    1
    71    34    31    1
    72    45    42    1
    73   115   114   ar
    74   115   113   ar
    75    96    94   ar
    76    96    95   ar
    77    80    79    1
    78   114   112   ar
    79    94    92   ar
    80    35    36   ar
    81    35    37   ar
    82    36    38   ar
    83    31    30    1
    84    31    32    1
    85    95    93   ar
    86   113   111   ar
    87    43    42    1
    88    43    44    2
    89    37    39   ar
    90    42    41    1
    91    38    40   ar
    92    79    78    1
    93    78    75    1
    94   112   111   ar
    95    92    91   ar
    96    92    90   ar
    97    39    40   ar
    98    32    33    2
    99   111   110    1
   100    91    89   ar
   101    93    90   ar
   102    90    88   ar
   103    75    74    1
   104    75    76    1
   105   109   108    2
   106   110   107    1
   107    89    88   ar
   108    88    87    1
   109   108   107    1
   110    76    77    2
   111   106   107    1
   112    87    84    1
   113    84    83    1
   114    84    85    1
   115    85    86    2
