@<TRIPOS>MOLECULE
tmp/5f38A00.pdb
 212 199 0 0 0
SMALL
GASTEIGER

@<TRIPOS>ATOM
      1  N         -2.2210   -6.5900   92.7060 N.3    17  PHE17      -0.1241
      2  CA        -1.2850   -5.4330   93.0080 C.3    17  PHE17       0.1605
      3  C         -1.4140   -4.3830   91.8890 C.2    17  PHE17       0.2264
      4  O         -1.3250   -4.7310   90.7430 O.2    17  PHE17      -0.2867
      5  CB         0.1280   -6.0060   93.1250 C.3    17  PHE17       0.0534
      6  CG         1.1490   -5.0720   93.6840 C.ar   17  PHE17      -0.0203
      7  CD1        0.8710   -4.2670   94.7900 C.ar   17  PHE17      -0.0042
      8  CD2        2.4280   -5.0380   93.1390 C.ar   17  PHE17      -0.0042
      9  CE1        1.8620   -3.4260   95.3070 C.ar   17  PHE17      -0.0003
     10  CE2        3.3910   -4.1950   93.6520 C.ar   17  PHE17      -0.0003
     11  CZ         3.1040   -3.4080   94.7440 C.ar   17  PHE17      -0.0000
     12  N         -2.4630   -3.5140   99.9700 N.3   116  MET116     -0.1245
     13  CA        -1.0260   -3.5660   99.7700 C.3   116  MET116      0.1570
     14  C         -0.5940   -2.6420   98.6310 C.2   116  MET116      0.2261
     15  O          0.4620   -2.0150   98.7410 O.2   116  MET116     -0.2867
     16  CB        -0.6070   -5.0010   99.5760 C.3   116  MET116      0.0387
     17  CG        -1.0430   -5.8530  100.7950 C.3   116  MET116      0.0595
     18  SD        -0.5470   -7.5420  100.5940 S.3   116  MET116     -0.1393
     19  CE         1.1420   -7.5810  101.1120 C.3   116  MET116      0.0692
     20  N          5.4910   -6.1350  106.4480 N.3   146  GLY146     -0.1210
     21  CA         4.6100   -7.1910  105.9480 C.3   146  GLY146      0.1956
     22  C          5.3300   -8.4690  105.5990 C.2   146  GLY146      0.2611
     23  O          4.9500   -9.5420  106.0830 O.2   146  GLY146     -0.2717
     24  N          6.3080   -8.3740  104.6660 N.am  147  LEU147     -0.1979
     25  CA         6.8630   -9.5320  104.0040 C.3   147  LEU147      0.1596
     26  C          8.2860   -9.9270  104.3420 C.2   147  LEU147      0.2287
     27  O          8.7240  -10.9810  103.9290 O.2   147  LEU147     -0.2864
     28  CB         6.7570   -9.3190  102.4900 C.3   147  LEU147      0.0297
     29  CG         5.5130   -9.7950  101.7790 C.3   147  LEU147      0.0022
     30  CD1        4.2230   -9.7770  102.5190 C.3   147  LEU147      0.0001
     31  CD2        5.3750   -9.1950  100.3560 C.3   147  LEU147      0.0001
     32  N         13.2130  -12.3540  103.1910 N.3   155  HIS155     -0.1226
     33  CA        11.8200  -12.4220  102.7900 C.3   155  HIS155      0.1752
     34  C         11.0970  -13.6660  103.3150 C.2   155  HIS155      0.2595
     35  O         11.7210  -14.6970  103.5310 O.2   155  HIS155     -0.2718
     36  CB        11.7500  -12.4300  101.2390 C.3   155  HIS155      0.0759
     37  CG        10.4670  -11.9060  100.6850 C.ar  155  HIS155      0.0818
     38  ND1        9.3290  -12.6720  100.5890 N.ar  155  HIS155     -0.2268
     39  CD2       10.1500  -10.6940  100.1650 C.ar  155  HIS155      0.1154
     40  CE1        8.3680  -11.9620  100.0260 C.ar  155  HIS155      0.1986
     41  NE2        8.8440  -10.7580   99.7610 N.ar  155  HIS155     -0.2212
     42  N          9.7740  -13.5720  103.4910 N.am  156  MET156     -0.1979
     43  CA         8.9400  -14.7570  103.7160 C.3   156  MET156      0.1605
     44  C          9.2220  -15.8780  102.6760 C.2   156  MET156      0.2287
     45  O          9.2060  -17.0560  103.0130 O.2   156  MET156     -0.2864
     46  CB         7.4570  -14.4140  103.7110 C.3   156  MET156      0.0413
     47  CG         6.9470  -13.5470  104.8780 C.3   156  MET156      0.0598
     48  SD         7.2440  -14.2900  106.5070 S.3   156  MET156     -0.1393
     49  CE         8.8310  -13.6130  106.9750 C.3   156  MET156      0.0692
     50  N         -4.8320  -22.9360   90.6560 N.3   182  GLN182     -0.1245
     51  CA        -5.3460  -22.1530   89.5220 C.3   182  GLN182      0.1566
     52  C         -6.5950  -22.8210   88.8770 C.2   182  GLN182      0.2260
     53  O         -7.5980  -22.1500   88.5940 O.2   182  GLN182     -0.2867
     54  CB        -4.2720  -21.9960   88.4600 C.3   182  GLN182      0.0367
     55  CG        -3.0920  -21.1330   88.9210 C.3   182  GLN182      0.0905
     56  CD        -3.4190  -19.6730   89.0490 C.2   182  GLN182      0.2608
     57  OE1       -4.5730  -19.2320   88.8240 O.2   182  GLN182     -0.2717
     58  NE2       -2.4060  -18.8840   89.4020 N.am  182  GLN182     -0.0878
     59  N         -6.8040  -11.8610   90.6190 N.3   216  PHE216     -0.1241
     60  CA        -5.4530  -12.4730   90.6450 C.3   216  PHE216      0.1605
     61  C         -5.3100  -13.8230   89.9250 C.2   216  PHE216      0.2264
     62  O         -4.2350  -14.1330   89.4510 O.2   216  PHE216     -0.2867
     63  CB        -4.9350  -12.5780   92.0880 C.3   216  PHE216      0.0534
     64  CG        -3.4530  -12.8820   92.1910 C.ar  216  PHE216     -0.0203
     65  CD1       -2.4840  -12.0690   91.5400 C.ar  216  PHE216     -0.0042
     66  CD2       -3.0110  -13.9840   92.9210 C.ar  216  PHE216     -0.0042
     67  CE1       -1.1180  -12.3450   91.6540 C.ar  216  PHE216     -0.0003
     68  CE2       -1.6640  -14.2740   93.0260 C.ar  216  PHE216     -0.0003
     69  CZ        -0.7000  -13.4470   92.4140 C.ar  216  PHE216     -0.0000
     70  N         -4.8370  -16.6330   87.2950 N.3   218  LYS218     -0.1245
     71  CA        -4.1920  -16.6750   85.9940 C.3   218  LYS218      0.1565
     72  C         -4.8750  -17.8790   85.3090 C.2   218  LYS218      0.2260
     73  O         -4.3290  -18.9520   85.2090 O.2   218  LYS218     -0.2867
     74  CB        -2.6640  -16.8030   86.1700 C.3   218  LYS218      0.0317
     75  CG        -2.0170  -15.5670   86.8790 C.3   218  LYS218      0.0294
     76  CD        -0.7520  -15.8800   87.6810 C.2   218  LYS218     -0.0067
     77  CE        -0.2830  -14.7750   88.6500 C.2   218  LYS218      0.1012
     78  NZ         0.8260  -15.0440   89.6660 N.pl3 218  LYS218     -0.1270
     79  N         -3.3060  -20.5170   82.8590 N.3   221  SER221     -0.1217
     80  CA        -2.1070  -21.0290   83.4420 C.3   221  SER221      0.1889
     81  C         -1.8270  -22.4120   82.8710 C.2   221  SER221      0.2288
     82  O         -2.7390  -23.1990   82.6410 O.2   221  SER221     -0.2866
     83  CB        -2.2200  -21.1270   84.9770 C.3   221  SER221      0.2089
     84  OG        -2.1990  -19.8560   85.5820 O.3   221  SER221     -0.2183
     85  N          4.3030  -22.8660   81.2870 N.3   225  ALA225     -0.1231
     86  CA         4.5260  -21.4770   81.6910 C.3   225  ALA225      0.1694
     87  C          5.0530  -21.3560   83.0910 C.2   225  ALA225      0.2591
     88  O          6.0330  -20.6320   83.3540 O.2   225  ALA225     -0.2718
     89  CB         3.2530  -20.6850   81.5570 C.3   225  ALA225      0.0304
     90  N          4.4350  -22.0960   83.9960 N.am  226  LEU226     -0.1980
     91  CA         4.9140  -22.1380   85.3720 C.3   226  LEU226      0.1596
     92  C          6.3620  -22.6170   85.4870 C.2   226  LEU226      0.2287
     93  O          7.1700  -22.0440   86.2610 O.2   226  LEU226     -0.2864
     94  CB         4.0140  -23.0130   86.2520 C.3   226  LEU226      0.0297
     95  CG         2.6460  -22.4100   86.5620 C.3   226  LEU226      0.0022
     96  CD1        1.7080  -23.4940   87.1040 C.3   226  LEU226      0.0001
     97  CD2        2.7140  -21.2340   87.5140 C.3   226  LEU226      0.0001
     98  N          9.2440  -19.9700   84.7080 N.3   229  LEU229     -0.1245
     99  CA         9.5410  -18.8340   85.5980 C.3   229  LEU229      0.1561
    100  C         10.8620  -18.9570   86.3500 C.2   229  LEU229      0.2260
    101  O         11.2720  -20.0450   86.7260 O.2   229  LEU229     -0.2867
    102  CB         8.4170  -18.6450   86.6200 C.3   229  LEU229      0.0270
    103  CG         7.0430  -18.4090   86.0030 C.3   229  LEU229      0.0019
    104  CD1        6.0360  -18.2720   87.1150 C.3   229  LEU229      0.0001
    105  CD2        6.9680  -17.1990   85.1010 C.3   229  LEU229      0.0001
    106  N         12.1390  -16.3760   92.5270 N.3   232  ALA232     -0.1231
    107  CA        11.8610  -14.9630   92.8490 C.3   232  ALA232      0.1694
    108  C         12.7360  -14.3700   93.9300 C.2   232  ALA232      0.2592
    109  O         12.8860  -13.1540   93.9980 O.2   232  ALA232     -0.2718
    110  CB        10.3970  -14.8000   93.2220 C.3   232  ALA232      0.0304
    111  N         13.2720  -15.2230   94.8050 N.am  233  PHE233     -0.1976
    112  CA        13.9290  -14.7750   96.0140 C.3   233  PHE233      0.1639
    113  C         15.3530  -15.2760   96.1530 C.2   233  PHE233      0.2290
    114  O         16.1340  -14.7200   96.9170 O.2   233  PHE233     -0.2864
    115  CB        13.1040  -15.2020   97.2470 C.3   233  PHE233      0.0560
    116  CG        11.6730  -14.7470   97.1940 C.ar  233  PHE233     -0.0200
    117  CD1       11.3430  -13.4380   97.4580 C.ar  233  PHE233     -0.0042
    118  CD2       10.6510  -15.6300   96.8400 C.ar  233  PHE233     -0.0042
    119  CE1       10.0260  -13.0230   97.4010 C.ar  233  PHE233     -0.0003
    120  CE2        9.3380  -15.2250   96.7950 C.ar  233  PHE233     -0.0003
    121  CZ         9.0220  -13.9110   97.0730 C.ar  233  PHE233     -0.0000
    122  N          8.7950  -19.2840   93.1000 N.3   240  THR240     -0.1203
    123  CA         8.6040  -18.3280   91.9990 C.3   240  THR240      0.1994
    124  C          7.3130  -17.5310   92.2360 C.2   240  THR240      0.2618
    125  O          6.5300  -17.8720   93.0980 O.2   240  THR240     -0.2717
    126  CB         8.3950  -19.0450   90.6900 C.3   240  THR240      0.1784
    127  OG1        7.1650  -19.7570   90.7550 O.3   240  THR240     -0.2211
    128  CG2        9.5270  -20.0170   90.4100 C.3   240  THR240      0.0376
    129  N          7.0650  -16.5090   91.4240 N.am  241  ALA241     -0.1965
    130  CA         5.7890  -15.7790   91.5070 C.3   241  ALA241      0.1728
    131  C          4.6270  -16.6790   91.1230 C.2   241  ALA241      0.2616
    132  O          3.5130  -16.4500   91.5250 O.2   241  ALA241     -0.2715
    133  CB         5.8150  -14.5710   90.5890 C.3   241  ALA241      0.0334
    134  N          4.9070  -17.7450   90.3640 N.am  242  GLY242     -0.1955
    135  CA         3.8780  -18.6840   89.9780 C.3   242  GLY242      0.1869
    136  C          3.4310  -19.7150   91.0110 C.2   242  GLY242      0.2309
    137  O          2.3240  -20.2130   90.9060 O.2   242  GLY242     -0.2863
    138  N          3.8010  -19.0540   94.4170 N.3   244  ALA244     -0.1231
    139  CA         3.6170  -18.2870   95.6050 C.3   244  ALA244      0.1694
    140  C          2.3630  -17.4650   95.4720 C.2   244  ALA244      0.2593
    141  O          1.9460  -17.1210   94.3460 O.2   244  ALA244     -0.2718
    142  CB         4.8060  -17.3460   95.8010 C.3   244  ALA244      0.0304
    143  N          1.7660  -17.0720   96.5980 N.am  245  SER245     -0.1938
    144  CA         0.6820  -16.1320   96.5110 C.3   245  SER245      0.2055
    145  C          1.2090  -14.7620   96.1010 C.2   245  SER245      0.2644
    146  O          2.4100  -14.5650   95.9830 O.2   245  SER245     -0.2714
    147  CB        -0.1360  -16.0360   97.7810 C.3   245  SER245      0.2130
    148  OG        -1.3230  -15.3340   97.4210 O.3   245  SER245     -0.2179
    149  N          0.2860  -13.8450   95.8820 N.am  246  GLY246     -0.1939
    150  CA         0.6080  -12.5290   95.4380 C.3   246  GLY246      0.2014
    151  C          0.5570  -11.4800   96.5660 C.2   246  GLY246      0.2638
    152  O          0.4210  -11.7590   97.7510 O.2   246  GLY246     -0.2714
    153  N          0.7600  -10.2410   96.1090 N.am  247  ILE247     -0.1977
    154  CA         0.5570   -9.0600   96.9040 C.3   247  ILE247      0.1596
    155  C         -0.8230   -8.5850   96.4030 C.2   247  ILE247      0.2287
    156  O         -1.0000   -8.3680   95.2140 O.2   247  ILE247     -0.2864
    157  CB         1.7180   -8.0210   96.6220 C.3   247  ILE247      0.0276
    158  CG1        3.0490   -8.5480   97.1950 C.3   247  ILE247      0.0022
    159  CG2        1.3590   -6.6650   97.1690 C.3   247  ILE247      0.0022
    160  CD1        4.2800   -7.7830   96.7760 C.3   247  ILE247      0.0001
    161  N          8.4610  -20.3420  109.5120 N.3   286  MET286     -0.1245
    162  CA         7.1320  -19.7910  109.8370 C.3   286  MET286      0.1570
    163  C          6.0090  -20.4650  109.0790 C.2   286  MET286      0.2261
    164  O          4.8850  -20.5380  109.5630 O.2   286  MET286     -0.2867
    165  CB         7.0800  -18.2830  109.5880 C.3   286  MET286      0.0387
    166  CG         7.0930  -17.8440  108.1260 C.3   286  MET286      0.0595
    167  SD         5.4140  -17.6820  107.4340 S.3   286  MET286     -0.1393
    168  CE         5.7480  -17.8830  105.6640 C.3   286  MET286      0.0692
    169  N          0.1550  -19.4690  101.3050 N.3   316  ALA316     -0.1231
    170  CA         1.1560  -18.4050  101.2220 C.3   316  ALA316      0.1694
    171  C          2.2120  -18.7700  100.1930 C.2   316  ALA316      0.2592
    172  O          2.5650  -17.9590   99.3480 O.2   316  ALA316     -0.2718
    173  CB         1.8020  -18.1810  102.5600 C.3   316  ALA316      0.0304
    174  N          2.7330  -19.9880  100.2760 N.am  317  PHE317     -0.1976
    175  CA         3.6710  -20.5420   99.2780 C.3   317  PHE317      0.1639
    176  C          3.3650  -22.0150   99.1050 C.2   317  PHE317      0.2290
    177  O          3.1120  -22.7200  100.0980 O.2   317  PHE317     -0.2864
    178  CB         5.1420  -20.3960   99.7370 C.3   317  PHE317      0.0560
    179  CG         5.5520  -18.9890  100.0670 C.ar  317  PHE317     -0.0200
    180  CD1        5.3240  -18.4660  101.3310 C.ar  317  PHE317     -0.0042
    181  CD2        6.0950  -18.1770   99.0930 C.ar  317  PHE317     -0.0042
    182  CE1        5.7030  -17.1820  101.6290 C.ar  317  PHE317     -0.0003
    183  CE2        6.4240  -16.8690   99.3540 C.ar  317  PHE317     -0.0003
    184  CZ         6.2210  -16.3680  100.6390 C.ar  317  PHE317     -0.0000
    185  N         -3.4390  -12.7400   98.3800 N.3   346  HIS346     -0.1241
    186  CA        -3.1130  -12.7590   99.8170 C.3   346  HIS346      0.1621
    187  C         -2.9910  -11.3630  100.4420 C.2   346  HIS346      0.2264
    188  O         -1.9140  -10.8970  100.7330 O.2   346  HIS346     -0.2867
    189  CB        -1.8420  -13.5880  100.0040 C.3   346  HIS346      0.0745
    190  CG        -1.4990  -13.8710  101.4220 C.ar  346  HIS346      0.0817
    191  ND1       -2.3750  -13.6330  102.4630 N.ar  346  HIS346     -0.2268
    192  CD2       -0.3750  -14.3610  101.9830 C.ar  346  HIS346      0.1154
    193  CE1       -1.8220  -14.0220  103.5990 C.ar  346  HIS346      0.1986
    194  NE2       -0.6070  -14.4640  103.3340 N.ar  346  HIS346     -0.2212
    195  N         -2.7590   -9.3730  103.1810 N.3   348  ILE348     -0.1245
    196  CA        -2.2580  -10.0320  104.3850 C.3   348  ILE348      0.1561
    197  C         -3.1730   -9.8900  105.6010 C.2   348  ILE348      0.2260
    198  O         -3.5720  -10.8960  106.1580 O.2   348  ILE348     -0.2867
    199  CB        -0.7820   -9.7790  104.6830 C.3   348  ILE348      0.0252
    200  CG1       -0.4470   -8.3120  104.6930 C.3   348  ILE348      0.0019
    201  CG2        0.0840  -10.5390  103.6440 C.3   348  ILE348      0.0019
    202  CD1        1.0250   -8.0250  104.9400 C.3   348  ILE348      0.0001
    203  N         -0.3650  -19.7940  108.0910 N.3   376  CYS376     -0.1235
    204  CA         0.9550  -19.4840  108.6400 C.3   376  CYS376      0.1677
    205  C          1.1230  -17.9910  108.8070 C.2   376  CYS376      0.2270
    206  O          0.4050  -17.1970  108.1910 O.2   376  CYS376     -0.2867
    207  CB         2.0730  -20.0620  107.7630 C.3   376  CYS376      0.0956
    208  SG         2.1980  -19.2500  106.1550 S.3   376  CYS376     -0.0801
    209  N          4.0030  -14.8190  109.4990 N.3   378  GLY378     -0.1225
    210  CA         5.3740  -14.3280  109.5510 C.3   378  GLY378      0.1811
    211  C          5.7580  -14.0610  110.9940 C.2   378  GLY378      0.2280
    212  O          4.9350  -13.5640  111.7920 O.2   378  GLY378     -0.2866
@<TRIPOS>BOND
     1    85    86    1
     2    89    86    1
     3    86    87    1
     4    82    81    2
     5    79    80    1
     6    81    80    1
     7    87    88    2
     8    87    90   am
     9    80    83    1
    10    90    91    1
    11    98    99    1
    12    83    84    1
    13   105   103    1
    14    73    72    2
    15    72    71    1
    16    91    92    1
    17    91    94    1
    18    92    93    2
    19    99   100    1
    20    99   102    1
    21    71    74    1
    22    71    70    1
    23   103   102    1
    24   103   104    1
    25    74    75    1
    26    94    95    1
    27   100   101    2
    28    95    96    1
    29    95    97    1
    30    75    76    1
    31    76    77    2
    32    54    55    1
    33    54    51    1
    34    53    52    2
    35    77    78    1
    36    57    56    2
    37    52    51    1
    38    55    56    1
    39    56    58   am
    40    62    61    2
    41    51    50    1
    42    61    60    1
    43   135   134    1
    44   135   136    1
    45   134   131   am
    46   128   126    1
    47   133   130    1
    48    59    60    1
    49    60    63    1
    50   126   127    1
    51   126   123    1
    52     4     3    2
    53   137   136    2
    54   131   130    1
    55   131   132    2
    56   129   130    1
    57   129   124   am
    58    65    67   ar
    59    65    64   ar
    60    67    69   ar
    61     3     2    1
    62   123   124    1
    63   123   122    1
    64    63    64    1
    65    64    66   ar
    66   124   125    2
    67    69    68   ar
    68   106   107    1
    69     1     2    1
    70   107   110    1
    71   107   108    1
    72    66    68   ar
    73     2     5    1
    74     5     6    1
    75     8    10   ar
    76     8     6   ar
    77    10    11   ar
    78     6     7   ar
    79   108   109    2
    80   108   111   am
    81   141   140    2
    82   138   139    1
    83    11     9   ar
    84     7     9   ar
    85   111   112    1
    86   156   155    2
    87   150   149    1
    88   150   151    1
    89   140   139    1
    90   140   143   am
    91   139   142    1
    92   149   145   am
    93   146   145    2
    94   112   113    1
    95   112   115    1
    96   145   144    1
    97   153   151   am
    98   153   154    1
    99   113   114    2
   100   155   154    1
   101   144   143    1
   102   144   147    1
   103   151   152    2
   104   157   154    1
   105   157   159    1
   106   157   158    1
   107   160   158    1
   108   120   118   ar
   109   120   121   ar
   110   118   116   ar
   111   121   119   ar
   112   116   115    1
   113   116   117   ar
   114   119   117   ar
   115   148   147    1
   116   185   186    1
   117    14    15    2
   118    14    13    1
   119   181   183   ar
   120   181   179   ar
   121   176   175    1
   122   176   177    2
   123   175   178    1
   124   175   174    1
   125   172   171    2
   126   183   184   ar
   127    16    13    1
   128    16    17    1
   129   178   179    1
   130    41    40   ar
   131    41    39   ar
   132    13    12    1
   133   186   189    1
   134   186   187    1
   135   189   190    1
   136    40    38   ar
   137   179   180   ar
   138    39    37   ar
   139   171   174   am
   140   171   170    1
   141    31    29    1
   142   187   188    2
   143    38    37   ar
   144    18    17    1
   145    18    19    1
   146   184   182   ar
   147    37    36    1
   148   170   169    1
   149   170   173    1
   150    36    33    1
   151   180   182   ar
   152   190   192   ar
   153   190   191   ar
   154    29    28    1
   155    29    30    1
   156   192   194   ar
   157   191   193   ar
   158    28    25    1
   159    44    45    2
   160    44    43    1
   161    33    32    1
   162    33    34    1
   163   195   196    1
   164    34    42   am
   165    34    35    2
   166   194   193   ar
   167    42    43    1
   168   201   199    1
   169    46    43    1
   170    46    47    1
   171    27    26    2
   172    25    26    1
   173    25    24    1
   174   196   199    1
   175   196   197    1
   176    24    22   am
   177   199   200    1
   178   200   202    1
   179    47    48    1
   180    22    21    1
   181    22    23    2
   182   197   198    2
   183   168   167    1
   184    21    20    1
   185   208   207    1
   186    48    49    1
   187   167   166    1
   188   207   204    1
   189   203   204    1
   190   166   165    1
   191   206   205    2
   192   204   205    1
   193   163   164    2
   194   163   162    1
   195   209   210    1
   196   161   162    1
   197   210   211    1
   198   165   162    1
   199   211   212    2
