@<TRIPOS>MOLECULE
tmp/5f38C00.pdb
 154 145 0 0 0
SMALL
GASTEIGER

@<TRIPOS>ATOM
      1  N          5.8200   12.6840   76.9350 N.3    19  PHE19      -0.1241
      2  CA         5.9220   12.4100   78.3760 C.3    19  PHE19       0.1605
      3  C          5.6860   10.9250   78.6240 C.2    19  PHE19       0.2264
      4  O          4.6900   10.3830   78.1940 O.2    19  PHE19      -0.2867
      5  CB         4.9500   13.3150   79.1290 C.3    19  PHE19       0.0534
      6  CG         5.1460   13.3680   80.6360 C.ar   19  PHE19      -0.0203
      7  CD1        6.4200   13.4650   81.2170 C.ar   19  PHE19      -0.0042
      8  CD2        4.0530   13.4710   81.4550 C.ar   19  PHE19      -0.0042
      9  CE1        6.5950   13.5840   82.5830 C.ar   19  PHE19      -0.0003
     10  CE2        4.2080   13.5360   82.8250 C.ar   19  PHE19      -0.0003
     11  CZ         5.4880   13.6440   83.3820 C.ar   19  PHE19      -0.0000
     12  N         12.3370   15.3750   80.4050 N.3   118  MET118     -0.1245
     13  CA        11.3780   15.7630   81.3790 C.3   118  MET118      0.1570
     14  C         10.7170   14.5350   82.0010 C.2   118  MET118      0.2261
     15  O         10.4200   14.5590   83.1960 O.2   118  MET118     -0.2867
     16  CB        10.3830   16.7320   80.7400 C.3   118  MET118      0.0387
     17  CG        11.1000   17.9690   80.1630 C.3   118  MET118      0.0595
     18  SD         9.9520   19.1280   79.4140 S.3   118  MET118     -0.1393
     19  CE         9.3260   20.0310   80.8450 C.3   118  MET118      0.0692
     20  N         11.2650   24.1450   86.2690 N.3   148  GLY148     -0.1210
     21  CA        10.9420   24.2440   84.8560 C.3   148  GLY148      0.1956
     22  C          9.7040   25.0710   84.5160 C.2   148  GLY148      0.2611
     23  O          9.7840   25.9830   83.7000 O.2   148  GLY148     -0.2717
     24  N          8.5600   24.7470   85.1180 N.am  149  LEU149     -0.1979
     25  CA         7.2740   25.2500   84.6670 C.3   149  LEU149      0.1596
     26  C          6.5290   26.2340   85.5630 C.2   149  LEU149      0.2287
     27  O          5.4980   26.7610   85.1280 O.2   149  LEU149     -0.2864
     28  CB         6.3850   24.0440   84.3700 C.3   149  LEU149      0.0297
     29  CG         6.3660   23.4450   82.9780 C.3   149  LEU149      0.0022
     30  CD1        7.6430   23.5040   82.1760 C.3   149  LEU149      0.0001
     31  CD2        5.7210   22.0500   82.9030 C.3   149  LEU149      0.0001
     32  N          1.7950   28.6720   87.2860 N.3   157  HIS157     -0.1226
     33  CA         2.3130   27.9640   86.1490 C.3   157  HIS157      0.1752
     34  C          2.5850   28.9040   84.9970 C.2   157  HIS157      0.2595
     35  O          1.9300   29.9520   84.8670 O.2   157  HIS157     -0.2718
     36  CB         1.3040   26.9260   85.7170 C.3   157  HIS157      0.0759
     37  CG         1.9050   25.7800   84.9880 C.ar  157  HIS157      0.0818
     38  ND1        2.1950   25.8310   83.6440 N.ar  157  HIS157     -0.2268
     39  CD2        2.1830   24.5190   85.3840 C.ar  157  HIS157      0.1154
     40  CE1        2.6440   24.6590   83.2440 C.ar  157  HIS157      0.1986
     41  NE2        2.6920   23.8570   84.2840 N.ar  157  HIS157     -0.2212
     42  N          3.5480   28.5310   84.1540 N.am  158  MET158     -0.1979
     43  CA         3.6900   29.2090   82.8410 C.3   158  MET158      0.1605
     44  C          2.3270   29.3390   82.1000 C.2   158  MET158      0.2287
     45  O          2.0780   30.3240   81.4150 O.2   158  MET158     -0.2864
     46  CB         4.6980   28.4550   81.9690 C.3   158  MET158      0.0413
     47  CG         6.1230   28.5220   82.4560 C.3   158  MET158      0.0598
     48  SD         6.7330   30.2280   82.6260 S.3   158  MET158     -0.1393
     49  CE         6.4250   30.5900   84.3310 C.3   158  MET158      0.0692
     50  N         -0.9870   14.8360   67.4240 N.3   221  LYS221     -0.1245
     51  CA        -2.3390   14.3020   67.6100 C.3   221  LYS221      0.1561
     52  C         -3.1160   14.3610   66.2920 C.2   221  LYS221      0.2260
     53  O         -3.7940   15.3350   65.9630 O.2   221  LYS221     -0.2867
     54  CB        -3.0450   15.0810   68.7240 C.3   221  LYS221      0.0271
     55  CG        -2.3570   14.9170   70.0950 C.3   221  LYS221      0.0035
     56  CD        -2.5890   16.1060   71.0350 C.3   221  LYS221      0.0206
     57  CE        -1.6990   16.1050   72.2980 C.3   221  LYS221      0.1093
     58  NZ        -1.7360   17.3200   73.2250 N.3   221  LYS221     -0.1314
     59  N         -6.7690   23.9540   81.3360 N.3   235  ALA235     -0.1231
     60  CA        -5.8200   23.1300   82.0750 C.3   235  ALA235      0.1694
     61  C         -5.2820   23.7530   83.3650 C.2   235  ALA235      0.2592
     62  O         -4.8350   23.0210   84.2500 O.2   235  ALA235     -0.2718
     63  CB        -4.6630   22.7480   81.1740 C.3   235  ALA235      0.0304
     64  N         -5.2910   25.0870   83.4560 N.am  236  PHE236     -0.1976
     65  CA        -4.6410   25.7960   84.5480 C.3   236  PHE236      0.1639
     66  C         -5.5790   26.7230   85.3360 C.2   236  PHE236      0.2290
     67  O         -5.2920   27.0770   86.4510 O.2   236  PHE236     -0.2864
     68  CB        -3.4880   26.6100   83.9960 C.3   236  PHE236      0.0560
     69  CG        -2.5080   25.7900   83.1990 C.ar  236  PHE236     -0.0200
     70  CD1       -1.5760   24.9760   83.8490 C.ar  236  PHE236     -0.0042
     71  CD2       -2.5510   25.7910   81.8180 C.ar  236  PHE236     -0.0042
     72  CE1       -0.6640   24.2190   83.1150 C.ar  236  PHE236     -0.0003
     73  CE2       -1.6630   25.0100   81.0860 C.ar  236  PHE236     -0.0003
     74  CZ        -0.7060   24.2450   81.7430 C.ar  236  PHE236     -0.0000
     75  N         -4.8380   21.6070   77.1770 N.3   244  ALA244     -0.1245
     76  CA        -3.7770   20.7260   76.7310 C.3   244  ALA244      0.1562
     77  C         -3.7020   20.6800   75.2250 C.2   244  ALA244      0.2260
     78  O         -2.6240   20.4050   74.6520 O.2   244  ALA244     -0.2867
     79  CB        -3.9790   19.3330   77.2750 C.3   244  ALA244      0.0290
     80  N         -1.7100   24.1060   73.9960 N.3   247  ALA247     -0.1231
     81  CA        -0.4590   24.3250   74.6870 C.3   247  ALA247      0.1694
     82  C          0.4970   23.2400   74.2540 C.2   247  ALA247      0.2593
     83  O          0.0440   22.1600   73.7970 O.2   247  ALA247     -0.2718
     84  CB        -0.6720   24.2270   76.1500 C.3   247  ALA247      0.0304
     85  N          1.7930   23.5320   74.3240 N.am  248  SER248     -0.1938
     86  CA         2.7460   22.4760   74.0400 C.3   248  SER248      0.2055
     87  C          2.7190   21.4780   75.1710 C.2   248  SER248      0.2644
     88  O          1.9710   21.6460   76.1420 O.2   248  SER248     -0.2714
     89  CB         4.1340   22.9750   73.7710 C.3   248  SER248      0.2130
     90  OG         4.8550   21.8630   73.2360 O.3   248  SER248     -0.2179
     91  N          3.5020   20.4170   75.0230 N.am  249  GLY249     -0.1939
     92  CA         3.5660   19.3780   76.0250 C.3   249  GLY249      0.2014
     93  C          4.7810   19.4420   76.9330 C.2   249  GLY249      0.2638
     94  O          5.6060   20.3620   76.8780 O.2   249  GLY249     -0.2714
     95  N          4.8990   18.3930   77.7110 N.am  250  ILE250     -0.1977
     96  CA         6.0850   18.0420   78.4550 C.3   250  ILE250      0.1596
     97  C          6.7110   16.9330   77.6100 C.2   250  ILE250      0.2287
     98  O          6.0830   15.9030   77.3270 O.2   250  ILE250     -0.2864
     99  CB         5.6610   17.5420   79.8900 C.3   250  ILE250      0.0276
    100  CG1        5.0600   18.7100   80.7000 C.3   250  ILE250      0.0022
    101  CG2        6.8190   16.9020   80.6460 C.3   250  ILE250      0.0022
    102  CD1        4.3760   18.3210   81.9930 C.3   250  ILE250      0.0001
    103  N          5.6150   36.6280   80.4970 N.3   289  MET289     -0.1245
    104  CA         6.8410   36.0490   79.9370 C.3   289  MET289      0.1570
    105  C          6.6750   35.6170   78.4680 C.2   289  MET289      0.2261
    106  O          7.6720   35.5550   77.7270 O.2   289  MET289     -0.2867
    107  CB         7.3370   34.8590   80.7770 C.3   289  MET289      0.0387
    108  CG         6.5000   33.5870   80.6730 C.3   289  MET289      0.0595
    109  SD         7.0560   32.4500   79.3610 S.3   289  MET289     -0.1393
    110  CE         5.5500   31.5210   79.0280 C.3   289  MET289      0.0692
    111  N          4.9920   27.7510   72.7870 N.3   319  ALA319     -0.1231
    112  CA         4.8270   27.3270   74.1660 C.3   319  ALA319      0.1694
    113  C          3.3510   27.2300   74.4810 C.2   319  ALA319      0.2592
    114  O          2.9080   26.2260   75.0250 O.2   319  ALA319     -0.2718
    115  CB         5.5240   28.2800   75.1020 C.3   319  ALA319      0.0304
    116  N          2.6080   28.2850   74.1490 N.am  320  PHE320     -0.1976
    117  CA         1.1510   28.3220   74.2190 C.3   320  PHE320      0.1639
    118  C          0.5880   29.0670   73.0210 C.2   320  PHE320      0.2290
    119  O          1.1490   30.0990   72.6200 O.2   320  PHE320     -0.2864
    120  CB         0.7020   28.9960   75.4830 C.3   320  PHE320      0.0560
    121  CG         1.3210   28.3770   76.7250 C.ar  320  PHE320     -0.0200
    122  CD1        2.5190   28.8520   77.2320 C.ar  320  PHE320     -0.0042
    123  CD2        0.6460   27.3650   77.4300 C.ar  320  PHE320     -0.0042
    124  CE1        3.0400   28.2890   78.3880 C.ar  320  PHE320     -0.0003
    125  CE2        1.1760   26.7960   78.5620 C.ar  320  PHE320     -0.0003
    126  CZ         2.3650   27.2740   79.0540 C.ar  320  PHE320     -0.0000
    127  N          7.8640   20.0860   73.4400 N.3   349  HIS349     -0.1241
    128  CA         8.6570   21.1700   74.0210 C.3   349  HIS349      0.1621
    129  C          9.6020   20.6680   75.1400 C.2   349  HIS349      0.2264
    130  O          9.4020   20.9720   76.3500 O.2   349  HIS349     -0.2867
    131  CB         7.7140   22.2920   74.4940 C.3   349  HIS349      0.0745
    132  CG         8.4020   23.5470   74.9160 C.ar  349  HIS349      0.0817
    133  ND1        9.7100   23.8320   74.6210 N.ar  349  HIS349     -0.2268
    134  CD2        7.9470   24.5930   75.6420 C.ar  349  HIS349      0.1154
    135  CE1       10.0400   25.0010   75.1330 C.ar  349  HIS349      0.1986
    136  NE2        9.0010   25.4620   75.8050 N.ar  349  HIS349     -0.2212
    137  N         12.2130   21.2950   77.2340 N.3   351  ILE351     -0.1245
    138  CA        12.5310   22.7110   77.4780 C.3   351  ILE351      0.1561
    139  C         13.9730   23.1280   77.1860 C.2   351  ILE351      0.2260
    140  O         14.1750   24.0590   76.4090 O.2   351  ILE351     -0.2867
    141  CB        11.9830   23.2590   78.8350 C.3   351  ILE351      0.0252
    142  CG1       12.4120   22.3900   79.9960 C.3   351  ILE351      0.0019
    143  CG2       10.4480   23.3500   78.7950 C.3   351  ILE351      0.0019
    144  CD1       11.9020   22.8770   81.3490 C.3   351  ILE351      0.0001
    145  N          9.9490   32.3410   73.8560 N.3   379  CYS379     -0.1235
    146  CA         9.7120   32.9750   75.1700 C.3   379  CYS379      0.1677
    147  C         10.3660   32.1100   76.2400 C.2   379  CYS379      0.2270
    148  O         10.6550   30.9320   76.0380 O.2   379  CYS379     -0.2867
    149  CB         8.2120   33.1450   75.4510 C.3   379  CYS379      0.0956
    150  SG         7.3180   31.6140   75.5950 S.3   379  CYS379     -0.0801
    151  N         10.4460   31.3700   80.4850 N.3   381  GLY381     -0.1225
    152  CA         9.9520   31.5510   81.8480 C.3   381  GLY381      0.1811
    153  C         10.8210   32.4650   82.6790 C.2   381  GLY381      0.2280
    154  O         12.0860   32.4160   82.5910 O.2   381  GLY381     -0.2866
@<TRIPOS>BOND
     1    53    52    2
     2    52    51    1
     3    50    51    1
     4    51    54    1
     5    54    55    1
     6    55    56    1
     7    56    57    1
     8    57    58    1
     9   119   118    2
    10   111   112    1
    11   118   117    1
    12    90    89    1
    13   127   128    1
    14    89    86    1
    15    83    82    2
    16   145   146    1
    17    80    81    1
    18   128   131    1
    19   128   129    1
    20    86    85    1
    21    86    87    1
    22   116   117    1
    23   116   113   am
    24   112   113    1
    25   112   115    1
    26   117   120    1
    27    82    85   am
    28    82    81    1
    29   113   114    2
    30   131   132    1
    31   133   132   ar
    32   133   135   ar
    33    78    77    2
    34    81    84    1
    35   132   134   ar
    36    91    87   am
    37    91    92    1
    38   135   136   ar
    39   129   130    2
    40   146   149    1
    41   146   147    1
    42    87    88    2
    43    77    76    1
    44   149   150    1
    45   120   121    1
    46   134   136   ar
    47    92    93    1
    48   148   147    2
    49   140   139    2
    50   121   122   ar
    51   121   123   ar
    52    76    75    1
    53    76    79    1
    54    94    93    2
    55    93    95   am
    56     1     2    1
    57   139   138    1
    58   122   124   ar
    59   137   138    1
    60    98    97    2
    61   123   125   ar
    62   138   141    1
    63    97    96    1
    64    95    96    1
    65   106   105    2
    66     4     3    2
    67     2     3    1
    68     2     5    1
    69   124   126   ar
    70    96    99    1
    71   105   104    1
    72   125   126   ar
    73   143   141    1
    74   141   142    1
    75   110   109    1
    76     5     6    1
    77   109   108    1
    78    18    17    1
    79    18    19    1
    80    99   101    1
    81    99   100    1
    82   104   103    1
    83   104   107    1
    84   142   144    1
    85    17    16    1
    86    12    13    1
    87   151   152    1
    88     6     7   ar
    89     6     8   ar
    90   108   107    1
    91   100   102    1
    92    16    13    1
    93    73    74   ar
    94    73    71   ar
    95    63    60    1
    96     7     9   ar
    97    59    60    1
    98    13    14    1
    99    45    44    2
   100     8    10   ar
   101    74    72   ar
   102    71    69   ar
   103   152   153    1
   104    46    47    1
   105    46    43    1
   106    14    15    2
   107    60    61    1
   108    44    43    1
   109    30    29    1
   110    47    48    1
   111     9    11   ar
   112   154   153    2
   113    48    49    1
   114    10    11   ar
   115    43    42    1
   116    31    29    1
   117    29    28    1
   118    72    70   ar
   119    69    70   ar
   120    69    68    1
   121    40    38   ar
   122    40    41   ar
   123    61    64   am
   124    61    62    2
   125    64    65    1
   126    38    37   ar
   127    23    22    2
   128    68    65    1
   129    42    34   am
   130    41    39   ar
   131    28    25    1
   132    22    21    1
   133    22    24   am
   134    65    66    1
   135    25    24    1
   136    25    26    1
   137    21    20    1
   138    35    34    2
   139    37    39   ar
   140    37    36    1
   141    34    33    1
   142    27    26    2
   143    66    67    2
   144    36    33    1
   145    33    32    1
