@<TRIPOS>MOLECULE
tmp/5f39A00.pdb
 152 144 0 0 0
SMALL
GASTEIGER

@<TRIPOS>ATOM
      1  N         14.2600   59.2110  -52.9210 N.3   124  TYR124     -0.1241
      2  CA        13.7560   57.8880  -52.5380 C.3   124  TYR124      0.1605
      3  C         13.6130   57.8180  -51.0110 C.2   124  TYR124      0.2264
      4  O         14.5910   57.9780  -50.2850 O.2   124  TYR124     -0.2867
      5  CB        14.6820   56.7690  -53.0530 C.3   124  TYR124      0.0534
      6  CG        14.0230   55.4210  -53.2700 C.ar  124  TYR124     -0.0201
      7  CD1       12.6620   55.2400  -53.0400 C.ar  124  TYR124     -0.0009
      8  CD2       14.7570   54.3290  -53.7210 C.ar  124  TYR124     -0.0009
      9  CE1       12.0480   54.0000  -53.2340 C.ar  124  TYR124      0.0417
     10  CE2       14.1530   53.0870  -53.9330 C.ar  124  TYR124      0.0417
     11  CZ        12.7940   52.9310  -53.6940 C.ar  124  TYR124      0.1957
     12  OH        12.1710   51.7280  -53.9170 O.3   124  TYR124     -0.2866
     13  N         13.6110   55.5920  -48.8390 N.3   126  ALA126     -0.1231
     14  CA        14.0970   54.2400  -48.6360 C.3   126  ALA126      0.1694
     15  C         14.5480   53.9360  -47.2120 C.2   126  ALA126      0.2592
     16  O         14.8850   54.8460  -46.4440 O.2   126  ALA126     -0.2718
     17  CB        15.2480   53.9860  -49.5980 C.3   126  ALA126      0.0304
     18  N         14.5950   52.6260  -46.9030 N.am  127  ASP127     -0.1974
     19  CA        15.0880   51.9910  -45.6890 C.3   127  ASP127      0.1709
     20  C         14.4400   52.5000  -44.4010 C.2   127  ASP127      0.2293
     21  O         15.1220   52.6610  -43.3740 O.2   127  ASP127     -0.2864
     22  CB        16.6220   52.0780  -45.6140 C.3   127  ASP127      0.1436
     23  CG        17.3750   51.6890  -46.8680 C.2   127  ASP127      0.3671
     24  OD1       16.9520   50.7050  -47.5460 O.co2 127  ASP127     -0.2456
     25  OD2       18.4010   52.3520  -47.1720 O.co2 127  ASP127     -0.2456
     26  N          9.6690   51.4140  -48.3920 N.3   169  TYR169     -0.1241
     27  CA        10.2310   52.1760  -49.4900 C.3   169  TYR169      0.1605
     28  C          9.1290   53.0070  -50.1270 C.2   169  TYR169      0.2264
     29  O          8.2230   52.4700  -50.7550 O.2   169  TYR169     -0.2867
     30  CB        10.8860   51.2450  -50.5440 C.3   169  TYR169      0.0534
     31  CG        12.0610   50.4340  -50.0360 C.ar  169  TYR169     -0.0201
     32  CD1       11.8760   49.1720  -49.4780 C.ar  169  TYR169     -0.0009
     33  CD2       13.3580   50.9000  -50.1660 C.ar  169  TYR169     -0.0009
     34  CE1       12.9580   48.4010  -49.0410 C.ar  169  TYR169      0.0417
     35  CE2       14.4480   50.1500  -49.7080 C.ar  169  TYR169      0.0417
     36  CZ        14.2450   48.8990  -49.1450 C.ar  169  TYR169      0.1957
     37  OH        15.3300   48.1800  -48.6990 O.3   169  TYR169     -0.2866
     38  N         16.5880   50.9120  -57.8050 N.3   177  PHE177     -0.1241
     39  CA        17.4750   50.0030  -57.1140 C.3   177  PHE177      0.1605
     40  C         18.4080   49.3810  -58.1410 C.2   177  PHE177      0.2264
     41  O         17.9810   48.8800  -59.1570 O.2   177  PHE177     -0.2867
     42  CB        16.7310   48.9550  -56.2840 C.3   177  PHE177      0.0534
     43  CG        15.6260   48.2490  -57.0070 C.ar  177  PHE177     -0.0203
     44  CD1       14.4200   48.8710  -57.2340 C.ar  177  PHE177     -0.0042
     45  CD2       15.7730   46.9400  -57.4000 C.ar  177  PHE177     -0.0042
     46  CE1       13.3950   48.2140  -57.8800 C.ar  177  PHE177     -0.0003
     47  CE2       14.7530   46.2780  -58.0460 C.ar  177  PHE177     -0.0003
     48  CZ        13.5600   46.9140  -58.2830 C.ar  177  PHE177     -0.0000
     49  N         21.9330   43.8580  -57.9150 N.3   180  HIS180     -0.1241
     50  CA        22.4680   43.2710  -56.7110 C.3   180  HIS180      0.1621
     51  C         21.8410   41.9370  -56.3560 C.2   180  HIS180      0.2264
     52  O         20.8690   41.5190  -56.9500 O.2   180  HIS180     -0.2867
     53  CB        22.2360   44.2260  -55.5590 C.3   180  HIS180      0.0745
     54  CG        20.7970   44.3930  -55.2070 C.ar  180  HIS180      0.0817
     55  ND1       19.9760   45.2850  -55.8510 N.ar  180  HIS180     -0.2268
     56  CD2       20.0300   43.7770  -54.2840 C.ar  180  HIS180      0.1154
     57  CE1       18.7670   45.2160  -55.3370 C.ar  180  HIS180      0.1986
     58  NE2       18.7730   44.3090  -54.3820 N.ar  180  HIS180     -0.2212
     59  N         20.8210   39.6710  -52.6840 N.3   182  GLU182     -0.1231
     60  CA        20.5250   39.9870  -51.2910 C.3   182  GLU182      0.1699
     61  C         21.7540   39.7990  -50.3810 C.2   182  GLU182      0.2592
     62  O         22.7350   39.1670  -50.7830 O.2   182  GLU182     -0.2718
     63  CB        19.3410   39.1370  -50.8170 C.3   182  GLU182      0.0402
     64  CG        18.0820   39.3970  -51.6130 C.3   182  GLU182      0.1161
     65  CD        17.6640   40.8460  -51.5740 C.2   182  GLU182      0.3649
     66  OE1       17.2820   41.3130  -50.4790 O.co2 182  GLU182     -0.2457
     67  OE2       17.7630   41.5270  -52.6190 O.co2 182  GLU182     -0.2457
     68  N         21.7180   40.3680  -49.1740 N.am  183  ASP183     -0.1974
     69  CA        22.8430   40.1670  -48.2540 C.3   183  ASP183      0.1709
     70  C         22.9310   38.6800  -47.9060 C.2   183  ASP183      0.2293
     71  O         21.8950   38.0460  -47.7050 O.2   183  ASP183     -0.2864
     72  CB        22.7090   41.0530  -46.9900 C.3   183  ASP183      0.1436
     73  CG        22.8360   42.5470  -47.2760 C.2   183  ASP183      0.3671
     74  OD1       23.6810   42.9260  -48.1480 O.co2 183  ASP183     -0.2456
     75  OD2       22.1150   43.3400  -46.6220 O.co2 183  ASP183     -0.2456
     76  N         14.3170   37.1920  -50.8370 N.3   188  SER188     -0.1217
     77  CA        13.6520   38.4110  -50.4100 C.3   188  SER188      0.1889
     78  C         12.1860   38.3950  -50.8010 C.2   188  SER188      0.2288
     79  O         11.8100   37.7920  -51.8240 O.2   188  SER188     -0.2866
     80  CB        14.3550   39.6570  -50.9370 C.3   188  SER188      0.2089
     81  OG        13.9810   39.9960  -52.2610 O.3   188  SER188     -0.2183
     82  N          8.9200   41.0910  -51.4070 N.3   190  ASN190     -0.1240
     83  CA         8.6120   42.4930  -51.6820 C.3   190  ASN190      0.1653
     84  C          7.1170   42.6570  -52.0350 C.2   190  ASN190      0.2266
     85  O          6.6520   42.0810  -53.0290 O.2   190  ASN190     -0.2867
     86  CB         9.5630   43.0640  -52.7750 C.3   190  ASN190      0.1155
     87  CG         9.4440   44.5570  -53.0060 C.2   190  ASN190      0.2627
     88  OD1        8.4320   45.0440  -53.5470 O.2   190  ASN190     -0.2716
     89  ND2       10.5000   45.3090  -52.6400 N.am  190  ASN190     -0.0877
     90  N          6.1500   49.1820  -59.9040 N.3   198  LYS198     -0.1245
     91  CA         7.5690   49.0190  -59.6700 C.3   198  LYS198      0.1561
     92  C          7.9570   48.0340  -60.7410 C.2   198  LYS198      0.2260
     93  O          7.3680   46.9600  -60.7710 O.2   198  LYS198     -0.2867
     94  CB         7.8020   48.4220  -58.2510 C.3   198  LYS198      0.0271
     95  CG         9.2700   48.2380  -57.8730 C.3   198  LYS198      0.0035
     96  CD         9.5510   47.6220  -56.4980 C.3   198  LYS198      0.0206
     97  CE         9.1950   48.4200  -55.2570 C.3   198  LYS198      0.1093
     98  NZ         9.8970   49.7300  -55.1470 N.3   198  LYS198     -0.1314
     99  N         10.8810   45.6790  -62.6870 N.3   200  TRP200     -0.1241
    100  CA        12.0330   44.8570  -62.2780 C.3   200  TRP200      0.1605
    101  C         12.7150   44.2030  -63.4790 C.2   200  TRP200      0.2264
    102  O         12.0470   43.8880  -64.4640 O.2   200  TRP200     -0.2867
    103  CB        11.5220   43.7030  -61.4070 C.3   200  TRP200      0.0550
    104  CG        10.8820   44.0590  -60.1070 C.ar  200  TRP200      0.0003
    105  CD1        9.6490   44.6080  -59.9160 C.ar  200  TRP200      0.0946
    106  CD2       11.3690   43.7070  -58.8100 C.ar  200  TRP200      0.0152
    107  NE1        9.3900   44.7360  -58.5690 N.ar  200  TRP200     -0.2442
    108  CE2       10.4090   44.1510  -57.8670 C.ar  200  TRP200      0.0810
    109  CE3       12.5470   43.0820  -58.3430 C.ar  200  TRP200      0.0012
    110  CZ2       10.5810   43.9760  -56.4920 C.ar  200  TRP200      0.0191
    111  CZ3       12.6920   42.8700  -56.9840 C.ar  200  TRP200      0.0001
    112  CH2       11.7270   43.3290  -56.0740 C.ar  200  TRP200      0.0015
    113  N         25.4120   48.5190  -54.1760 N.3   233  LYS233     -0.1245
    114  CA        24.1300   48.8890  -54.7850 C.3   233  LYS233      0.1561
    115  C         24.2120   50.2690  -55.4450 C.2   233  LYS233      0.2260
    116  O         23.4060   51.1820  -55.1840 O.2   233  LYS233     -0.2867
    117  CB        22.9620   48.7510  -53.7900 C.3   233  LYS233      0.0271
    118  CG        22.6610   47.3120  -53.3980 C.3   233  LYS233      0.0035
    119  CD        22.0790   47.1930  -51.9950 C.3   233  LYS233      0.0206
    120  CE        22.1720   45.7780  -51.4620 C.3   233  LYS233      0.1093
    121  NZ        23.2670   45.6050  -50.4630 N.3   233  LYS233     -0.1314
    122  N         12.5040   37.1310  -54.6760 N.3   262  THR262     -0.1218
    123  CA        13.8410   37.0520  -55.2520 C.3   262  THR262      0.1862
    124  C         14.4670   35.8350  -54.5870 C.2   262  THR262      0.2287
    125  O         14.1970   35.5380  -53.4120 O.2   262  THR262     -0.2866
    126  CB        14.6570   38.3790  -55.2110 C.3   262  THR262      0.1770
    127  OG1       15.4650   38.4590  -54.0270 O.3   262  THR262     -0.2211
    128  CG2       13.7960   39.6330  -55.3830 C.3   262  THR262      0.0375
    129  N         19.0520   41.3800  -59.5000 N.3   268  HIS268     -0.1241
    130  CA        17.9080   42.2010  -59.8560 C.3   268  HIS268      0.1621
    131  C         18.2190   43.6550  -59.7090 C.2   268  HIS268      0.2264
    132  O         19.1650   44.0330  -59.0080 O.2   268  HIS268     -0.2867
    133  CB        16.6310   41.8110  -59.0980 C.3   268  HIS268      0.0745
    134  CG        16.7470   41.8300  -57.5990 C.ar  268  HIS268      0.0817
    135  ND1       17.2780   40.7520  -56.9080 N.ar  268  HIS268     -0.2268
    136  CD2       16.3500   42.7710  -56.7050 C.ar  268  HIS268      0.1154
    137  CE1       17.2530   41.0980  -55.6280 C.ar  268  HIS268      0.1986
    138  NE2       16.7010   42.3060  -55.4550 N.ar  268  HIS268     -0.2212
    139  N          9.5240   45.3010  -47.5430 N.3   280  SER280     -0.1217
    140  CA        10.4510   44.2500  -47.8670 C.3   280  SER280      0.1889
    141  C         11.2250   43.7300  -46.6880 C.2   280  SER280      0.2288
    142  O         11.3790   44.4420  -45.6810 O.2   280  SER280     -0.2866
    143  CB        11.4130   44.7710  -48.9220 C.3   280  SER280      0.2089
    144  OG        11.9040   43.6710  -49.6630 O.3   280  SER280     -0.2183
    145  N         14.2030   39.9150  -45.8630 N.3   282  ASN282     -0.1240
    146  CA        14.9130   38.7410  -46.3390 C.3   282  ASN282      0.1653
    147  C         14.3680   37.5150  -45.6100 C.2   282  ASN282      0.2266
    148  O         13.8060   37.6520  -44.5220 O.2   282  ASN282     -0.2867
    149  CB        16.4240   38.9020  -46.1120 C.3   282  ASN282      0.1155
    150  CG        17.0850   39.8010  -47.1280 C.2   282  ASN282      0.2627
    151  OD1       17.7440   40.7920  -46.7940 O.2   282  ASN282     -0.2716
    152  ND2       16.9010   39.4880  -48.4080 N.am  282  ASN282     -0.0877
@<TRIPOS>BOND
     1   102   101    2
     2   101   100    1
     3    99   100    1
     4   100   103    1
     5   103   104    1
     6    93    92    2
     7    92    91    1
     8   104   105   ar
     9   104   106   ar
    10   105   107   ar
    11    90    91    1
    12   130   131    1
    13   130   129    1
    14   130   133    1
    15   131   132    2
    16    91    94    1
    17    41    40    2
    18   133   134    1
    19   106   109   ar
    20   106   108   ar
    21   107   108   ar
    22   109   111   ar
    23    48    47   ar
    24    48    46   ar
    25    94    95    1
    26    40    39    1
    27    47    45   ar
    28    49    50    1
    29    46    44   ar
    30    95    96    1
    31   108   110   ar
    32    38    39    1
    33   134   135   ar
    34   134   136   ar
    35    45    43   ar
    36    44    43   ar
    37    39    42    1
    38    43    42    1
    39   111   112   ar
    40    52    51    2
    41   135   137   ar
    42    50    51    1
    43    50    53    1
    44   136   138   ar
    45    96    97    1
    46   110   112   ar
    47    55    57   ar
    48    55    54   ar
    49   137   138   ar
    50    53    54    1
    51   115   116    2
    52   115   114    1
    53   128   126    1
    54    57    58   ar
    55    97    98    1
    56   123   126    1
    57   123   122    1
    58   123   124    1
    59   126   127    1
    60    54    56   ar
    61   114   113    1
    62   114   117    1
    63   124   125    2
    64    58    56   ar
    65    10     8   ar
    66    10    11   ar
    67    12    11    1
    68   117   118    1
    69     8     6   ar
    70    11     9   ar
    71    88    87    2
    72   118   119    1
    73     6     5    1
    74     6     7   ar
    75     9     7   ar
    76     5     2    1
    77    85    84    2
    78    87    86    1
    79    87    89   am
    80     1     2    1
    81    86    83    1
    82    59    60    1
    83    67    65   ar
    84     2     3    1
    85    81    80    1
    86    84    83    1
    87   119   120    1
    88    79    78    2
    89    83    82    1
    90    64    65    1
    91    64    63    1
    92    65    66   ar
    93   120   121    1
    94    60    63    1
    95    60    61    1
    96     3     4    2
    97    80    77    1
    98    76    77    1
    99    78    77    1
   100    62    61    2
   101    29    28    2
   102    30    31    1
   103    30    27    1
   104    61    68   am
   105    33    31   ar
   106    33    35   ar
   107    28    27    1
   108    31    32   ar
   109    35    36   ar
   110   144   143    1
   111    17    14    1
   112    27    26    1
   113    32    34   ar
   114    68    69    1
   115    36    34   ar
   116    36    37    1
   117   143   140    1
   118    13    14    1
   119    14    15    1
   120   152   150   am
   121    69    70    1
   122    69    72    1
   123    74    73   ar
   124    70    71    2
   125   140   139    1
   126   140   141    1
   127    24    23   ar
   128    73    72    1
   129    73    75   ar
   130    15    18   am
   131    15    16    2
   132    25    23   ar
   133   150   151    2
   134   150   149    1
   135    18    19    1
   136    23    22    1
   137   141   142    2
   138   146   149    1
   139   146   145    1
   140   146   147    1
   141    19    22    1
   142    19    20    1
   143   147   148    2
   144    20    21    2
