@<TRIPOS>MOLECULE
tmp/5f3aA00.pdb
 106 99 0 0 0
SMALL
GASTEIGER

@<TRIPOS>ATOM
      1  N         25.5530  -45.0990  140.7860 N.3    30  VAL30      -0.1231
      2  CA        25.4090  -45.4320  142.2010 C.3    30  VAL30       0.1692
      3  C         23.9490  -45.4560  142.6400 C.2    30  VAL30       0.2592
      4  O         23.6200  -46.0680  143.6650 O.2    30  VAL30      -0.2718
      5  CB        26.2340  -44.4520  143.0660 C.3    30  VAL30       0.0266
      6  CG1       25.6520  -43.0490  143.0130 C.3    30  VAL30       0.0020
      7  CG2       26.3440  -44.9560  144.5040 C.3    30  VAL30       0.0020
      8  N         23.0550  -44.8230  141.8820 N.am   31  PHE31      -0.1976
      9  CA        21.6440  -44.7690  142.2380 C.3    31  PHE31       0.1639
     10  C         20.8030  -45.7930  141.4900 C.2    31  PHE31       0.2290
     11  O         19.5730  -45.7610  141.6020 O.2    31  PHE31      -0.2864
     12  CB        21.0830  -43.3650  141.9790 C.3    31  PHE31       0.0560
     13  CG        21.9080  -42.2700  142.5910 C.ar   31  PHE31      -0.0200
     14  CD1       22.1140  -42.2250  143.9580 C.ar   31  PHE31      -0.0042
     15  CD2       22.4720  -41.2900  141.7960 C.ar   31  PHE31      -0.0042
     16  CE1       22.8880  -41.2180  144.5190 C.ar   31  PHE31      -0.0003
     17  CE2       23.2400  -40.2800  142.3450 C.ar   31  PHE31      -0.0003
     18  CZ        23.4530  -40.2420  143.7100 C.ar   31  PHE31      -0.0000
     19  N         20.8990  -49.2450  141.7180 N.3    33  LYS33      -0.1245
     20  CA        20.6250  -50.4730  142.4410 C.3    33  LYS33       0.1561
     21  C         20.5360  -50.1700  143.9290 C.2    33  LYS33       0.2260
     22  O         21.0990  -49.1780  144.3990 O.2    33  LYS33      -0.2867
     23  CB        21.7240  -51.5230  142.2070 C.3    33  LYS33       0.0271
     24  CG        21.9300  -51.9900  140.7740 C.3    33  LYS33       0.0035
     25  CD        23.0990  -52.9860  140.6940 C.3    33  LYS33       0.0206
     26  CE        24.4610  -52.4730  141.2100 C.3    33  LYS33       0.1093
     27  NZ        24.9370  -51.2860  140.5100 N.3    33  LYS33      -0.1314
     28  N         21.5660  -50.5260  147.8430 N.3    35  VAL35      -0.1245
     29  CA        22.8880  -50.6010  148.4550 C.3    35  VAL35       0.1561
     30  C         23.1320  -52.0140  148.9700 C.2    35  VAL35       0.2260
     31  O         22.2520  -52.6340  149.5800 O.2    35  VAL35      -0.2867
     32  CB        23.0120  -49.5580  149.5790 C.3    35  VAL35       0.0252
     33  CG1       24.3360  -49.7070  150.3020 C.3    35  VAL35       0.0019
     34  CG2       22.8660  -48.1510  149.0080 C.3    35  VAL35       0.0019
     35  N         28.0760  -52.1390  152.6060 N.3    40  VAL40      -0.1245
     36  CA        27.6450  -51.0560  153.4860 C.3    40  VAL40       0.1561
     37  C         26.6410  -51.6030  154.4940 C.2    40  VAL40       0.2260
     38  O         25.4280  -51.5720  154.2380 O.2    40  VAL40      -0.2867
     39  CB        27.0430  -49.8960  152.6770 C.3    40  VAL40       0.0252
     40  CG1       26.9900  -48.6530  153.5150 C.3    40  VAL40       0.0019
     41  CG2       27.8470  -49.6450  151.4070 C.3    40  VAL40       0.0019
     42  N         23.8450  -49.1160  156.2480 N.3    43  TYR43      -0.1241
     43  CA        22.9520  -48.3290  155.4020 C.3    43  TYR43       0.1605
     44  C         21.4920  -48.6010  155.7420 C.2    43  TYR43       0.2264
     45  O         20.6920  -47.6670  155.8760 O.2    43  TYR43      -0.2867
     46  CB        23.2230  -48.6140  153.9230 C.3    43  TYR43       0.0534
     47  CG        22.4970  -47.6600  152.9940 C.ar   43  TYR43      -0.0201
     48  CD1       23.0440  -46.4240  152.6770 C.ar   43  TYR43      -0.0009
     49  CD2       21.2590  -47.9870  152.4510 C.ar   43  TYR43      -0.0009
     50  CE1       22.3870  -45.5430  151.8350 C.ar   43  TYR43       0.0417
     51  CE2       20.5920  -47.1110  151.6100 C.ar   43  TYR43       0.0417
     52  CZ        21.1610  -45.8910  151.3070 C.ar   43  TYR43       0.1957
     53  OH        20.5070  -45.0140  150.4780 O.3    43  TYR43      -0.2866
     54  N         20.7760  -39.6970  149.6780 N.3    82  ALA82      -0.1245
     55  CA        22.2020  -39.6000  149.3730 C.3    82  ALA82       0.1562
     56  C         22.8520  -38.4430  150.1220 C.2    82  ALA82       0.2260
     57  O         24.0000  -38.5520  150.5700 O.2    82  ALA82      -0.2867
     58  CB        22.4150  -39.4470  147.8660 C.3    82  ALA82       0.0290
     59  N         23.1860  -39.6230  153.8320 N.3    85  TYR85      -0.1227
     60  CA        24.1860  -40.6480  154.0930 C.3    85  TYR85       0.1736
     61  C         25.6090  -40.1720  153.8180 C.2    85  TYR85       0.2595
     62  O         26.5540  -40.7640  154.3500 O.2    85  TYR85      -0.2718
     63  CB        23.9030  -41.9100  153.2700 C.3    85  TYR85       0.0548
     64  CG        24.6350  -43.1180  153.8190 C.ar   85  TYR85      -0.0200
     65  CD1       24.2670  -43.6700  155.0410 C.ar   85  TYR85      -0.0009
     66  CD2       25.7050  -43.6910  153.1370 C.ar   85  TYR85      -0.0009
     67  CE1       24.9290  -44.7580  155.5650 C.ar   85  TYR85       0.0417
     68  CE2       26.3770  -44.7920  153.6600 C.ar   85  TYR85       0.0417
     69  CZ        25.9790  -45.3160  154.8760 C.ar   85  TYR85       0.1957
     70  OH        26.6250  -46.3980  155.4290 O.3    85  TYR85      -0.2866
     71  N         25.7810  -39.1230  153.0330 N.am   86  ASN86      -0.1974
     72  CA        27.1120  -38.5940  152.6600 C.3    86  ASN86       0.1688
     73  C         27.2600  -37.1310  152.9940 C.2    86  ASN86       0.2292
     74  O         27.3550  -36.3030  152.1450 O.2    86  ASN86      -0.2864
     75  CB        27.3450  -38.8070  151.1650 C.3    86  ASN86       0.1181
     76  CG        27.2510  -40.2300  150.7660 C.2    86  ASN86       0.2629
     77  OD1       28.1700  -40.9670  150.9110 O.2    86  ASN86      -0.2716
     78  ND2       26.1160  -40.6240  150.2780 N.am   86  ASN86      -0.0877
     79  N         34.6690  -34.6450  152.7600 N.3    90  ASP90      -0.1239
     80  CA        35.6390  -35.3920  151.9800 C.3    90  ASP90       0.1674
     81  C         35.1620  -35.5360  150.5330 C.2    90  ASP90       0.2266
     82  O         33.9590  -35.4760  150.2500 O.2    90  ASP90      -0.2867
     83  CB        35.8990  -36.7640  152.6040 C.3    90  ASP90       0.1410
     84  CG        34.7310  -37.7130  152.4550 C.2    90  ASP90       0.3668
     85  OD1       33.8110  -37.6570  153.2920 O.co2  90  ASP90      -0.2456
     86  OD2       34.7420  -38.5320  151.5130 O.co2  90  ASP90      -0.2456
     87  N         34.8790  -37.9680  148.4460 N.3    92  GLY92      -0.1210
     88  CA        33.9550  -39.0450  148.1270 C.3    92  GLY92       0.1956
     89  C         32.5170  -38.6590  148.4080 C.2    92  GLY92       0.2611
     90  O         31.6260  -38.8680  147.5760 O.2    92  GLY92      -0.2717
     91  N         32.2730  -38.0660  149.5810 N.am   93  ASP93      -0.1973
     92  CA        30.9260  -37.6110  149.9130 C.3    93  ASP93       0.1709
     93  C         30.4850  -36.4810  148.9950 C.2    93  ASP93       0.2293
     94  O         29.3330  -36.4540  148.5430 O.2    93  ASP93      -0.2864
     95  CB        30.8560  -37.1430  151.3700 C.3    93  ASP93       0.1436
     96  CG        30.8140  -38.2880  152.3600 C.2    93  ASP93       0.3671
     97  OD1       31.3340  -39.3770  152.0450 O.co2  93  ASP93      -0.2456
     98  OD2       30.2640  -38.0990  153.4700 O.co2  93  ASP93      -0.2456
     99  N         29.3230  -37.7580  145.5380 N.3    96  ILE96      -0.1245
    100  CA        28.0040  -38.3930  145.5500 C.3    96  ILE96       0.1561
    101  C         26.9070  -37.3470  145.7150 C.2    96  ILE96       0.2260
    102  O         25.8640  -37.4170  145.0520 O.2    96  ILE96      -0.2867
    103  CB        27.9300  -39.4750  146.6450 C.3    96  ILE96       0.0252
    104  CG1       28.8990  -40.6200  146.3350 C.3    96  ILE96       0.0019
    105  CG2       26.5040  -40.0020  146.7780 C.3    96  ILE96       0.0019
    106  CD1       29.0800  -41.5880  147.4950 C.3    96  ILE96       0.0001
@<TRIPOS>BOND
     1    27    26    1
     2    25    24    1
     3    25    26    1
     4    24    23    1
     5     1     2    1
     6    10    11    2
     7    10     9    1
     8    19    20    1
     9    15    17   ar
    10    15    13   ar
    11     8     9    1
    12     8     3   am
    13    12     9    1
    14    12    13    1
    15     2     3    1
    16     2     5    1
    17    23    20    1
    18    17    18   ar
    19    20    21    1
    20    13    14   ar
    21     3     4    2
    22     6     5    1
    23     5     7    1
    24    18    16   ar
    25    21    22    2
    26    14    16   ar
    27   102   101    2
    28    99   100    1
    29   100   101    1
    30   100   103    1
    31   104   103    1
    32   104   106    1
    33   103   105    1
    34    90    89    2
    35    28    29    1
    36    58    55    1
    37    88    89    1
    38    88    87    1
    39    89    91   am
    40    29    30    1
    41    29    32    1
    42    94    93    2
    43    30    31    2
    44    93    92    1
    45    34    32    1
    46    55    54    1
    47    55    56    1
    48    32    33    1
    49    91    92    1
    50    92    95    1
    51    56    57    2
    52    82    81    2
    53    78    76   am
    54    53    52    1
    55    81    80    1
    56    76    77    2
    57    76    75    1
    58    75    72    1
    59    52    51   ar
    60    52    50   ar
    61    95    96    1
    62    41    39    1
    63    86    84   ar
    64    51    49   ar
    65    50    48   ar
    66    80    83    1
    67    80    79    1
    68    97    96   ar
    69    74    73    2
    70    96    98   ar
    71    49    47   ar
    72    84    83    1
    73    84    85   ar
    74    35    36    1
    75    72    73    1
    76    72    71    1
    77    48    47   ar
    78    39    36    1
    79    39    40    1
    80    47    46    1
    81    71    61   am
    82    66    68   ar
    83    66    64   ar
    84    63    64    1
    85    63    60    1
    86    36    37    1
    87    68    69   ar
    88    61    60    1
    89    61    62    2
    90    64    65   ar
    91    59    60    1
    92    46    43    1
    93    38    37    2
    94    69    70    1
    95    69    67   ar
    96    65    67   ar
    97    43    44    1
    98    43    42    1
    99    44    45    2
