@<TRIPOS>MOLECULE
tmp/5f3cD00.pdb
 198 186 0 0 0
SMALL
GASTEIGER

@<TRIPOS>ATOM
      1  N         38.0020  -10.0810  -54.1900 N.3   128  TYR128     -0.1241
      2  CA        38.4690   -8.7600  -53.7960 C.3   128  TYR128      0.1605
      3  C         38.8940   -8.8270  -52.3330 C.2   128  TYR128      0.2264
      4  O         38.0780   -9.1720  -51.4810 O.2   128  TYR128     -0.2867
      5  CB        37.3350   -7.7020  -53.9750 C.3   128  TYR128      0.0534
      6  CG        37.8150   -6.2820  -54.2440 C.ar  128  TYR128     -0.0201
      7  CD1       39.1640   -5.9550  -54.1710 C.ar  128  TYR128     -0.0009
      8  CD2       36.9100   -5.2500  -54.4580 C.ar  128  TYR128     -0.0009
      9  CE1       39.6060   -4.6510  -54.3650 C.ar  128  TYR128      0.0417
     10  CE2       37.3460   -3.9470  -54.7190 C.ar  128  TYR128      0.0417
     11  CZ        38.6970   -3.6510  -54.6590 C.ar  128  TYR128      0.1957
     12  OH        39.1590   -2.3990  -54.9790 O.3   128  TYR128     -0.2866
     13  N         39.1260   -6.7520  -50.0050 N.3   130  ALA130     -0.1231
     14  CA        38.5770   -5.4420  -49.6810 C.3   130  ALA130      0.1694
     15  C         38.4070   -5.1310  -48.1910 C.2   130  ALA130      0.2592
     16  O         38.2480   -6.0310  -47.3770 O.2   130  ALA130     -0.2718
     17  CB        37.2330   -5.2810  -50.4010 C.3   130  ALA130      0.0304
     18  N         38.4330   -3.8410  -47.8530 N.am  131  ASP131     -0.1974
     19  CA        38.1890   -3.2960  -46.5080 C.3   131  ASP131      0.1709
     20  C         39.0650   -3.9120  -45.4240 C.2   131  ASP131      0.2293
     21  O         38.5660   -4.2790  -44.3500 O.2   131  ASP131     -0.2864
     22  CB        36.6830   -3.3760  -46.1350 C.3   131  ASP131      0.1436
     23  CG        35.8030   -2.7340  -47.1880 C.2   131  ASP131      0.3671
     24  OD1       35.9900   -1.5470  -47.4650 O.co2 131  ASP131     -0.2456
     25  OD2       35.0370   -3.4550  -47.8290 O.co2 131  ASP131     -0.2456
     26  N         41.4820   -3.3760  -42.4920 N.3   133  ASN133     -0.1240
     27  CA        41.9680   -2.3210  -41.5860 C.3   133  ASN133      0.1653
     28  C         43.5040   -2.3710  -41.6390 C.2   133  ASN133      0.2266
     29  O         44.1030   -3.4020  -41.3200 O.2   133  ASN133     -0.2867
     30  CB        41.5420   -2.6090  -40.1330 C.3   133  ASN133      0.1155
     31  CG        40.0900   -2.3830  -39.9240 C.2   133  ASN133      0.2627
     32  OD1       39.6680   -1.2790  -39.5960 O.2   133  ASN133     -0.2716
     33  ND2       39.2870   -3.4040  -40.1880 N.am  133  ASN133     -0.0877
     34  N         35.5610    2.9760  -37.8270 N.3   158  GLY158     -0.1210
     35  CA        36.2890    4.2410  -37.8940 C.3   158  GLY158      0.1956
     36  C         36.4110    4.8030  -39.3040 C.2   158  GLY158      0.2611
     37  O         37.2890    4.3940  -40.0640 O.2   158  GLY158     -0.2717
     38  N         35.5320    5.7500  -39.6610 N.am  159  VAL159     -0.1979
     39  CA        35.4740    6.4470  -40.9560 C.3   159  VAL159      0.1595
     40  C         36.7820    7.2190  -41.3180 C.2   159  VAL159      0.2287
     41  O         37.0500    7.4670  -42.4930 O.2   159  VAL159     -0.2864
     42  CB        34.2160    7.3740  -40.9720 C.3   159  VAL159      0.0276
     43  CG1       34.3930    8.6130  -40.0790 C.3   159  VAL159      0.0022
     44  CG2       33.8250    7.7570  -42.3850 C.3   159  VAL159      0.0022
     45  N         42.0750    1.9070  -44.8260 N.3   163  TYR163     -0.1241
     46  CA        41.6770    0.6060  -45.3620 C.3   163  TYR163      0.1605
     47  C         42.4960    0.2680  -46.5770 C.2   163  TYR163      0.2264
     48  O         42.7700    1.1400  -47.4100 O.2   163  TYR163     -0.2867
     49  CB        40.1710    0.5550  -45.7250 C.3   163  TYR163      0.0534
     50  CG        39.2910    0.6350  -44.5020 C.ar  163  TYR163     -0.0201
     51  CD1       38.9470    1.8700  -43.9440 C.ar  163  TYR163     -0.0009
     52  CD2       38.8740   -0.5200  -43.8440 C.ar  163  TYR163     -0.0009
     53  CE1       38.1770    1.9480  -42.7850 C.ar  163  TYR163      0.0417
     54  CE2       38.0950   -0.4560  -42.6900 C.ar  163  TYR163      0.0417
     55  CZ        37.7380    0.7820  -42.1720 C.ar  163  TYR163      0.1957
     56  OH        36.9750    0.8540  -41.0370 O.3   163  TYR163     -0.2866
     57  N         42.8930   -2.3630  -50.0200 N.3   165  TYR165     -0.1241
     58  CA        42.0940   -3.0690  -51.0310 C.3   165  TYR165      0.1605
     59  C         43.0450   -3.8040  -51.9750 C.2   165  TYR165      0.2264
     60  O         43.7150   -3.1780  -52.7930 O.2   165  TYR165     -0.2867
     61  CB        41.1880   -2.0860  -51.8490 C.3   165  TYR165      0.0534
     62  CG        40.1750   -1.3880  -50.9830 C.ar  165  TYR165     -0.0201
     63  CD1       40.5240   -0.2630  -50.2370 C.ar  165  TYR165     -0.0009
     64  CD2       38.8870   -1.8960  -50.8360 C.ar  165  TYR165     -0.0009
     65  CE1       39.6200    0.3390  -49.3700 C.ar  165  TYR165      0.0417
     66  CE2       37.9640   -1.2830  -49.9920 C.ar  165  TYR165      0.0417
     67  CZ        38.3400   -0.1730  -49.2540 C.ar  165  TYR165      0.1957
     68  OH        37.4790    0.4010  -48.3650 O.3   165  TYR165     -0.2866
     69  N         34.0180   -1.7900  -57.7900 N.3   173  PHE173     -0.1241
     70  CA        33.3170   -0.9940  -56.8100 C.3   173  PHE173      0.1605
     71  C         32.1180   -0.3830  -57.5430 C.2   173  PHE173      0.2264
     72  O         32.2590    0.1940  -58.6050 O.2   173  PHE173     -0.2867
     73  CB        34.1850    0.0170  -56.0510 C.3   173  PHE173      0.0534
     74  CG        35.0250    0.9100  -56.9070 C.ar  173  PHE173     -0.0203
     75  CD1       36.1790    0.4450  -57.4860 C.ar  173  PHE173     -0.0042
     76  CD2       34.7000    2.2430  -57.0630 C.ar  173  PHE173     -0.0042
     77  CE1       36.9680    1.2760  -58.2400 C.ar  173  PHE173     -0.0003
     78  CE2       35.4850    3.0780  -57.8130 C.ar  173  PHE173     -0.0003
     79  CZ        36.6190    2.5930  -58.4080 C.ar  173  PHE173     -0.0000
     80  N         28.4600    4.8140  -56.0860 N.3   176  HIS176     -0.1241
     81  CA        28.1850    5.3280  -54.7560 C.3   176  HIS176      0.1621
     82  C         28.8580    6.6570  -54.4940 C.2   176  HIS176      0.2264
     83  O         29.7340    7.0620  -55.2210 O.2   176  HIS176     -0.2867
     84  CB        28.7060    4.3420  -53.7070 C.3   176  HIS176      0.0745
     85  CG        30.2000    4.2990  -53.6150 C.ar  176  HIS176      0.0817
     86  ND1       30.9820    3.6770  -54.5570 N.ar  176  HIS176     -0.2268
     87  CD2       31.0550    4.8210  -52.7070 C.ar  176  HIS176      0.1154
     88  CE1       32.2520    3.8090  -54.2300 C.ar  176  HIS176      0.1986
     89  NE2       32.3260    4.5040  -53.1140 N.ar  176  HIS176     -0.2212
     90  N         30.4880    8.7710  -50.9300 N.3   178  GLU178     -0.1231
     91  CA        31.0410    8.2890  -49.6530 C.3   178  GLU178      0.1699
     92  C         29.9770    8.3160  -48.5390 C.2   178  GLU178      0.2592
     93  O         28.9550    8.9960  -48.6800 O.2   178  GLU178     -0.2718
     94  CB        32.2960    9.1140  -49.2450 C.3   178  GLU178      0.0402
     95  CG        33.4150    9.0310  -50.2730 C.3   178  GLU178      0.1161
     96  CD        33.8680    7.6040  -50.5430 C.2   178  GLU178      0.3649
     97  OE1       34.3830    6.9460  -49.6170 O.co2 178  GLU178     -0.2457
     98  OE2       33.5460    7.0910  -51.6270 O.co2 178  GLU178     -0.2457
     99  N         30.2140    7.5700  -47.4360 N.am  179  ASP179     -0.1974
    100  CA        29.3270    7.6120  -46.2810 C.3   179  ASP179      0.1709
    101  C         29.2760    9.0620  -45.7970 C.2   179  ASP179      0.2293
    102  O         30.2950    9.7550  -45.8330 O.2   179  ASP179     -0.2864
    103  CB        29.8440    6.7090  -45.1560 C.3   179  ASP179      0.1436
    104  CG        29.7960    5.2190  -45.4560 C.2   179  ASP179      0.3671
    105  OD1       28.7420    4.7390  -45.9350 O.co2 179  ASP179     -0.2456
    106  OD2       30.7870    4.5270  -45.1570 O.co2 179  ASP179     -0.2456
    107  N         36.9980   11.4970  -49.9830 N.3   184  SER184     -0.1217
    108  CA        37.7840   10.2810  -49.8680 C.3   184  SER184      0.1889
    109  C         39.1310   10.4520  -50.5880 C.2   184  SER184      0.2288
    110  O         39.2290   11.2020  -51.5370 O.2   184  SER184     -0.2866
    111  CB        37.0190    9.0300  -50.3250 C.3   184  SER184      0.2089
    112  OG        37.0630    8.8460  -51.7140 O.3   184  SER184     -0.2183
    113  N         42.3480    8.0090  -52.1150 N.3   186  ASN186     -0.1240
    114  CA        42.7320    6.6510  -52.5160 C.3   186  ASN186      0.1653
    115  C         44.1120    6.7340  -53.1280 C.2   186  ASN186      0.2266
    116  O         44.3350    7.4980  -54.0620 O.2   186  ASN186     -0.2867
    117  CB        41.7090    6.0140  -53.5350 C.3   186  ASN186      0.1155
    118  CG        42.0300    4.5860  -54.0280 C.2   186  ASN186      0.2627
    119  OD1       43.0560    4.3220  -54.6980 O.2   186  ASN186     -0.2716
    120  ND2       41.0650    3.6640  -53.8690 N.am  186  ASN186     -0.0877
    121  N         43.7570    0.9480  -61.8430 N.3   194  LYS194     -0.1245
    122  CA        42.3880    0.9610  -61.3440 C.3   194  LYS194      0.1561
    123  C         41.6600    2.0100  -62.1770 C.2   194  LYS194      0.2260
    124  O         42.0740    3.1650  -62.1620 O.2   194  LYS194     -0.2867
    125  CB        42.3670    1.3210  -59.8420 C.3   194  LYS194      0.0271
    126  CG        40.9690    1.2980  -59.2180 C.3   194  LYS194      0.0035
    127  CD        40.9050    1.9810  -57.8480 C.3   194  LYS194      0.0206
    128  CE        41.7180    1.2670  -56.7670 C.3   194  LYS194      0.1093
    129  NZ        41.1730   -0.0890  -56.4480 N.3   194  LYS194     -0.1314
    130  N         38.2780    4.3060  -63.1270 N.3   196  TRP196     -0.1241
    131  CA        37.1950    4.9870  -62.4510 C.3   196  TRP196      0.1605
    132  C         36.2790    5.6230  -63.4320 C.2   196  TRP196      0.2264
    133  O         36.7080    6.0720  -64.4810 O.2   196  TRP196     -0.2867
    134  CB        37.7580    6.1530  -61.6050 C.3   196  TRP196      0.0550
    135  CG        38.7010    5.7570  -60.5050 C.ar  196  TRP196      0.0003
    136  CD1       39.9520    5.2300  -60.6520 C.ar  196  TRP196      0.0946
    137  CD2       38.5080    5.9540  -59.0930 C.ar  196  TRP196      0.0152
    138  NE1       40.5160    5.0120  -59.4230 N.ar  196  TRP196     -0.2442
    139  CE2       39.6660    5.4800  -58.4450 C.ar  196  TRP196      0.0810
    140  CE3       37.4490    6.4780  -58.3040 C.ar  196  TRP196      0.0012
    141  CZ2       39.8180    5.5170  -57.0490 C.ar  196  TRP196      0.0191
    142  CZ3       37.5970    6.5070  -56.9250 C.ar  196  TRP196      0.0001
    143  CH2       38.7880    6.0600  -56.3140 C.ar  196  TRP196      0.0015
    144  N         26.0910   -0.2250  -52.2430 N.3   229  LYS229     -0.1245
    145  CA        27.2520   -0.4140  -53.1400 C.3   229  LYS229      0.1561
    146  C         27.1520   -1.7460  -53.8850 C.2   229  LYS229      0.2260
    147  O         28.0990   -2.5400  -53.9410 O.2   229  LYS229     -0.2867
    148  CB        28.5920   -0.2440  -52.3730 C.3   229  LYS229      0.0271
    149  CG        28.7290    1.1210  -51.6930 C.3   229  LYS229      0.0035
    150  CD        30.0300    1.2500  -50.9080 C.3   229  LYS229      0.0206
    151  CE        30.1400    2.5590  -50.1370 C.3   229  LYS229      0.1093
    152  NZ        29.1550    2.6950  -49.0110 N.3   229  LYS229     -0.1314
    153  N         38.0290   11.8410  -54.1110 N.3   258  THR258     -0.1218
    154  CA        36.5980   11.9570  -54.4270 C.3   258  THR258      0.1862
    155  C         36.0540   13.0820  -53.5630 C.2   258  THR258      0.2287
    156  O         36.4680   13.2420  -52.4200 O.2   258  THR258     -0.2866
    157  CB        35.7920   10.6440  -54.3010 C.3   258  THR258      0.1770
    158  OG1       35.3980   10.4470  -52.9420 O.3   258  THR258     -0.2211
    159  CG2       36.5220    9.4320  -54.8740 C.3   258  THR258      0.0375
    160  N         30.9010    7.6750  -57.8660 N.3   264  HIS264     -0.1241
    161  CA        31.9890    7.0230  -58.6200 C.3   264  HIS264      0.1621
    162  C         31.7930    5.5140  -58.5800 C.2   264  HIS264      0.2264
    163  O         31.1160    5.0030  -57.7000 O.2   264  HIS264     -0.2867
    164  CB        33.3990    7.4220  -58.0740 C.3   264  HIS264      0.0745
    165  CG        33.5500    7.2460  -56.5930 C.ar  264  HIS264      0.0817
    166  ND1       33.0430    8.1760  -55.7030 N.ar  264  HIS264     -0.2268
    167  CD2       34.1210    6.2410  -55.8960 C.ar  264  HIS264      0.1154
    168  CE1       33.3230    7.7130  -54.4960 C.ar  264  HIS264      0.1986
    169  NE2       34.0050    6.5670  -54.5640 N.ar  264  HIS264     -0.2212
    170  N         42.9190    3.6730  -48.6870 N.3   276  SER276     -0.1217
    171  CA        41.9640    4.7730  -48.6630 C.3   276  SER276      0.1889
    172  C         41.4020    5.0910  -47.3040 C.2   276  SER276      0.2288
    173  O         41.5140    4.2950  -46.3790 O.2   276  SER276     -0.2866
    174  CB        40.8210    4.4970  -49.6400 C.3   276  SER276      0.2089
    175  OG        39.9660    3.4790  -49.1690 O.3   276  SER276     -0.2183
    176  N         38.3300    8.3400  -45.4400 N.3   278  ASN278     -0.1240
    177  CA        37.4540    9.4720  -45.6740 C.3   278  ASN278      0.1653
    178  C         38.0530   10.6430  -44.9530 C.2   278  ASN278      0.2266
    179  O         38.8420   10.4570  -44.0220 O.2   278  ASN278     -0.2867
    180  CB        36.0590    9.1870  -45.1620 C.3   278  ASN278      0.1155
    181  CG        35.3680    8.1290  -45.9740 C.2   278  ASN278      0.2627
    182  OD1       35.0170    7.0860  -45.4700 O.2   278  ASN278     -0.2716
    183  ND2       35.1560    8.3680  -47.2520 N.am  278  ASN278     -0.0877
    184  N         23.3060   -1.5260  -39.3270 N.3   299  ASP299     -0.1239
    185  CA        24.7560   -1.3280  -39.2310 C.3   299  ASP299      0.1674
    186  C         25.3430   -0.1770  -40.0900 C.2   299  ASP299      0.2266
    187  O         26.5490    0.0670  -39.9970 O.2   299  ASP299     -0.2867
    188  CB        25.4880   -2.6530  -39.5450 C.3   299  ASP299      0.1410
    189  CG        25.2740   -3.2270  -40.9470 C.2   299  ASP299      0.3668
    190  OD1       24.4890   -2.6320  -41.7300 O.co2 299  ASP299     -0.2456
    191  OD2       25.8830   -4.2760  -41.2560 O.co2 299  ASP299     -0.2456
    192  N         26.7090    3.3460  -41.7670 N.3   301  VAL301     -0.1245
    193  CA        27.5560    4.3910  -41.1910 C.3   301  VAL301      0.1561
    194  C         26.8040    5.7200  -41.0500 C.2   301  VAL301      0.2260
    195  O         26.5450    6.4020  -42.0390 O.2   301  VAL301     -0.2867
    196  CB        28.9270    4.5570  -41.9190 C.3   301  VAL301      0.0252
    197  CG1       29.7600    5.6880  -41.2960 C.3   301  VAL301      0.0019
    198  CG2       29.7160    3.2470  -41.9250 C.3   301  VAL301      0.0019
@<TRIPOS>BOND
     1   133   132    2
     2   132   131    1
     3   130   131    1
     4   131   134    1
     5   123   124    2
     6   123   122    1
     7   121   122    1
     8   134   135    1
     9   122   125    1
    10   136   135   ar
    11   136   138   ar
    12   135   137   ar
    13   125   126    1
    14   138   139   ar
    15   126   127    1
    16   137   139   ar
    17   137   140   ar
    18   161   162    1
    19   161   164    1
    20   161   160    1
    21    72    71    2
    22   162   163    2
    23   139   141   ar
    24    79    77   ar
    25    79    78   ar
    26   140   142   ar
    27    77    75   ar
    28   164   165    1
    29   127   128    1
    30    78    76   ar
    31    69    70    1
    32    71    70    1
    33    75    74   ar
    34    76    74   ar
    35   141   143   ar
    36   142   143   ar
    37    74    73    1
    38    70    73    1
    39   128   129    1
    40   165   167   ar
    41   165   166   ar
    42    80    81    1
    43   167   169   ar
    44   166   168   ar
    45    83    82    2
    46    12    11    1
    47   159   157    1
    48    81    82    1
    49    81    84    1
    50    10    11   ar
    51    10     8   ar
    52   119   118    2
    53    11     9   ar
    54   169   168   ar
    55    86    88   ar
    56    86    85   ar
    57     8     6   ar
    58   154   157    1
    59   154   153    1
    60   154   155    1
    61     9     7   ar
    62   157   158    1
    63     6     7   ar
    64     6     5    1
    65    88    89   ar
    66     1     2    1
    67   116   115    2
    68   118   120   am
    69   118   117    1
    70     5     2    1
    71   147   146    2
    72   146   145    1
    73     2     3    1
    74    84    85    1
    75    85    87   ar
    76   155   156    2
    77   117   114    1
    78   145   148    1
    79   145   144    1
    80   115   114    1
    81    89    87   ar
    82    60    59    2
    83   114   113    1
    84   148   149    1
    85     3     4    2
    86    59    58    1
    87    61    58    1
    88    61    62    1
    89   112   111    1
    90   149   150    1
    91    98    96   ar
    92   110   109    2
    93    58    57    1
    94    62    64   ar
    95    62    63   ar
    96    90    91    1
    97   150   151    1
    98    64    66   ar
    99   109   108    1
   100    96    95    1
   101    96    97   ar
   102    17    14    1
   103   111   108    1
   104    95    94    1
   105    63    65   ar
   106   151   152    1
   107    13    14    1
   108    66    67   ar
   109   107   108    1
   110    14    15    1
   111    91    94    1
   112    91    92    1
   113   174   175    1
   114   174   171    1
   115    65    67   ar
   116    67    68    1
   117   170   171    1
   118    93    92    2
   119   171   172    1
   120    92    99   am
   121    15    18   am
   122    15    16    2
   123    18    19    1
   124    25    23   ar
   125    24    23   ar
   126    99   100    1
   127    48    47    2
   128   172   173    2
   129   183   181   am
   130    23    22    1
   131    47    46    1
   132    19    22    1
   133    19    20    1
   134   100   101    1
   135   100   103    1
   136   181   182    2
   137   181   180    1
   138   105   104   ar
   139   102   101    2
   140    49    46    1
   141    49    50    1
   142   177   176    1
   143   177   180    1
   144   177   178    1
   145   104   106   ar
   146   104   103    1
   147    20    21    2
   148    46    45    1
   149   178   179    2
   150    50    51   ar
   151    50    52   ar
   152    51    53   ar
   153    52    54   ar
   154    53    55   ar
   155    54    55   ar
   156    41    40    2
   157    26    27    1
   158    44    42    1
   159    55    56    1
   160   195   194    2
   161   198   196    1
   162   196   197    1
   163   196   193    1
   164   192   193    1
   165   190   189   ar
   166    28    27    1
   167    28    29    2
   168    27    30    1
   169    40    39    1
   170   191   189   ar
   171   193   194    1
   172    42    39    1
   173    42    43    1
   174    39    38    1
   175   189   188    1
   176    33    31   am
   177    30    31    1
   178   186   187    2
   179   186   185    1
   180    37    36    2
   181    31    32    2
   182    38    36   am
   183   188   185    1
   184   184   185    1
   185    36    35    1
   186    35    34    1
