@<TRIPOS>MOLECULE
tmp/5f3eC00.pdb
 186 175 0 0 0
SMALL
GASTEIGER

@<TRIPOS>ATOM
      1  N        -15.0010  -36.6940  -52.0880 N.3   123  TYR123     -0.1241
      2  CA       -15.5070  -38.0320  -51.7980 C.3   123  TYR123      0.1605
      3  C        -15.6320  -38.2260  -50.2920 C.2   123  TYR123      0.2264
      4  O        -14.6210  -38.1470  -49.5960 O.2   123  TYR123     -0.2867
      5  CB       -14.5770  -39.1020  -52.4340 C.3   123  TYR123      0.0534
      6  CG       -15.2160  -40.4580  -52.6730 C.ar  123  TYR123     -0.0201
      7  CD1      -16.5900  -40.6460  -52.5150 C.ar  123  TYR123     -0.0009
      8  CD2      -14.4480  -41.5590  -53.0480 C.ar  123  TYR123     -0.0009
      9  CE1      -17.1810  -41.8950  -52.7170 C.ar  123  TYR123      0.0417
     10  CE2      -15.0380  -42.7990  -53.3120 C.ar  123  TYR123      0.0417
     11  CZ       -16.4100  -42.9620  -53.1490 C.ar  123  TYR123      0.1957
     12  OH       -17.0250  -44.1740  -53.4060 O.3   123  TYR123     -0.2866
     13  N        -15.5900  -40.6050  -48.2660 N.3   125  ALA125     -0.1231
     14  CA       -15.1380  -41.9950  -48.1630 C.3   125  ALA125      0.1694
     15  C        -14.6700  -42.4150  -46.7900 C.2   125  ALA125      0.2592
     16  O        -14.3170  -41.5680  -45.9650 O.2   125  ALA125     -0.2718
     17  CB       -14.0480  -42.2540  -49.1840 C.3   125  ALA125      0.0304
     18  N        -14.7070  -43.7450  -46.5420 N.am  126  ASP126     -0.1974
     19  CA       -14.2200  -44.4050  -45.3360 C.3   126  ASP126      0.1709
     20  C        -14.8010  -43.8290  -44.0390 C.2   126  ASP126      0.2293
     21  O        -14.0980  -43.7230  -43.0330 O.2   126  ASP126     -0.2864
     22  CB       -12.6650  -44.4240  -45.3170 C.3   126  ASP126      0.1436
     23  CG       -12.0280  -44.9090  -46.6220 C.2   126  ASP126      0.3671
     24  OD1      -12.4690  -45.9490  -47.1540 O.co2 126  ASP126     -0.2456
     25  OD2      -11.1020  -44.2460  -47.1080 O.co2 126  ASP126     -0.2456
     26  N         -9.7280  -53.8520  -37.3410 N.3   159  ILE159     -0.1245
     27  CA        -9.2730  -52.8070  -38.2710 C.3   159  ILE159      0.1561
     28  C        -10.4800  -52.2040  -39.0000 C.2   159  ILE159      0.2260
     29  O        -11.3550  -52.9420  -39.4430 O.2   159  ILE159     -0.2867
     30  CB        -8.1770  -53.3140  -39.2570 C.3   159  ILE159      0.0252
     31  CG1       -6.9550  -53.9060  -38.4930 C.3   159  ILE159      0.0019
     32  CG2       -7.7480  -52.1840  -40.2310 C.3   159  ILE159      0.0019
     33  CD1       -6.1210  -54.9240  -39.2620 C.3   159  ILE159      0.0001
     34  N        -10.4130  -55.8950  -42.9330 N.3   160  VAL160     -0.1245
     35  CA       -11.2130  -55.0330  -42.0520 C.3   160  VAL160      0.1561
     36  C        -12.5600  -55.6990  -41.7130 C.2   160  VAL160      0.2260
     37  O        -13.2420  -56.2260  -42.5990 O.2   160  VAL160     -0.2867
     38  CB       -11.3640  -53.5570  -42.5550 C.3   160  VAL160      0.0252
     39  CG1      -10.0390  -53.0130  -43.0800 C.3   160  VAL160      0.0019
     40  CG2      -12.4840  -53.3760  -43.5890 C.3   160  VAL160      0.0019
     41  N        -18.0110  -49.4800  -43.5480 N.3   164  TYR164     -0.1241
     42  CA       -17.6200  -48.1390  -43.9530 C.3   164  TYR164      0.1605
     43  C        -18.6540  -47.6000  -44.9070 C.2   164  TYR164      0.2264
     44  O        -19.1870  -48.3550  -45.7180 O.2   164  TYR164     -0.2867
     45  CB       -16.2260  -48.1230  -44.6010 C.3   164  TYR164      0.0534
     46  CG       -15.1250  -48.4530  -43.6160 C.ar  164  TYR164     -0.0201
     47  CD1      -14.7150  -49.7690  -43.4140 C.ar  164  TYR164     -0.0009
     48  CD2      -14.5180  -47.4540  -42.8560 C.ar  164  TYR164     -0.0009
     49  CE1      -13.7350  -50.0890  -42.4750 C.ar  164  TYR164      0.0417
     50  CE2      -13.5240  -47.7580  -41.9290 C.ar  164  TYR164      0.0417
     51  CZ       -13.1400  -49.0830  -41.7350 C.ar  164  TYR164      0.1957
     52  OH       -12.1690  -49.4290  -40.8180 O.3   164  TYR164     -0.2866
     53  N        -19.6470  -44.6830  -47.9130 N.3   166  TYR166     -0.1241
     54  CA       -19.0430  -43.8910  -48.9900 C.3   166  TYR166      0.1605
     55  C        -20.1090  -43.0000  -49.5800 C.2   166  TYR166      0.2264
     56  O        -21.0650  -43.4940  -50.1650 O.2   166  TYR166     -0.2867
     57  CB       -18.4490  -44.8100  -50.0770 C.3   166  TYR166      0.0534
     58  CG       -17.3090  -45.6530  -49.5570 C.ar  166  TYR166     -0.0201
     59  CD1      -17.5510  -46.8270  -48.8390 C.ar  166  TYR166     -0.0009
     60  CD2      -15.9900  -45.2580  -49.7370 C.ar  166  TYR166     -0.0009
     61  CE1      -16.5050  -47.5780  -48.3100 C.ar  166  TYR166      0.0417
     62  CE2      -14.9360  -45.9950  -49.2000 C.ar  166  TYR166      0.0417
     63  CZ       -15.2010  -47.1590  -48.4930 C.ar  166  TYR166      0.1957
     64  OH       -14.1730  -47.9100  -47.9920 O.3   166  TYR166     -0.2866
     65  N        -12.7110  -44.7870  -57.3930 N.3   174  PHE174     -0.1241
     66  CA       -11.9580  -45.7690  -56.6620 C.3   174  PHE174      0.1605
     67  C        -11.0000  -46.3660  -57.7040 C.2   174  PHE174      0.2264
     68  O        -11.4090  -46.8230  -58.7450 O.2   174  PHE174     -0.2867
     69  CB       -12.7990  -46.7520  -55.8210 C.3   174  PHE174      0.0534
     70  CG       -13.7920  -47.5770  -56.5860 C.ar  174  PHE174     -0.0203
     71  CD1      -15.0780  -47.1220  -56.8070 C.ar  174  PHE174     -0.0042
     72  CD2      -13.4630  -48.8410  -57.0210 C.ar  174  PHE174     -0.0042
     73  CE1      -15.9950  -47.8980  -57.4820 C.ar  174  PHE174     -0.0003
     74  CE2      -14.3760  -49.6230  -57.6930 C.ar  174  PHE174     -0.0003
     75  CZ       -15.6420  -49.1520  -57.9290 C.ar  174  PHE174     -0.0000
     76  N         -7.5460  -51.9100  -57.6810 N.3   177  HIS177     -0.1241
     77  CA        -7.0420  -52.5990  -56.5140 C.3   177  HIS177      0.1621
     78  C         -7.7420  -53.9040  -56.2400 C.2   177  HIS177      0.2264
     79  O         -8.7670  -54.2040  -56.8060 O.2   177  HIS177     -0.2867
     80  CB        -7.2190  -51.7200  -55.2740 C.3   177  HIS177      0.0745
     81  CG        -8.6450  -51.5690  -54.8510 C.ar  177  HIS177      0.0817
     82  ND1       -9.5360  -50.7810  -55.5320 N.ar  177  HIS177     -0.2268
     83  CD2       -9.3400  -52.1290  -53.8370 C.ar  177  HIS177      0.1154
     84  CE1      -10.7130  -50.8450  -54.9490 C.ar  177  HIS177      0.1986
     85  NE2      -10.6220  -51.6550  -53.9140 N.ar  177  HIS177     -0.2212
     86  N         -8.7020  -56.2800  -52.6460 N.3   179  GLU179     -0.1231
     87  CA        -8.9720  -55.9770  -51.2520 C.3   179  GLU179      0.1699
     88  C         -7.7600  -56.2230  -50.4060 C.2   179  GLU179      0.2592
     89  O         -6.8480  -56.9270  -50.8330 O.2   179  GLU179     -0.2718
     90  CB       -10.1580  -56.8190  -50.7610 C.3   179  GLU179      0.0402
     91  CG       -11.4180  -56.5320  -51.5330 C.3   179  GLU179      0.1161
     92  CD       -11.8070  -55.0720  -51.4290 C.2   179  GLU179      0.3649
     93  OE1      -12.0590  -54.5960  -50.3040 O.co2 179  GLU179     -0.2457
     94  OE2      -11.7720  -54.3810  -52.4650 O.co2 179  GLU179     -0.2457
     95  N         -7.7210  -55.6360  -49.2180 N.am  180  ASP180     -0.1974
     96  CA        -6.6000  -55.8620  -48.3040 C.3   180  ASP180      0.1709
     97  C         -6.5340  -57.3430  -47.9670 C.2   180  ASP180      0.2293
     98  O         -7.5860  -57.9700  -47.8030 O.2   180  ASP180     -0.2864
     99  CB        -6.7100  -54.9830  -47.0390 C.3   180  ASP180      0.1436
    100  CG        -6.6430  -53.4840  -47.3350 C.2   180  ASP180      0.3671
    101  OD1       -5.8020  -53.0750  -48.1810 O.co2 180  ASP180     -0.2456
    102  OD2       -7.4410  -52.7220  -46.7370 O.co2 180  ASP180     -0.2456
    103  N        -15.0860  -58.8480  -50.6760 N.3   185  SER185     -0.1217
    104  CA       -15.7210  -57.6110  -50.2570 C.3   185  SER185      0.1889
    105  C        -17.2030  -57.6150  -50.6560 C.2   185  SER185      0.2288
    106  O        -17.5930  -58.3240  -51.5550 O.2   185  SER185     -0.2866
    107  CB       -14.9690  -56.3800  -50.7500 C.3   185  SER185      0.2089
    108  OG       -15.5400  -55.8390  -51.9080 O.3   185  SER185     -0.2183
    109  N        -20.5390  -54.7840  -51.1830 N.3   187  ASN187     -0.1240
    110  CA       -20.8640  -53.3660  -51.2830 C.3   187  ASN187      0.1653
    111  C        -22.3420  -53.2060  -51.5710 C.2   187  ASN187      0.2266
    112  O        -22.8280  -53.7780  -52.5270 O.2   187  ASN187     -0.2867
    113  CB       -20.0040  -52.7230  -52.3860 C.3   187  ASN187      0.1155
    114  CG       -20.2440  -51.2660  -52.6190 C.2   187  ASN187      0.2627
    115  OD1      -21.3330  -50.8430  -52.9790 O.2   187  ASN187     -0.2716
    116  ND2      -19.1900  -50.4680  -52.5390 N.am  187  ASN187     -0.0877
    117  N        -23.3330  -46.4140  -59.4520 N.3   195  LYS195     -0.1245
    118  CA       -21.8970  -46.6080  -59.2700 C.3   195  LYS195      0.1561
    119  C        -21.4640  -47.6100  -60.3610 C.2   195  LYS195      0.2260
    120  O        -22.0070  -48.7100  -60.4270 O.2   195  LYS195     -0.2867
    121  CB       -21.6110  -47.1520  -57.8630 C.3   195  LYS195      0.0271
    122  CG       -20.1270  -47.3640  -57.5990 C.3   195  LYS195      0.0035
    123  CD       -19.8340  -48.1240  -56.3030 C.3   195  LYS195      0.0206
    124  CE       -20.3510  -47.4490  -55.0470 C.3   195  LYS195      0.1093
    125  NZ       -19.5760  -46.2040  -54.7410 N.3   195  LYS195     -0.1314
    126  N        -18.5490  -49.9650  -62.2650 N.3   197  TRP197     -0.1241
    127  CA       -17.4580  -50.8260  -61.8700 C.3   197  TRP197      0.1605
    128  C        -16.8340  -51.4400  -63.0770 C.2   197  TRP197      0.2264
    129  O        -17.5360  -51.7830  -64.0340 O.2   197  TRP197     -0.2867
    130  CB       -18.0100  -52.0080  -61.0360 C.3   197  TRP197      0.0550
    131  CG       -18.5880  -51.6790  -59.6980 C.ar  197  TRP197      0.0003
    132  CD1      -19.7840  -51.0690  -59.4510 C.ar  197  TRP197      0.0946
    133  CD2      -18.0820  -52.0990  -58.4300 C.ar  197  TRP197      0.0152
    134  NE1      -20.0170  -51.0110  -58.0980 N.ar  197  TRP197     -0.2442
    135  CE2      -18.9950  -51.6470  -57.4440 C.ar  197  TRP197      0.0810
    136  CE3      -16.9290  -52.7930  -58.0200 C.ar  197  TRP197      0.0012
    137  CZ2      -18.7770  -51.8440  -56.0710 C.ar  197  TRP197      0.0191
    138  CZ3      -16.7290  -53.0170  -56.6660 C.ar  197  TRP197      0.0001
    139  CH2      -17.6330  -52.5280  -55.7060 C.ar  197  TRP197      0.0015
    140  N         -4.1590  -47.5520  -53.8750 N.3   230  LYS230     -0.1245
    141  CA        -5.4330  -47.1640  -54.4980 C.3   230  LYS230      0.1561
    142  C         -5.3500  -45.7490  -55.0990 C.2   230  LYS230      0.2260
    143  O         -6.2080  -44.8990  -54.8450 O.2   230  LYS230     -0.2867
    144  CB        -6.6180  -47.3370  -53.5170 C.3   230  LYS230      0.0271
    145  CG        -6.8160  -48.7770  -53.0580 C.3   230  LYS230      0.0035
    146  CD        -7.5140  -48.8770  -51.7120 C.3   230  LYS230      0.0206
    147  CE        -7.5100  -50.2920  -51.1790 C.3   230  LYS230      0.1093
    148  NZ        -6.1860  -50.6850  -50.6240 N.3   230  LYS230     -0.1314
    149  N        -17.0250  -58.6210  -54.4470 N.3   259  THR259     -0.1218
    150  CA       -15.7000  -58.7260  -55.0600 C.3   259  THR259      0.1862
    151  C        -15.0510  -60.0100  -54.4880 C.2   259  THR259      0.2287
    152  O        -15.2030  -60.3020  -53.3050 O.2   259  THR259     -0.2866
    153  CB       -14.8460  -57.4550  -54.9260 C.3   259  THR259      0.1770
    154  OG1      -14.1110  -57.4940  -53.6950 O.3   259  THR259     -0.2211
    155  CG2      -15.6650  -56.1510  -55.0840 C.3   259  THR259      0.0375
    156  N        -10.4900  -54.3530  -59.3060 N.3   265  HIS265     -0.1241
    157  CA       -11.6670  -53.5830  -59.6670 C.3   265  HIS265      0.1621
    158  C        -11.3470  -52.1010  -59.5090 C.2   265  HIS265      0.2264
    159  O        -10.4010  -51.7520  -58.8070 O.2   265  HIS265     -0.2867
    160  CB       -12.9250  -54.0370  -58.8760 C.3   265  HIS265      0.0745
    161  CG       -12.7370  -54.0760  -57.3900 C.ar  265  HIS265      0.0817
    162  ND1      -12.0760  -55.1300  -56.7690 N.ar  265  HIS265     -0.2268
    163  CD2      -13.1240  -53.1890  -56.4410 C.ar  265  HIS265      0.1154
    164  CE1      -12.0870  -54.8540  -55.4810 C.ar  265  HIS265      0.1986
    165  NE2      -12.7330  -53.7140  -55.2330 N.ar  265  HIS265     -0.2212
    166  N        -19.9110  -50.7530  -47.1580 N.3   277  SER277     -0.1217
    167  CA       -19.0190  -51.8580  -47.4980 C.3   277  SER277      0.1889
    168  C        -18.2160  -52.4260  -46.3330 C.2   277  SER277      0.2288
    169  O        -18.0160  -51.7450  -45.3300 O.2   277  SER277     -0.2866
    170  CB       -18.0480  -51.3800  -48.5720 C.3   277  SER277      0.2089
    171  OG       -17.4480  -52.4930  -49.2030 O.3   277  SER277     -0.2183
    172  N        -15.2100  -56.2430  -45.6440 N.3   279  ASN279     -0.1240
    173  CA       -14.5500  -57.4300  -46.1680 C.3   279  ASN279      0.1653
    174  C        -15.0710  -58.6170  -45.4060 C.2   279  ASN279      0.2266
    175  O        -15.5020  -58.4840  -44.2620 O.2   279  ASN279     -0.2867
    176  CB       -13.0370  -57.3540  -45.9770 C.3   279  ASN279      0.1155
    177  CG       -12.3460  -56.2670  -46.7390 C.2   279  ASN279      0.2627
    178  OD1      -11.7520  -55.3580  -46.1430 O.2   279  ASN279     -0.2716
    179  ND2      -12.3530  -56.3700  -48.0690 N.am  279  ASN279     -0.0877
    180  N         -2.7940  -52.3770  -44.0430 N.3   299  VAL299     -0.1245
    181  CA        -3.5030  -53.5310  -43.4650 C.3   299  VAL299      0.1561
    182  C         -2.7630  -54.8610  -43.6780 C.2   299  VAL299      0.2260
    183  O         -2.6210  -55.3430  -44.8080 O.2   299  VAL299     -0.2867
    184  CB        -4.9940  -53.6400  -43.8950 C.3   299  VAL299      0.0252
    185  CG1       -5.6730  -54.8590  -43.2540 C.3   299  VAL299      0.0019
    186  CG2       -5.7610  -52.3600  -43.5600 C.3   299  VAL299      0.0019
@<TRIPOS>BOND
     1   129   128    2
     2   128   127    1
     3   126   127    1
     4   127   130    1
     5   130   131    1
     6   120   119    2
     7   119   118    1
     8   131   132   ar
     9   131   133   ar
    10   157   158    1
    11   157   156    1
    12   157   160    1
    13   158   159    2
    14   117   118    1
    15   132   134   ar
    16   118   121    1
    17   160   161    1
    18    68    67    2
    19   133   136   ar
    20   133   135   ar
    21   134   135   ar
    22   136   138   ar
    23    75    74   ar
    24    75    73   ar
    25   121   122    1
    26    67    66    1
    27    74    72   ar
    28    76    77    1
    29   122   123    1
    30    73    71   ar
    31   135   137   ar
    32    65    66    1
    33   161   162   ar
    34   161   163   ar
    35    72    70   ar
    36    71    70   ar
    37    79    78    2
    38   162   164   ar
    39   138   139   ar
    40    66    69    1
    41    70    69    1
    42    77    78    1
    43    77    80    1
    44   163   165   ar
    45   123   124    1
    46   137   139   ar
    47    82    84   ar
    48    82    81   ar
    49   164   165   ar
    50    80    81    1
    51   142   143    2
    52   142   141    1
    53   155   153    1
    54   150   153    1
    55   150   151    1
    56   150   149    1
    57   124   125    1
    58    84    85   ar
    59   153   154    1
    60    81    83   ar
    61   141   140    1
    62   141   144    1
    63   151   152    2
    64    85    83   ar
    65   144   145    1
    66    12    11    1
    67    10    11   ar
    68    10     8   ar
    69    11     9   ar
    70   145   146    1
    71     8     6   ar
    72   115   114    2
    73     9     7   ar
    74     6     7   ar
    75     6     5    1
    76    86    87    1
    77   114   116   am
    78   114   113    1
    79   112   111    2
    80    94    92   ar
    81     5     2    1
    82   113   110    1
    83     1     2    1
    84   108   107    1
    85     2     3    1
    86   146   147    1
    87   111   110    1
    88   106   105    2
    89    91    92    1
    90    91    90    1
    91    92    93   ar
    92   110   109    1
    93    87    90    1
    94    87    88    1
    95   147   148    1
    96    89    88    2
    97   107   104    1
    98   103   104    1
    99   105   104    1
   100    88    95   am
   101     3     4    2
   102    56    55    2
   103    57    58    1
   104    57    54    1
   105    60    58   ar
   106    60    62   ar
   107    55    54    1
   108    58    59   ar
   109    95    96    1
   110   171   170    1
   111    62    63   ar
   112    17    14    1
   113    54    53    1
   114    59    61   ar
   115   170   167    1
   116    63    61   ar
   117    63    64    1
   118    96    97    1
   119    96    99    1
   120    13    14    1
   121   101   100   ar
   122    14    15    1
   123   179   177   am
   124    97    98    2
   125   167   166    1
   126   167   168    1
   127   100    99    1
   128   100   102   ar
   129    24    23   ar
   130    25    23   ar
   131    15    18   am
   132    15    16    2
   133   177   178    2
   134   177   176    1
   135    23    22    1
   136    18    19    1
   137   168   169    2
   138   173   176    1
   139   173   172    1
   140   173   174    1
   141    44    43    2
   142   174   175    2
   143    19    22    1
   144    19    20    1
   145    43    42    1
   146   183   182    2
   147    45    42    1
   148    45    46    1
   149   180   181    1
   150    20    21    2
   151    42    41    1
   152   184   186    1
   153   184   181    1
   154   184   185    1
   155   182   181    1
   156    46    47   ar
   157    46    48   ar
   158    40    38    1
   159    47    49   ar
   160    39    38    1
   161    34    35    1
   162    48    50   ar
   163    37    36    2
   164    38    35    1
   165    49    51   ar
   166    35    36    1
   167    50    51   ar
   168    51    52    1
   169    32    30    1
   170    29    28    2
   171    33    31    1
   172    30    31    1
   173    30    27    1
   174    28    27    1
   175    27    26    1
