@<TRIPOS>MOLECULE
tmp/5f3eB00.pdb
 186 175 0 0 0
SMALL
GASTEIGER

@<TRIPOS>ATOM
      1  N          2.9010  -66.1860  -16.2330 N.3   126  TYR126     -0.1241
      2  CA         2.4260  -64.8720  -16.6200 C.3   126  TYR126      0.1605
      3  C          2.0020  -64.9320  -18.1030 C.2   126  TYR126      0.2264
      4  O          2.8030  -65.3010  -18.9620 O.2   126  TYR126     -0.2867
      5  CB         3.5200  -63.8070  -16.4330 C.3   126  TYR126      0.0534
      6  CG         3.0180  -62.3990  -16.1730 C.ar  126  TYR126     -0.0201
      7  CD1        1.6580  -62.0920  -16.2510 C.ar  126  TYR126     -0.0009
      8  CD2        3.9020  -61.3550  -15.9730 C.ar  126  TYR126     -0.0009
      9  CE1        1.1920  -60.7960  -16.0320 C.ar  126  TYR126      0.0417
     10  CE2        3.4500  -60.0480  -15.7580 C.ar  126  TYR126      0.0417
     11  CZ         2.0920  -59.7810  -15.7620 C.ar  126  TYR126      0.1957
     12  OH         1.6430  -58.5150  -15.4890 O.3   126  TYR126     -0.2866
     13  N          1.8200  -62.7890  -20.3350 N.3   128  ALA128     -0.1231
     14  CA         2.2750  -61.4510  -20.7080 C.3   128  ALA128      0.1694
     15  C          2.4770  -61.1780  -22.2170 C.2   128  ALA128      0.2592
     16  O          2.7330  -62.0890  -23.0030 O.2   128  ALA128     -0.2718
     17  CB         3.5770  -61.1560  -19.9640 C.3   128  ALA128      0.0304
     18  N          2.4130  -59.8940  -22.6000 N.am  129  ASP129     -0.1974
     19  CA         2.7160  -59.3830  -23.9560 C.3   129  ASP129      0.1709
     20  C          1.8820  -59.9940  -25.0430 C.2   129  ASP129      0.2293
     21  O          2.3690  -60.2480  -26.1460 O.2   129  ASP129     -0.2864
     22  CB         4.2230  -59.4930  -24.2950 C.3   129  ASP129      0.1436
     23  CG         5.1480  -58.9080  -23.2400 C.2   129  ASP129      0.3671
     24  OD1        4.9260  -57.7500  -22.8280 O.co2 129  ASP129     -0.2456
     25  OD2        6.0700  -59.6170  -22.8100 O.co2 129  ASP129     -0.2456
     26  N         -0.5980  -59.4430  -27.8950 N.3   131  ASN131     -0.1240
     27  CA        -1.0550  -58.3600  -28.7710 C.3   131  ASN131      0.1653
     28  C         -2.5710  -58.4030  -28.7900 C.2   131  ASN131      0.2266
     29  O         -3.1690  -59.3830  -29.2370 O.2   131  ASN131     -0.2867
     30  CB        -0.5430  -58.5420  -30.2220 C.3   131  ASN131      0.1155
     31  CG         0.9200  -58.3070  -30.3720 C.2   131  ASN131      0.2627
     32  OD1        1.3510  -57.2100  -30.7260 O.2   131  ASN131     -0.2716
     33  ND2        1.7200  -59.3270  -30.0780 N.am  131  ASN131     -0.0877
     34  N          5.2640  -50.4050  -30.6200 N.3   155  VAL155     -0.1245
     35  CA         5.4160  -49.5330  -29.4400 C.3   155  VAL155      0.1561
     36  C          4.1400  -48.7370  -29.1620 C.2   155  VAL155      0.2260
     37  O          3.8620  -48.3460  -28.0280 O.2   155  VAL155     -0.2867
     38  CB         6.6830  -48.6270  -29.5350 C.3   155  VAL155      0.0252
     39  CG1        6.5310  -47.5150  -30.5870 C.3   155  VAL155      0.0019
     40  CG2        7.0600  -48.0640  -28.1670 C.3   155  VAL155      0.0019
     41  N         -1.0610  -54.1140  -25.5960 N.3   159  TYR159     -0.1241
     42  CA        -0.6570  -55.4280  -25.0770 C.3   159  TYR159      0.1605
     43  C         -1.4960  -55.7670  -23.8500 C.2   159  TYR159      0.2264
     44  O         -1.7910  -54.8760  -23.0410 O.2   159  TYR159     -0.2867
     45  CB         0.8510  -55.4650  -24.7150 C.3   159  TYR159      0.0534
     46  CG         1.7330  -55.4320  -25.9420 C.ar  159  TYR159     -0.0201
     47  CD1        2.0220  -56.6000  -26.6490 C.ar  159  TYR159     -0.0009
     48  CD2        2.1810  -54.2210  -26.4700 C.ar  159  TYR159     -0.0009
     49  CE1        2.8060  -56.5740  -27.7980 C.ar  159  TYR159      0.0417
     50  CE2        2.9790  -54.1800  -27.6130 C.ar  159  TYR159      0.0417
     51  CZ         3.2850  -55.3600  -28.2780 C.ar  159  TYR159      0.1957
     52  OH         4.0510  -55.3210  -29.4200 O.3   159  TYR159     -0.2866
     53  N         -1.9600  -58.4190  -20.4320 N.3   161  TYR161     -0.1241
     54  CA        -1.2270  -59.1570  -19.4120 C.3   161  TYR161      0.1605
     55  C         -2.2200  -59.8570  -18.4850 C.2   161  TYR161      0.2264
     56  O         -2.8660  -59.2210  -17.6580 O.2   161  TYR161     -0.2867
     57  CB        -0.3300  -58.2160  -18.5830 C.3   161  TYR161      0.0534
     58  CG         0.6720  -57.4720  -19.4240 C.ar  161  TYR161     -0.0201
     59  CD1        0.3310  -56.2780  -20.0620 C.ar  161  TYR161     -0.0009
     60  CD2        1.9560  -57.9670  -19.6100 C.ar  161  TYR161     -0.0009
     61  CE1        1.2380  -55.6180  -20.8960 C.ar  161  TYR161      0.0417
     62  CE2        2.8760  -57.3070  -20.4260 C.ar  161  TYR161      0.0417
     63  CZ         2.5070  -56.1410  -21.0750 C.ar  161  TYR161      0.1957
     64  OH         3.4160  -55.5010  -21.8700 O.3   161  TYR161     -0.2866
     65  N          6.8780  -57.9520  -12.6260 N.3   169  PHE169     -0.1241
     66  CA         7.5690  -57.1000  -13.5690 C.3   169  PHE169      0.1605
     67  C          8.7620  -56.4850  -12.8160 C.2   169  PHE169      0.2264
     68  O          8.6140  -55.8820  -11.7790 O.2   169  PHE169     -0.2867
     69  CB         6.6830  -56.1010  -14.3410 C.3   169  PHE169      0.0534
     70  CG         5.8550  -55.1800  -13.4950 C.ar  169  PHE169     -0.0203
     71  CD1        4.6840  -55.6140  -12.9170 C.ar  169  PHE169     -0.0042
     72  CD2        6.2100  -53.8580  -13.3520 C.ar  169  PHE169     -0.0042
     73  CE1        3.9120  -54.7600  -12.1740 C.ar  169  PHE169     -0.0003
     74  CE2        5.4430  -52.9930  -12.6140 C.ar  169  PHE169     -0.0003
     75  CZ         4.2960  -53.4450  -12.0200 C.ar  169  PHE169     -0.0000
     76  N         12.3810  -51.3330  -14.2530 N.3   172  HIS172     -0.1241
     77  CA        12.6200  -50.8030  -15.5900 C.3   172  HIS172      0.1621
     78  C         11.9400  -49.4770  -15.8300 C.2   172  HIS172      0.2264
     79  O         11.0570  -49.0900  -15.0980 O.2   172  HIS172     -0.2867
     80  CB        12.1060  -51.7720  -16.6680 C.3   172  HIS172      0.0745
     81  CG        10.6080  -51.8280  -16.7670 C.ar  172  HIS172      0.0817
     82  ND1        9.8230  -52.3750  -15.7850 N.ar  172  HIS172     -0.2268
     83  CD2        9.7540  -51.3880  -17.7190 C.ar  172  HIS172      0.1154
     84  CE1        8.5570  -52.2780  -16.1230 C.ar  172  HIS172      0.1986
     85  NE2        8.4820  -51.6800  -17.2940 N.ar  172  HIS172     -0.2212
     86  N         10.3260  -47.4280  -19.4320 N.3   174  GLU174     -0.1231
     87  CA         9.7970  -47.8820  -20.7120 C.3   174  GLU174      0.1699
     88  C         10.8720  -47.8330  -21.8080 C.2   174  GLU174      0.2592
     89  O         11.8870  -47.1490  -21.6740 O.2   174  GLU174     -0.2718
     90  CB         8.5670  -47.0160  -21.1260 C.3   174  GLU174      0.0402
     91  CG         7.4130  -47.0760  -20.1390 C.3   174  GLU174      0.1161
     92  CD         7.0030  -48.5130  -19.8860 C.2   174  GLU174      0.3649
     93  OE1        6.5940  -49.1970  -20.8490 O.co2 174  GLU174     -0.2457
     94  OE2        7.2790  -49.0070  -18.7750 O.co2 174  GLU174     -0.2457
     95  N         10.6340  -48.5330  -22.9050 N.am  175  ASP175     -0.1974
     96  CA        11.5290  -48.4680  -24.0460 C.3   175  ASP175      0.1709
     97  C         11.5700  -47.0030  -24.5180 C.2   175  ASP175      0.2293
     98  O         10.5440  -46.3240  -24.4790 O.2   175  ASP175     -0.2864
     99  CB        11.0510  -49.4240  -25.1650 C.3   175  ASP175      0.1436
    100  CG        11.2030  -50.9070  -24.7940 C.2   175  ASP175      0.3671
    101  OD1       12.1570  -51.2500  -24.0480 O.co2 175  ASP175     -0.2456
    102  OD2       10.3650  -51.7120  -25.2290 O.co2 175  ASP175     -0.2456
    103  N          3.8620  -44.5800  -20.3420 N.3   180  SER180     -0.1217
    104  CA         3.0530  -45.7720  -20.4800 C.3   180  SER180      0.1889
    105  C          1.7260  -45.5920  -19.7420 C.2   180  SER180      0.2288
    106  O          1.6290  -44.8150  -18.8140 O.2   180  SER180     -0.2866
    107  CB         3.7870  -47.0740  -20.1140 C.3   180  SER180      0.2089
    108  OG         3.8230  -47.3000  -18.7390 O.3   180  SER180     -0.2183
    109  N         -1.5310  -48.0820  -18.2540 N.3   182  ASN182     -0.1240
    110  CA        -1.9010  -49.4200  -17.8450 C.3   182  ASN182      0.1653
    111  C         -3.2740  -49.3640  -17.2320 C.2   182  ASN182      0.2266
    112  O         -3.4680  -48.6660  -16.2450 O.2   182  ASN182     -0.2867
    113  CB        -0.8440  -50.0110  -16.8290 C.3   182  ASN182      0.1155
    114  CG        -1.1170  -51.4580  -16.3960 C.2   182  ASN182      0.2627
    115  OD1       -2.0460  -51.7460  -15.6260 O.2   182  ASN182     -0.2716
    116  ND2       -0.2540  -52.4020  -16.7900 N.am  182  ASN182     -0.0877
    117  N         -2.8870  -55.1920   -8.5830 N.3   190  LYS190     -0.1245
    118  CA        -1.5290  -55.2080   -9.0720 C.3   190  LYS190      0.1561
    119  C         -0.8200  -54.1420   -8.2260 C.2   190  LYS190      0.2260
    120  O         -1.2800  -53.0040   -8.1830 O.2   190  LYS190     -0.2867
    121  CB        -1.4940  -54.8830  -10.5840 C.3   190  LYS190      0.0271
    122  CG        -0.0860  -54.8150  -11.1640 C.3   190  LYS190      0.0035
    123  CD        -0.0440  -54.2270  -12.5830 C.3   190  LYS190      0.0206
    124  CE        -0.9250  -54.9760  -13.5880 C.3   190  LYS190      0.1093
    125  NZ        -0.3070  -56.2740  -13.9830 N.3   190  LYS190     -0.1314
    126  N          2.5620  -51.8310   -7.3010 N.3   192  TRP192     -0.1241
    127  CA         3.6220  -51.1090   -7.9730 C.3   192  TRP192      0.1605
    128  C          4.5360  -50.4600   -6.9880 C.2   192  TRP192      0.2264
    129  O          4.0940  -49.9970   -5.9390 O.2   192  TRP192     -0.2867
    130  CB         3.0030  -49.9410   -8.7650 C.3   192  TRP192      0.0550
    131  CG         2.0910  -50.3440   -9.8800 C.ar  192  TRP192      0.0003
    132  CD1        0.8370  -50.8830   -9.7640 C.ar  192  TRP192      0.0946
    133  CD2        2.3280  -50.1630  -11.2820 C.ar  192  TRP192      0.0152
    134  NE1        0.3110  -51.1080  -11.0120 N.ar  192  TRP192     -0.2442
    135  CE2        1.1960  -50.6540  -11.9630 C.ar  192  TRP192      0.0810
    136  CE3        3.4020  -49.6370  -12.0350 C.ar  192  TRP192      0.0012
    137  CZ2        1.0770  -50.5930  -13.3560 C.ar  192  TRP192      0.0191
    138  CZ3        3.3020  -49.6110  -13.4160 C.ar  192  TRP192      0.0001
    139  CH2        2.1450  -50.0870  -14.0640 C.ar  192  TRP192      0.0015
    140  N         14.7950  -56.2800  -18.1390 N.3   225  LYS225     -0.1245
    141  CA        13.6170  -56.4660  -17.2750 C.3   225  LYS225      0.1561
    142  C         13.7010  -57.7910  -16.5150 C.2   225  LYS225      0.2260
    143  O         12.7470  -58.5760  -16.4600 O.2   225  LYS225     -0.2867
    144  CB        12.3010  -56.2820  -18.0600 C.3   225  LYS225      0.0271
    145  CG        12.2270  -54.9220  -18.7660 C.3   225  LYS225      0.0035
    146  CD        10.9510  -54.7360  -19.6000 C.3   225  LYS225      0.0206
    147  CE        11.0020  -53.4650  -20.4400 C.3   225  LYS225      0.1093
    148  NZ        12.1200  -53.4400  -21.4490 N.3   225  LYS225     -0.1314
    149  N          2.8570  -44.1900  -16.2100 N.3   254  THR254     -0.1218
    150  CA         4.2940  -44.1370  -15.9140 C.3   254  THR254      0.1862
    151  C          4.8360  -43.0120  -16.7590 C.2   254  THR254      0.2287
    152  O          4.3890  -42.8160  -17.8990 O.2   254  THR254     -0.2866
    153  CB         5.0660  -45.4680  -16.0280 C.3   254  THR254      0.1770
    154  OG1        5.4710  -45.6950  -17.3610 O.3   254  THR254     -0.2211
    155  CG2        4.2970  -46.6690  -15.4940 C.3   254  THR254      0.0375
    156  N          9.9690  -48.4590  -12.4830 N.3   260  HIS260     -0.1241
    157  CA         8.8850  -49.1380  -11.8070 C.3   260  HIS260      0.1621
    158  C          9.0570  -50.6520  -11.8360 C.2   260  HIS260      0.2264
    159  O          9.7220  -51.1780  -12.6950 O.2   260  HIS260     -0.2867
    160  CB         7.5300  -48.7140  -12.3660 C.3   260  HIS260      0.0745
    161  CG         7.4140  -48.8450  -13.8480 C.ar  260  HIS260      0.0817
    162  ND1        7.9170  -47.9100  -14.7180 N.ar  260  HIS260     -0.2268
    163  CD2        6.8570  -49.8070  -14.6140 C.ar  260  HIS260      0.1154
    164  CE1        7.6680  -48.2840  -15.9520 C.ar  260  HIS260      0.1986
    165  NE2        7.0230  -49.4330  -15.9190 N.ar  260  HIS260     -0.2212
    166  N         -2.0780  -52.4270  -21.7220 N.3   272  SER272     -0.1217
    167  CA        -1.0320  -51.4140  -21.7170 C.3   272  SER272      0.1889
    168  C         -0.5130  -51.0280  -23.0880 C.2   272  SER272      0.2288
    169  O         -0.6340  -51.8010  -24.0310 O.2   272  SER272     -0.2866
    170  CB         0.1390  -51.9430  -20.9000 C.3   272  SER272      0.2089
    171  OG         1.0480  -50.8920  -20.6510 O.3   272  SER272     -0.2183
    172  N          2.5180  -47.6690  -24.9050 N.3   274  ASN274     -0.1240
    173  CA         3.3860  -46.5230  -24.6910 C.3   274  ASN274      0.1653
    174  C          2.7590  -45.3490  -25.3850 C.2   274  ASN274      0.2266
    175  O          1.9760  -45.5380  -26.3200 O.2   274  ASN274     -0.2867
    176  CB         4.7810  -46.7780  -25.2670 C.3   274  ASN274      0.1155
    177  CG         5.5510  -47.8010  -24.4880 C.2   274  ASN274      0.2627
    178  OD1        6.0030  -48.8090  -25.0270 O.2   274  ASN274     -0.2716
    179  ND2        5.7610  -47.5490  -23.2080 N.am  274  ASN274     -0.0877
    180  N         14.0490  -52.8530  -28.6640 N.3   295  VAL295     -0.1245
    181  CA        13.1230  -51.8020  -29.1400 C.3   295  VAL295      0.1561
    182  C         13.7950  -50.4200  -29.2450 C.2   295  VAL295      0.2260
    183  O         13.9520  -49.7150  -28.2440 O.2   295  VAL295     -0.2867
    184  CB        11.7820  -51.7270  -28.3480 C.3   295  VAL295      0.0252
    185  CG1       10.8070  -50.7330  -28.9940 C.3   295  VAL295      0.0019
    186  CG2       11.1350  -53.1050  -28.2020 C.3   295  VAL295      0.0019
@<TRIPOS>BOND
     1    32    31    2
     2    34    35    1
     3    39    38    1
     4    31    30    1
     5    31    33   am
     6    30    27    1
     7    38    35    1
     8    38    40    1
     9    35    36    1
    10    52    51    1
    11   182   181    1
    12   182   183    2
    13    29    28    2
    14    36    37    2
    15   181   180    1
    16   181   184    1
    17   185   184    1
    18    28    27    1
    19    27    26    1
    20   184   186    1
    21    51    49   ar
    22    51    50   ar
    23    49    47   ar
    24    50    48   ar
    25    47    46   ar
    26    48    46   ar
    27   175   174    2
    28    21    20    2
    29    46    45    1
    30    41    42    1
    31   174   173    1
    32   176   173    1
    33   176   177    1
    34   102   100   ar
    35    99   100    1
    36    99    96    1
    37    42    45    1
    38    42    43    1
    39    20    19    1
    40   178   177    2
    41   172   173    1
    42   100   101   ar
    43    97    98    2
    44    97    96    1
    45   177   179   am
    46    22    19    1
    47    22    23    1
    48    96    95    1
    49   169   168    2
    50    19    18    1
    51    43    44    2
    52    23    24   ar
    53    23    25   ar
    54   168   167    1
    55    16    15    2
    56    95    88   am
    57    18    15   am
    58    15    14    1
    59    64    63    1
    60    88    89    2
    61    88    87    1
    62   166   167    1
    63   167   170    1
    64   148   147    1
    65    90    87    1
    66    90    91    1
    67    63    61   ar
    68    63    62   ar
    69   170   171    1
    70    61    59   ar
    71    93    92   ar
    72    87    86    1
    73    14    13    1
    74    14    17    1
    75   104   103    1
    76   104   107    1
    77   104   105    1
    78   147   146    1
    79    53    54    1
    80    62    60   ar
    81    91    92    1
    82   107   108    1
    83    59    58   ar
    84    92    94   ar
    85   105   106    2
    86    60    58   ar
    87   146   145    1
    88    58    57    1
    89    54    57    1
    90    54    55    1
    91     4     3    2
    92   145   144    1
    93    55    56    2
    94   109   110    1
    95   140   141    1
    96     3     2    1
    97   144   141    1
    98   152   151    2
    99   110   111    1
   100   110   113    1
   101    83    85   ar
   102    83    81   ar
   103   154   153    1
   104    85    84   ar
   105   141   142    1
   106   111   112    2
   107   113   114    1
   108   116   114   am
   109    81    80    1
   110    81    82   ar
   111   151   150    1
   112    80    77    1
   113     2     5    1
   114     2     1    1
   115   142   143    2
   116     5     6    1
   117   114   115    2
   118     7     6   ar
   119     7     9   ar
   120   149   150    1
   121     6     8   ar
   122    84    82   ar
   123     9    11   ar
   124   153   150    1
   125   153   155    1
   126     8    10   ar
   127   164   165   ar
   128   164   162   ar
   129   165   163   ar
   130    78    77    1
   131    78    79    2
   132    11    10   ar
   133    11    12    1
   134    77    76    1
   135   162   161   ar
   136   163   161   ar
   137    69    66    1
   138    69    70    1
   139   139   138   ar
   140   139   137   ar
   141   125   124    1
   142   161   160    1
   143   124   123    1
   144    66    67    1
   145    66    65    1
   146    70    72   ar
   147    70    71   ar
   148   138   136   ar
   149   137   135   ar
   150    72    74   ar
   151    71    73   ar
   152    67    68    2
   153   159   158    2
   154    74    75   ar
   155   123   122    1
   156   156   157    1
   157   160   157    1
   158    73    75   ar
   159   136   133   ar
   160   135   133   ar
   161   135   134   ar
   162   158   157    1
   163   133   131   ar
   164   122   121    1
   165   134   132   ar
   166   121   118    1
   167   131   132   ar
   168   131   130    1
   169   118   117    1
   170   118   119    1
   171   130   127    1
   172   119   120    2
   173   127   126    1
   174   127   128    1
   175   128   129    2
