@<TRIPOS>MOLECULE
tmp/5f3fA00.pdb
 139 131 0 0 0
SMALL
GASTEIGER

@<TRIPOS>ATOM
      1  N         -0.5450    4.7440    8.4920 N.3     1  PHE1       -0.1241
      2  CA         0.4600    4.0650    7.6390 C.3     1  PHE1        0.1605
      3  C          1.6870    3.7070    8.4540 C.2     1  PHE1        0.2264
      4  O          2.2960    4.5700    9.0840 O.2     1  PHE1       -0.2867
      5  CB         0.8740    4.9500    6.4730 C.3     1  PHE1        0.0534
      6  CG         1.8370    4.2830    5.5340 C.ar    1  PHE1       -0.0203
      7  CD1        3.2020    4.3750    5.7390 C.ar    1  PHE1       -0.0042
      8  CD2        1.3750    3.5760    4.4350 C.ar    1  PHE1       -0.0042
      9  CE1        4.0860    3.7650    4.8680 C.ar    1  PHE1       -0.0003
     10  CE2        2.2700    2.9570    3.5620 C.ar    1  PHE1       -0.0003
     11  CZ         3.6110    3.0700    3.7770 C.ar    1  PHE1       -0.0000
     12  N          3.7060    4.8200   12.5200 N.3    13  ILE13      -0.1245
     13  CA         3.1870    6.0860   12.0100 C.3    13  ILE13       0.1561
     14  C          4.2020    7.1920   12.2070 C.2    13  ILE13       0.2260
     15  O          4.8280    7.2920   13.2740 O.2    13  ILE13      -0.2867
     16  CB         1.8780    6.4520   12.7420 C.3    13  ILE13       0.0252
     17  CG1        0.7410    5.5610   12.2400 C.3    13  ILE13       0.0019
     18  CG2        1.5750    7.9480   12.5940 C.3    13  ILE13       0.0019
     19  CD1       -0.6020    5.7610   12.9830 C.3    13  ILE13       0.0001
     20  N         -2.0960    0.5880    5.2470 N.3    46  ASN46      -0.1225
     21  CA        -2.8750    1.8240    5.4220 C.3    46  ASN46       0.1785
     22  C         -3.7360    1.6770    6.6760 C.2    46  ASN46       0.2597
     23  O         -4.3860    0.6610    6.8450 O.2    46  ASN46      -0.2718
     24  CB        -3.7250    2.0250    4.1530 C.3    46  ASN46       0.1169
     25  CG        -4.5980    3.2560    4.1800 C.2    46  ASN46       0.2627
     26  OD1       -5.0830    3.6950    5.2320 O.2    46  ASN46      -0.2716
     27  ND2       -4.8450    3.8010    2.9960 N.am   46  ASN46      -0.0877
     28  N         -3.7260    2.6730    7.5630 N.am   47  ASP47      -0.1960
     29  CA        -4.4490    2.5640    8.8380 C.3    47  ASP47       0.1840
     30  C         -5.8710    3.1300    8.8030 C.2    47  ASP47       0.2622
     31  O         -6.5860    3.0690    9.8070 O.2    47  ASP47      -0.2715
     32  CB        -3.6410    3.2590    9.9370 C.3    47  ASP47       0.1450
     33  CG        -2.4440    2.4370   10.3850 C.2    47  ASP47       0.3671
     34  OD1       -2.6360    1.2370   10.7040 O.co2  47  ASP47      -0.2456
     35  OD2       -1.3240    2.9950   10.4050 O.co2  47  ASP47      -0.2456
     36  N         -6.2930    3.6700    7.6620 N.am   48  TYR48      -0.1974
     37  CA        -7.6460    4.2360    7.5520 C.3    48  TYR48       0.1639
     38  C         -8.1040    4.1490    6.1060 C.2    48  TYR48       0.2290
     39  O         -8.4580    5.1480    5.5010 O.2    48  TYR48      -0.2864
     40  CB        -7.6720    5.6890    8.0320 C.3    48  TYR48       0.0560
     41  CG        -9.0570    6.2970    8.2490 C.ar   48  TYR48      -0.0198
     42  CD1      -10.2100    5.5170    8.2310 C.ar   48  TYR48      -0.0009
     43  CD2       -9.2010    7.6680    8.4800 C.ar   48  TYR48      -0.0009
     44  CE1      -11.4660    6.0830    8.4520 C.ar   48  TYR48       0.0417
     45  CE2      -10.4530    8.2300    8.7020 C.ar   48  TYR48       0.0417
     46  CZ       -11.5710    7.4310    8.6950 C.ar   48  TYR48       0.1957
     47  OH       -12.7990    8.0000    8.9090 O.3    48  TYR48      -0.2866
     48  N        -10.6810    3.1400    4.5370 N.3    50  GLU50      -0.1245
     49  CA       -12.0500    3.5750    4.2320 C.3    50  GLU50       0.1567
     50  C        -12.1140    4.9920    3.7000 C.2    50  GLU50       0.2260
     51  O        -13.0000    5.3380    2.9180 O.2    50  GLU50      -0.2867
     52  CB       -12.9260    3.4790    5.4890 C.3    50  GLU50       0.0388
     53  CG       -13.1390    2.0530    6.0080 C.3    50  GLU50       0.1160
     54  CD       -12.0530    1.5670    6.9660 C.2    50  GLU50       0.3649
     55  OE1      -11.0450    2.2800    7.1690 O.co2  50  GLU50      -0.2457
     56  OE2      -12.2110    0.4550    7.5210 O.co2  50  GLU50      -0.2457
     57  N         -8.8300    7.1890    3.6230 N.3    52  ILE52      -0.1245
     58  CA        -7.5490    7.7570    3.2250 C.3    52  ILE52       0.1561
     59  C         -6.8730    6.8710    2.1890 C.2    52  ILE52       0.2260
     60  O         -6.8730    5.6680    2.3210 O.2    52  ILE52      -0.2867
     61  CB        -6.6060    7.9280    4.4410 C.3    52  ILE52       0.0252
     62  CG1       -7.2500    8.8810    5.4600 C.3    52  ILE52       0.0019
     63  CG2       -5.2630    8.4540    3.9740 C.3    52  ILE52       0.0019
     64  CD1       -6.3840    9.2270    6.6650 C.3    52  ILE52       0.0001
     65  N         -3.1940    6.2120    0.7740 N.3    54  ASP54      -0.1239
     66  CA        -1.7810    6.4460    1.0200 C.3    54  ASP54       0.1674
     67  C         -0.9780    6.3500   -0.2800 C.2    54  ASP54       0.2266
     68  O         -1.2310    5.4910   -1.1000 O.2    54  ASP54      -0.2867
     69  CB        -1.2420    5.4480    2.0460 C.3    54  ASP54       0.1410
     70  CG        -1.7150    5.7570    3.4600 C.2    54  ASP54       0.3668
     71  OD1       -1.8790    6.9680    3.7720 O.co2  54  ASP54      -0.2456
     72  OD2       -1.8850    4.7970    4.2610 O.co2  54  ASP54      -0.2456
     73  N         -5.7150   -2.3260    5.0190 N.3    98  ARG98      -0.1245
     74  CA        -5.1070   -2.5480    6.3290 C.3    98  ARG98       0.1563
     75  C         -4.1910   -3.7640    6.3170 C.2    98  ARG98       0.2260
     76  O         -3.3760   -3.9330    7.2090 O.2    98  ARG98      -0.2867
     77  CB        -6.1790   -2.7520    7.4050 C.3    98  ARG98       0.0307
     78  CG        -6.2880   -1.6350    8.4010 C.3    98  ARG98       0.0489
     79  CD        -7.3520   -1.9190    9.4820 C.3    98  ARG98       0.2205
     80  NE        -8.4480   -0.9620    9.3760 N.pl3  98  ARG98      -0.0865
     81  CZ        -8.3710    0.2970    9.7890 C.cat  98  ARG98       0.5346
     82  NH1       -7.2490    0.7440   10.3420 N.pl3  98  ARG98       0.1354
     83  NH2       -9.4070    1.1130    9.6390 N.pl3  98  ARG98       0.1354
     84  N          6.1100    8.5900    2.2920 N.3   133  GLN133     -0.1245
     85  CA         4.6880    8.3840    2.3850 C.3   133  GLN133      0.1566
     86  C          3.9350    9.6910    2.5930 C.2   133  GLN133      0.2260
     87  O          4.2970   10.5090    3.4510 O.2   133  GLN133     -0.2867
     88  CB         4.3480    7.4240    3.5210 C.3   133  GLN133      0.0367
     89  CG         2.8520    7.2010    3.7310 C.3   133  GLN133      0.0905
     90  CD         2.3290    7.8470    5.0160 C.2   133  GLN133      0.2608
     91  OE1        3.0050    7.8390    6.0500 O.2   133  GLN133     -0.2717
     92  NE2        1.1350    8.4290    4.9410 N.am  133  GLN133     -0.0878
     93  N         -0.4020   11.2440    1.4950 N.3   135  ASN135     -0.1240
     94  CA        -1.7570   10.7530    1.3810 C.3   135  ASN135      0.1653
     95  C         -2.6410   11.8080    0.7240 C.2   135  ASN135      0.2266
     96  O         -2.1580   12.8740    0.3610 O.2   135  ASN135     -0.2867
     97  CB        -2.3100   10.3650    2.7650 C.3   135  ASN135      0.1155
     98  CG        -2.3590   11.5530    3.7230 C.2   135  ASN135      0.2627
     99  OD1       -2.7700   12.6610    3.3500 O.2   135  ASN135     -0.2716
    100  ND2       -1.9310   11.3290    4.9780 N.am  135  ASN135     -0.0877
    101  N         -5.2870   13.2010    2.2700 N.3   137  TYR137     -0.1227
    102  CA        -6.1420   13.5440    3.3930 C.3   137  TYR137      0.1736
    103  C         -5.6320   14.7350    4.1960 C.2   137  TYR137      0.2595
    104  O         -6.4120   15.6240    4.5580 O.2   137  TYR137     -0.2718
    105  CB        -6.2900   12.3310    4.2990 C.3   137  TYR137      0.0548
    106  CG        -7.2350   12.5320    5.4470 C.ar  137  TYR137     -0.0200
    107  CD1       -8.6010   12.4970    5.2540 C.ar  137  TYR137     -0.0009
    108  CD2       -6.7580   12.7640    6.7390 C.ar  137  TYR137     -0.0009
    109  CE1       -9.4760   12.6750    6.3190 C.ar  137  TYR137      0.0417
    110  CE2       -7.6170   12.9440    7.7950 C.ar  137  TYR137      0.0417
    111  CZ        -8.9760   12.9090    7.5770 C.ar  137  TYR137      0.1957
    112  OH        -9.8220   13.0800    8.6420 O.3   137  TYR137     -0.2866
    113  N         -4.3340   14.7600    4.4600 N.am  138  ASN138     -0.1974
    114  CA        -3.7150   15.8280    5.2340 C.3   138  ASN138      0.1688
    115  C         -2.3410   16.1050    4.6560 C.2   138  ASN138      0.2292
    116  O         -2.0640   15.7120    3.5240 O.2   138  ASN138     -0.2864
    117  CB        -3.6590   15.4660    6.7260 C.3   138  ASN138      0.1181
    118  CG        -2.8160   14.2320    7.0020 C.2   138  ASN138      0.2629
    119  OD1       -1.9300   13.8930    6.2220 O.2   138  ASN138     -0.2716
    120  ND2       -3.0960   13.5540    8.1160 N.am  138  ASN138     -0.0877
    121  N          0.6260   15.1270    5.8650 N.3   140  ASP140     -0.1239
    122  CA         1.6790   14.2120    6.2850 C.3   140  ASP140      0.1674
    123  C          2.6450   13.9040    5.1410 C.2   140  ASP140      0.2266
    124  O          2.2440   13.6210    3.9960 O.2   140  ASP140     -0.2867
    125  CB         1.0930   12.9090    6.8170 C.3   140  ASP140      0.1410
    126  CG         0.3080   13.0820    8.0990 C.2   140  ASP140      0.3668
    127  OD1        0.3630   14.1790    8.7230 O.co2 140  ASP140     -0.2456
    128  OD2       -0.3850   12.1010    8.4690 O.co2 140  ASP140     -0.2456
    129  N          6.1420   11.7170    5.3300 N.3   142  PHE142     -0.1241
    130  CA         7.0230   11.0110    6.2450 C.3   142  PHE142      0.1605
    131  C          8.0540   10.1740    5.5130 C.2   142  PHE142      0.2264
    132  O          7.7410    9.5930    4.4800 O.2   142  PHE142     -0.2867
    133  CB         6.2100   10.0880    7.1470 C.3   142  PHE142      0.0534
    134  CG         5.2290   10.7990    8.0390 C.ar  142  PHE142     -0.0203
    135  CD1        5.5960   11.9200    8.7450 C.ar  142  PHE142     -0.0042
    136  CD2        3.9400   10.3200    8.1720 C.ar  142  PHE142     -0.0042
    137  CE1        4.6790   12.5480    9.5780 C.ar  142  PHE142     -0.0003
    138  CE2        3.0300   10.9440    8.9790 C.ar  142  PHE142     -0.0003
    139  CZ         3.4040   12.0480    9.6970 C.ar  142  PHE142     -0.0000
@<TRIPOS>BOND
     1    68    67    2
     2    67    66    1
     3    96    95    2
     4    95    94    1
     5    65    66    1
     6    66    69    1
     7    94    93    1
     8    94    97    1
     9    69    70    1
    10    59    60    2
    11    59    58    1
    12   101   102    1
    13    84    85    1
    14    85    86    1
    15    85    88    1
    16    86    87    2
    17    97    98    1
    18    51    50    2
    19    27    25   am
    20    58    57    1
    21    58    61    1
    22    99    98    2
    23   102   103    1
    24   102   105    1
    25    70    71   ar
    26    70    72   ar
    27    88    89    1
    28   116   115    2
    29    10    11   ar
    30    10     8   ar
    31    50    49    1
    32    98   100   am
    33    89    90    1
    34    11     9   ar
    35    63    61    1
    36   124   123    2
    37    24    25    1
    38    24    21    1
    39    25    26    2
    40   103   113   am
    41   103   104    2
    42    49    48    1
    43    49    52    1
    44   105   106    1
    45     8     6   ar
    46    61    62    1
    47   113   114    1
    48   132   131    2
    49   115   114    1
    50     9     7   ar
    51    92    90   am
    52    90    91    2
    53    73    74    1
    54   123   122    1
    55   114   117    1
    56    20    21    1
    57   107   106   ar
    58   107   109   ar
    59   129   130    1
    60    21    22    1
    61   106   108   ar
    62    62    64    1
    63    52    53    1
    64    39    38    2
    65   131   130    1
    66     6     7   ar
    67     6     5    1
    68   121   122    1
    69    53    54    1
    70    38    37    1
    71   119   118    2
    72   130   133    1
    73   122   125    1
    74    75    74    1
    75    75    76    2
    76   109   111   ar
    77    74    77    1
    78     5     2    1
    79    22    23    2
    80    22    28   am
    81   117   118    1
    82   108   110   ar
    83   125   126    1
    84    54    55   ar
    85    54    56   ar
    86   118   120   am
    87   133   134    1
    88    77    78    1
    89    37    36    1
    90    37    40    1
    91    28    29    1
    92   111   110   ar
    93   111   112    1
    94     2     3    1
    95     2     1    1
    96    36    30   am
    97    40    41    1
    98   134   136   ar
    99   134   135   ar
   100   126   128   ar
   101   126   127   ar
   102   136   138   ar
   103    42    41   ar
   104    42    44   ar
   105    41    43   ar
   106    78    79    1
   107    44    46   ar
   108     3     4    2
   109    43    45   ar
   110    46    45   ar
   111    46    47    1
   112   135   137   ar
   113    30    29    1
   114    30    31    2
   115    29    32    1
   116   138   139   ar
   117    80    79    1
   118    80    81    2
   119   137   139   ar
   120    83    81    1
   121    81    82    1
   122    32    33    1
   123    33    35   ar
   124    33    34   ar
   125    13    14    1
   126    13    12    1
   127    13    16    1
   128    14    15    2
   129    17    16    1
   130    17    19    1
   131    18    16    1
