@<TRIPOS>MOLECULE
tmp/5f3gA00.pdb
 176 167 0 0 0
SMALL
GASTEIGER

@<TRIPOS>ATOM
      1  N        -25.8410  -26.4370  -16.4270 N.3   125  TYR125     -0.1241
      2  CA       -26.2980  -25.0810  -16.7250 C.3   125  TYR125      0.1605
      3  C        -26.6270  -25.1070  -18.2020 C.2   125  TYR125      0.2264
      4  O        -25.8060  -25.5170  -19.0180 O.2   125  TYR125     -0.2867
      5  CB       -25.1920  -24.0600  -16.3900 C.3   125  TYR125      0.0534
      6  CG       -25.6130  -22.6120  -16.1910 C.ar  125  TYR125     -0.0201
      7  CD1      -26.9540  -22.2510  -16.1460 C.ar  125  TYR125     -0.0009
      8  CD2      -24.6640  -21.6010  -16.0540 C.ar  125  TYR125     -0.0009
      9  CE1      -27.3420  -20.9360  -15.9030 C.ar  125  TYR125      0.0417
     10  CE2      -25.0450  -20.2740  -15.8520 C.ar  125  TYR125      0.0417
     11  CZ       -26.3870  -19.9480  -15.7750 C.ar  125  TYR125      0.1957
     12  OH       -26.7840  -18.6490  -15.5670 O.3   125  TYR125     -0.2866
     13  N        -27.0940  -22.8870  -20.3560 N.3   127  ALA127     -0.1231
     14  CA       -26.6490  -21.5500  -20.7450 C.3   127  ALA127      0.1694
     15  C        -26.5130  -21.3360  -22.2760 C.2   127  ALA127      0.2592
     16  O        -26.5590  -22.3060  -23.0570 O.2   127  ALA127     -0.2718
     17  CB       -25.3020  -21.2840  -20.0830 C.3   127  ALA127      0.0304
     18  N        -26.3070  -20.0500  -22.6790 N.am  128  ASP128     -0.1974
     19  CA       -26.0230  -19.5810  -24.0300 C.3   128  ASP128      0.1709
     20  C        -26.9650  -20.1430  -25.0740 C.2   128  ASP128      0.2293
     21  O        -26.5380  -20.6330  -26.1180 O.2   128  ASP128     -0.2864
     22  CB       -24.5500  -19.8620  -24.3900 C.3   128  ASP128      0.1436
     23  CG       -23.5240  -19.3980  -23.3690 C.2   128  ASP128      0.3671
     24  OD1      -23.7570  -18.3670  -22.7230 O.co2 128  ASP128     -0.2456
     25  OD2      -22.4780  -20.0530  -23.2460 O.co2 128  ASP128     -0.2456
     26  N        -22.2040  -13.6070  -32.2650 N.3   158  GLY158     -0.1225
     27  CA       -23.4940  -13.0940  -31.8260 C.3   158  GLY158      0.1811
     28  C        -23.4500  -12.3190  -30.5160 C.2   158  GLY158      0.2280
     29  O        -23.7020  -12.9010  -29.4530 O.2   158  GLY158     -0.2866
     30  N        -29.8650  -14.3810  -25.6310 N.3   163  TYR163     -0.1241
     31  CA       -29.4090  -15.6560  -25.1110 C.3   163  TYR163      0.1605
     32  C        -30.1730  -15.9480  -23.8560 C.2   163  TYR163      0.2264
     33  O        -30.3310  -15.0700  -23.0170 O.2   163  TYR163     -0.2867
     34  CB       -27.8940  -15.5990  -24.7880 C.3   163  TYR163      0.0534
     35  CG       -26.9950  -15.7000  -25.9980 C.ar  163  TYR163     -0.0201
     36  CD1      -26.9750  -16.8530  -26.7780 C.ar  163  TYR163     -0.0009
     37  CD2      -26.2960  -14.5870  -26.4690 C.ar  163  TYR163     -0.0009
     38  CE1      -26.1380  -16.9670  -27.8800 C.ar  163  TYR163      0.0417
     39  CE2      -25.4970  -14.6650  -27.6140 C.ar  163  TYR163      0.0417
     40  CZ       -25.4150  -15.8620  -28.3130 C.ar  163  TYR163      0.1957
     41  OH       -24.6230  -15.9650  -29.4330 O.3   163  TYR163     -0.2866
     42  N        -30.7530  -18.5350  -20.4380 N.3   165  TYR165     -0.1241
     43  CA       -29.9720  -19.2030  -19.3900 C.3   165  TYR165      0.1605
     44  C        -30.9040  -19.9700  -18.4620 C.2   165  TYR165      0.2264
     45  O        -31.4690  -19.4070  -17.5220 O.2   165  TYR165     -0.2867
     46  CB       -29.0700  -18.2230  -18.6090 C.3   165  TYR165      0.0534
     47  CG       -28.0370  -17.5490  -19.4830 C.ar  165  TYR165     -0.0201
     48  CD1      -28.2980  -16.3230  -20.0890 C.ar  165  TYR165     -0.0009
     49  CD2      -26.7720  -18.0960  -19.6460 C.ar  165  TYR165     -0.0009
     50  CE1      -27.3620  -15.7180  -20.9330 C.ar  165  TYR165      0.0417
     51  CE2      -25.8330  -17.5110  -20.4920 C.ar  165  TYR165      0.0417
     52  CZ       -26.1400  -16.3310  -21.1470 C.ar  165  TYR165      0.1957
     53  OH       -25.2080  -15.7690  -21.9740 O.3   165  TYR165     -0.2866
     54  N        -21.9520  -18.2190  -12.5920 N.3   173  PHE173     -0.1241
     55  CA       -21.1500  -17.4510  -13.5130 C.3   173  PHE173      0.1605
     56  C        -19.9890  -16.8340  -12.7630 C.2   173  PHE173      0.2264
     57  O        -20.1600  -16.2890  -11.6970 O.2   173  PHE173     -0.2867
     58  CB       -21.9320  -16.4210  -14.3340 C.3   173  PHE173      0.0534
     59  CG       -22.8430  -15.5240  -13.5580 C.ar  173  PHE173     -0.0203
     60  CD1      -24.0150  -15.9880  -13.0350 C.ar  173  PHE173     -0.0042
     61  CD2      -22.5680  -14.1860  -13.4560 C.ar  173  PHE173     -0.0042
     62  CE1      -24.8700  -15.1520  -12.3690 C.ar  173  PHE173     -0.0003
     63  CE2      -23.4190  -13.3350  -12.7920 C.ar  173  PHE173     -0.0003
     64  CZ       -24.5760  -13.8220  -12.2480 C.ar  173  PHE173     -0.0000
     65  N        -16.2780  -11.6290  -14.2730 N.3   176  HIS176     -0.1241
     66  CA       -15.9900  -11.1670  -15.6040 C.3   176  HIS176      0.1621
     67  C        -16.6050   -9.8270  -15.9140 C.2   176  HIS176      0.2264
     68  O        -17.4720   -9.3520  -15.2360 O.2   176  HIS176     -0.2867
     69  CB       -16.4990  -12.1960  -16.6200 C.3   176  HIS176      0.0745
     70  CG       -17.9930  -12.2420  -16.7470 C.ar  176  HIS176      0.0817
     71  ND1      -18.8050  -12.7900  -15.7860 N.ar  176  HIS176     -0.2268
     72  CD2      -18.8170  -11.8030  -17.7230 C.ar  176  HIS176      0.1154
     73  CE1      -20.0620  -12.6840  -16.1600 C.ar  176  HIS176      0.1986
     74  NE2      -20.0990  -12.0940  -17.3370 N.ar  176  HIS176     -0.2212
     75  N        -18.1140   -7.5800  -19.4050 N.3   178  GLU178     -0.1231
     76  CA       -18.7480   -8.0100  -20.6420 C.3   178  GLU178      0.1699
     77  C        -17.6970   -7.9810  -21.7530 C.2   178  GLU178      0.2592
     78  O        -16.6550   -7.3140  -21.6160 O.2   178  GLU178     -0.2718
     79  CB       -19.9500   -7.1100  -20.9880 C.3   178  GLU178      0.0402
     80  CG       -21.1190   -7.2550  -20.0160 C.3   178  GLU178      0.1161
     81  CD       -21.6320   -8.6690  -19.8350 C.2   178  GLU178      0.3649
     82  OE1      -21.8100   -9.3730  -20.8530 O.co2 178  GLU178     -0.2457
     83  OE2      -21.8380   -9.0790  -18.6730 O.co2 178  GLU178     -0.2457
     84  N        -17.9380   -8.7310  -22.8450 N.am  179  ASP179     -0.1974
     85  CA       -16.9910   -8.7440  -23.9490 C.3   179  ASP179      0.1709
     86  C        -16.9480   -7.3450  -24.5370 C.2   179  ASP179      0.2293
     87  O        -17.9950   -6.7040  -24.6770 O.2   179  ASP179     -0.2864
     88  CB       -17.3480   -9.8310  -24.9900 C.3   179  ASP179      0.1436
     89  CG       -17.1990  -11.2580  -24.4790 C.2   179  ASP179      0.3671
     90  OD1      -16.1280  -11.5790  -23.9030 O.co2 179  ASP179     -0.2456
     91  OD2      -18.1860  -12.0330  -24.5850 O.co2 179  ASP179     -0.2456
     92  N        -24.8230   -4.7770  -20.3100 N.3   184  SER184     -0.1217
     93  CA       -25.6650   -5.9490  -20.4490 C.3   184  SER184      0.1889
     94  C        -27.0110   -5.7190  -19.7950 C.2   184  SER184      0.2288
     95  O        -27.1190   -4.9710  -18.8380 O.2   184  SER184     -0.2866
     96  CB       -24.9960   -7.2040  -19.8770 C.3   184  SER184      0.2089
     97  OG       -25.2260   -7.3940  -18.4880 O.3   184  SER184     -0.2183
     98  N        -30.2590   -8.1890  -18.3130 N.3   186  ASN186     -0.1240
     99  CA       -30.5350   -9.5820  -17.9580 C.3   186  ASN186      0.1653
    100  C        -31.8580   -9.5560  -17.2790 C.2   186  ASN186      0.2266
    101  O        -31.9730   -8.9940  -16.1880 O.2   186  ASN186     -0.2867
    102  CB       -29.4240  -10.1900  -17.0230 C.3   186  ASN186      0.1155
    103  CG       -29.7460  -11.5430  -16.3760 C.2   186  ASN186      0.2627
    104  OD1      -30.6550  -11.6960  -15.5410 O.2   186  ASN186     -0.2716
    105  ND2      -28.9840  -12.5640  -16.7260 N.am  186  ASN186     -0.0877
    106  N        -31.6470  -15.3800   -8.7060 N.3   194  LYS194     -0.1245
    107  CA       -30.3310  -15.2710   -9.3030 C.3   194  LYS194      0.1561
    108  C        -29.5660  -14.2760   -8.4340 C.2   194  LYS194      0.2260
    109  O        -29.9660  -13.1210   -8.3510 O.2   194  LYS194     -0.2867
    110  CB       -30.5000  -14.7260  -10.7380 C.3   194  LYS194      0.0271
    111  CG       -29.3190  -15.0080  -11.6300 C.3   194  LYS194      0.0035
    112  CD       -29.3310  -14.1530  -12.8490 C.3   194  LYS194      0.0206
    113  CE       -29.7490  -14.9600  -14.0440 C.3   194  LYS194      0.1093
    114  NZ       -28.8550  -16.1250  -14.2620 N.3   194  LYS194     -0.1314
    115  N        -26.2770  -11.9900   -7.3130 N.3   196  TRP196     -0.1241
    116  CA       -25.2140  -11.2550   -7.9800 C.3   196  TRP196      0.1605
    117  C        -24.2310  -10.6220   -7.0000 C.2   196  TRP196      0.2264
    118  O        -24.6040  -10.1590   -5.9130 O.2   196  TRP196     -0.2867
    119  CB       -25.8190  -10.1190   -8.8200 C.3   196  TRP196      0.0550
    120  CG       -26.7120  -10.5300   -9.9570 C.ar  196  TRP196      0.0003
    121  CD1      -27.9820  -11.0240   -9.8720 C.ar  196  TRP196      0.0946
    122  CD2      -26.4360  -10.3600  -11.3670 C.ar  196  TRP196      0.0152
    123  NE1      -28.4990  -11.2210  -11.1310 N.ar  196  TRP196     -0.2442
    124  CE2      -27.5770  -10.8140  -12.0690 C.ar  196  TRP196      0.0810
    125  CE3      -25.3300   -9.8830  -12.0970 C.ar  196  TRP196      0.0012
    126  CZ2      -27.6340  -10.8350  -13.4620 C.ar  196  TRP196      0.0191
    127  CZ3      -25.4110   -9.8470  -13.4830 C.ar  196  TRP196      0.0001
    128  CH2      -26.5440  -10.3300  -14.1520 C.ar  196  TRP196      0.0015
    129  N        -13.9680  -16.5580  -18.1920 N.3   229  LYS229     -0.1245
    130  CA       -15.1070  -16.7120  -17.2780 C.3   229  LYS229      0.1561
    131  C        -15.0450  -18.0470  -16.5400 C.2   229  LYS229      0.2260
    132  O        -15.9890  -18.8430  -16.5520 O.2   229  LYS229     -0.2867
    133  CB       -16.4550  -16.4940  -17.9910 C.3   229  LYS229      0.0271
    134  CG       -16.6250  -15.1160  -18.6020 C.3   229  LYS229      0.0035
    135  CD       -17.5580  -15.1390  -19.8110 C.3   229  LYS229      0.0206
    136  CE       -17.6800  -13.7960  -20.5070 C.3   229  LYS229      0.1093
    137  NZ       -16.3630  -13.2250  -20.9080 N.3   229  LYS229     -0.1314
    138  N        -18.6150   -8.7680  -12.4110 N.3   264  HIS264     -0.1241
    139  CA       -19.7240   -9.3950  -11.7180 C.3   264  HIS264      0.1621
    140  C        -19.6150  -10.8920  -11.8210 C.2   264  HIS264      0.2264
    141  O        -18.9670  -11.3790  -12.7240 O.2   264  HIS264     -0.2867
    142  CB       -21.0900   -8.9030  -12.2920 C.3   264  HIS264      0.0745
    143  CG       -21.2140   -9.0570  -13.7820 C.ar  264  HIS264      0.0817
    144  ND1      -20.4960   -8.2520  -14.6510 N.ar  264  HIS264     -0.2268
    145  CD2      -21.9760   -9.9080  -14.5080 C.ar  264  HIS264      0.1154
    146  CE1      -20.8140   -8.6540  -15.8650 C.ar  264  HIS264      0.1986
    147  NE2      -21.7180   -9.6330  -15.8350 N.ar  264  HIS264     -0.2212
    148  N        -30.6280  -12.4960  -21.8690 N.3   276  SER276     -0.1217
    149  CA       -29.6250  -11.4330  -21.8440 C.3   276  SER276      0.1889
    150  C        -29.0410  -11.1140  -23.2200 C.2   276  SER276      0.2288
    151  O        -29.1620  -11.9030  -24.1600 O.2   276  SER276     -0.2866
    152  CB       -28.5240  -11.7320  -20.8170 C.3   276  SER276      0.2089
    153  OG       -27.3740  -12.3840  -21.3290 O.3   276  SER276     -0.2183
    154  N        -25.9440   -7.8510  -25.0030 N.3   278  ASN278     -0.1240
    155  CA       -25.0830   -6.7040  -24.7780 C.3   278  ASN278      0.1653
    156  C        -25.6720   -5.5130  -25.4610 C.2   278  ASN278      0.2266
    157  O        -26.4190   -5.6670  -26.4190 O.2   278  ASN278     -0.2867
    158  CB       -23.6520   -6.9700  -25.2570 C.3   278  ASN278      0.1155
    159  CG       -22.8840   -7.9500  -24.3950 C.2   278  ASN278      0.2627
    160  OD1      -22.4380   -8.9910  -24.8800 O.2   278  ASN278     -0.2716
    161  ND2      -22.6670   -7.6150  -23.1180 N.am  278  ASN278     -0.0877
    162  N        -12.9090  -16.0440  -29.5100 N.3   297  MET297     -0.1230
    163  CA       -13.2310  -14.9650  -28.5620 C.3   297  MET297      0.1702
    164  C        -13.9600  -13.8050  -29.2410 C.2   297  MET297      0.2592
    165  O        -13.7910  -13.6120  -30.4510 O.2   297  MET297     -0.2718
    166  CB       -11.9840  -14.4730  -27.7850 C.3   297  MET297      0.0401
    167  CG       -10.7820  -14.0140  -28.6210 C.3   297  MET297      0.0596
    168  SD       -10.8430  -12.3450  -29.3170 S.3   297  MET297     -0.1393
    169  CE        -9.1810  -11.9070  -28.9790 C.3   297  MET297      0.0692
    170  N        -14.7450  -13.0220  -28.4690 N.am  298  VAL298     -0.1980
    171  CA       -15.4950  -11.8820  -29.0180 C.3   298  VAL298      0.1595
    172  C        -14.6110  -10.6240  -29.1650 C.2   298  VAL298      0.2287
    173  O        -14.1400  -10.0600  -28.1640 O.2   298  VAL298     -0.2864
    174  CB       -16.8160  -11.5790  -28.2570 C.3   298  VAL298      0.0276
    175  CG1      -17.5540  -10.3880  -28.8710 C.3   298  VAL298      0.0022
    176  CG2      -17.7260  -12.8010  -28.2030 C.3   298  VAL298      0.0022
@<TRIPOS>BOND
     1    26    27    1
     2    27    28    1
     3    28    29    2
     4   165   164    2
     5   162   163    1
     6    41    40    1
     7   168   169    1
     8   168   167    1
     9   164   163    1
    10   164   170   am
    11   172   171    1
    12   172   173    2
    13   171   170    1
    14   171   174    1
    15   175   174    1
    16   167   166    1
    17   163   166    1
    18    40    38   ar
    19    40    39   ar
    20   174   176    1
    21    38    36   ar
    22    39    37   ar
    23    36    35   ar
    24    37    35   ar
    25   157   156    2
    26    21    20    2
    27    35    34    1
    28    30    31    1
    29   156   155    1
    30   158   155    1
    31   158   159    1
    32    31    34    1
    33    31    32    1
    34    20    19    1
    35   154   155    1
    36    88    89    1
    37    88    85    1
    38   160   159    2
    39    87    86    2
    40    91    89   ar
    41    86    85    1
    42    89    90   ar
    43   159   161   am
    44    22    19    1
    45    22    23    1
    46   151   150    2
    47    19    18    1
    48    85    84    1
    49    32    33    2
    50    23    25   ar
    51    23    24   ar
    52   150   149    1
    53    16    15    2
    54    84    77   am
    55    18    15   am
    56    15    14    1
    57    53    52    1
    58   148   149    1
    59   149   152    1
    60    77    78    2
    61    77    76    1
    62   153   152    1
    63    52    50   ar
    64    52    51   ar
    65    79    76    1
    66    79    80    1
    67    50    48   ar
    68   137   136    1
    69    82    81   ar
    70    14    13    1
    71    14    17    1
    72    76    75    1
    73   136   135    1
    74    51    49   ar
    75    93    92    1
    76    93    96    1
    77    93    94    1
    78    42    43    1
    79    48    47   ar
    80    80    81    1
    81    96    97    1
    82    81    83   ar
    83   135   134    1
    84    94    95    2
    85    49    47   ar
    86    47    46    1
    87    43    46    1
    88    43    44    1
    89     4     3    2
    90   134   133    1
    91    44    45    2
    92    98    99    1
    93     3     2    1
    94   129   130    1
    95   133   130    1
    96    99   100    1
    97    99   102    1
    98    72    74   ar
    99    72    70   ar
   100    74    73   ar
   101   100   101    2
   102   130   131    1
   103   102   103    1
   104    70    69    1
   105    70    71   ar
   106   105   103   am
   107     2     1    1
   108     2     5    1
   109    69    66    1
   110   132   131    2
   111     5     6    1
   112   103   104    2
   113     6     7   ar
   114     6     8   ar
   115    73    71   ar
   116     7     9   ar
   117     8    10   ar
   118    67    66    1
   119    67    68    2
   120     9    11   ar
   121   146   147   ar
   122   146   144   ar
   123    10    11   ar
   124   147   145   ar
   125    11    12    1
   126    66    65    1
   127   144   143   ar
   128   145   143   ar
   129    58    59    1
   130    58    55    1
   131   114   113    1
   132   128   127   ar
   133   128   126   ar
   134   113   112    1
   135   143   142    1
   136    59    61   ar
   137    59    60   ar
   138    55    56    1
   139    55    54    1
   140   127   125   ar
   141   126   124   ar
   142    61    63   ar
   143    60    62   ar
   144   112   111    1
   145    63    64   ar
   146    56    57    2
   147   141   140    2
   148   138   139    1
   149    62    64   ar
   150   142   139    1
   151   125   122   ar
   152   124   122   ar
   153   124   123   ar
   154   140   139    1
   155   111   110    1
   156   122   120   ar
   157   123   121   ar
   158   110   107    1
   159   120   121   ar
   160   120   119    1
   161   107   106    1
   162   107   108    1
   163   119   116    1
   164   108   109    2
   165   116   115    1
   166   116   117    1
   167   117   118    2
