@<TRIPOS>MOLECULE
tmp/5f3gD00.pdb
 152 144 0 0 0
SMALL
GASTEIGER

@<TRIPOS>ATOM
      1  N        -14.0600   52.9460   51.7830 N.3   122  TYR122     -0.1241
      2  CA       -13.6080   51.6010   51.4630 C.3   122  TYR122      0.1605
      3  C        -13.5650   51.3870   49.9410 C.2   122  TYR122      0.2264
      4  O        -14.5580   51.5470   49.2460 O.2   122  TYR122     -0.2867
      5  CB       -14.4890   50.5520   52.1650 C.3   122  TYR122      0.0534
      6  CG       -13.8520   49.1810   52.3070 C.ar  122  TYR122     -0.0201
      7  CD1      -12.4690   49.0300   52.3320 C.ar  122  TYR122     -0.0009
      8  CD2      -14.6320   48.0430   52.4710 C.ar  122  TYR122     -0.0009
      9  CE1      -11.8790   47.7800   52.5130 C.ar  122  TYR122      0.0417
     10  CE2      -14.0530   46.7880   52.6350 C.ar  122  TYR122      0.0417
     11  CZ       -12.6750   46.6590   52.6410 C.ar  122  TYR122      0.1957
     12  OH       -12.0870   45.4290   52.7910 O.3   122  TYR122     -0.2866
     13  N        -13.6380   48.9400   47.9850 N.3   124  ALA124     -0.1231
     14  CA       -14.1050   47.5690   47.9040 C.3   124  ALA124      0.1694
     15  C        -14.5280   47.1390   46.5350 C.2   124  ALA124      0.2592
     16  O        -15.0010   47.9510   45.7310 O.2   124  ALA124     -0.2718
     17  CB       -15.2500   47.3730   48.8790 C.3   124  ALA124      0.0304
     18  N        -14.4180   45.8270   46.2930 N.am  125  ASP125     -0.1974
     19  CA       -14.9030   45.1810   45.0770 C.3   125  ASP125      0.1709
     20  C        -14.2230   45.7180   43.8220 C.2   125  ASP125      0.2293
     21  O        -14.9040   46.0610   42.8470 O.2   125  ASP125     -0.2864
     22  CB       -16.4560   45.2870   44.9700 C.3   125  ASP125      0.1436
     23  CG       -17.2000   45.0150   46.2650 C.2   125  ASP125      0.3671
     24  OD1      -16.7450   44.1210   47.0380 O.co2 125  ASP125     -0.2456
     25  OD2      -18.1930   45.7430   46.5460 O.co2 125  ASP125     -0.2456
     26  N         -9.5450   45.0180   47.6290 N.3   165  TYR165     -0.1241
     27  CA       -10.1370   45.8360   48.6760 C.3   165  TYR165      0.1605
     28  C         -8.9950   46.6400   49.3310 C.2   165  TYR165      0.2264
     29  O         -8.0660   46.0750   49.9000 O.2   165  TYR165     -0.2867
     30  CB       -10.8400   44.9420   49.7200 C.3   165  TYR165      0.0534
     31  CG       -11.8920   43.9970   49.1650 C.ar  165  TYR165     -0.0201
     32  CD1      -11.5350   42.7900   48.5740 C.ar  165  TYR165     -0.0009
     33  CD2      -13.2400   44.2600   49.3290 C.ar  165  TYR165     -0.0009
     34  CE1      -12.4970   41.9080   48.0830 C.ar  165  TYR165      0.0417
     35  CE2      -14.2140   43.3830   48.8520 C.ar  165  TYR165      0.0417
     36  CZ       -13.8400   42.2140   48.2200 C.ar  165  TYR165      0.1957
     37  OH       -14.8230   41.3790   47.7410 O.3   165  TYR165     -0.2866
     38  N        -16.2900   44.7620   57.1800 N.3   173  PHE173     -0.1241
     39  CA       -17.0730   43.8050   56.4530 C.3   173  PHE173      0.1605
     40  C        -18.0130   43.2140   57.4950 C.2   173  PHE173      0.2264
     41  O        -17.6070   42.7910   58.5530 O.2   173  PHE173     -0.2867
     42  CB       -16.2830   42.8120   55.5910 C.3   173  PHE173      0.0534
     43  CG       -15.2880   41.9730   56.3230 C.ar  173  PHE173     -0.0203
     44  CD1      -14.0460   42.4590   56.6280 C.ar  173  PHE173     -0.0042
     45  CD2      -15.5750   40.6690   56.6280 C.ar  173  PHE173     -0.0042
     46  CE1      -13.1220   41.6760   57.2680 C.ar  173  PHE173     -0.0003
     47  CE2      -14.6570   39.8750   57.2670 C.ar  173  PHE173     -0.0003
     48  CZ       -13.4260   40.3820   57.5990 C.ar  173  PHE173     -0.0000
     49  N        -21.5840   37.7110   57.5100 N.3   176  HIS176     -0.1241
     50  CA       -22.0980   37.0380   56.3380 C.3   176  HIS176      0.1621
     51  C        -21.4260   35.7150   56.0720 C.2   176  HIS176      0.2264
     52  O        -20.4110   35.4100   56.6310 O.2   176  HIS176     -0.2867
     53  CB       -21.8930   37.9230   55.1080 C.3   176  HIS176      0.0745
     54  CG       -20.4610   38.0710   54.6950 C.ar  176  HIS176      0.0817
     55  ND1      -19.5230   38.6930   55.4800 N.ar  176  HIS176     -0.2268
     56  CD2      -19.8130   37.6890   53.5740 C.ar  176  HIS176      0.1154
     57  CE1      -18.3570   38.6820   54.8660 C.ar  176  HIS176      0.1986
     58  NE2      -18.5040   38.0830   53.7030 N.ar  176  HIS176     -0.2212
     59  N        -20.3730   33.3490   52.5500 N.3   178  GLU178     -0.1231
     60  CA       -20.1000   33.5520   51.1340 C.3   178  GLU178      0.1699
     61  C        -21.3110   33.2630   50.3130 C.2   178  GLU178      0.2592
     62  O        -22.1370   32.4270   50.6850 O.2   178  GLU178     -0.2718
     63  CB       -18.9420   32.6380   50.6740 C.3   178  GLU178      0.0402
     64  CG       -17.5920   32.9900   51.2650 C.3   178  GLU178      0.1161
     65  CD       -17.3030   34.4770   51.2260 C.2   178  GLU178      0.3649
     66  OE1      -16.7230   34.9630   50.2240 O.co2 178  GLU178     -0.2457
     67  OE2      -17.7220   35.1630   52.1850 O.co2 178  GLU178     -0.2457
     68  N        -21.3940   33.8870   49.1600 N.am  179  ASP179     -0.1974
     69  CA       -22.5270   33.6500   48.2760 C.3   179  ASP179      0.1709
     70  C        -22.5420   32.1770   47.8650 C.2   179  ASP179      0.2293
     71  O        -21.4760   31.6140   47.5890 O.2   179  ASP179     -0.2864
     72  CB       -22.4960   34.6100   47.0910 C.3   179  ASP179      0.1436
     73  CG       -22.7360   36.0710   47.4800 C.2   179  ASP179      0.3671
     74  OD1      -23.7200   36.3430   48.2360 O.co2 179  ASP179     -0.2456
     75  OD2      -21.9140   36.9370   47.0810 O.co2 179  ASP179     -0.2456
     76  N        -13.8760   30.9010   50.5810 N.3   184  SER184     -0.1217
     77  CA       -13.1500   32.0830   50.0870 C.3   184  SER184      0.1889
     78  C        -11.6840   32.1220   50.5680 C.2   184  SER184      0.2288
     79  O        -11.3570   31.6070   51.6340 O.2   184  SER184     -0.2866
     80  CB       -13.8820   33.3800   50.3770 C.3   184  SER184      0.2089
     81  OG       -14.1240   33.5100   51.7600 O.3   184  SER184     -0.2183
     82  N         -8.3380   34.8790   50.9060 N.3   186  ASN186     -0.1240
     83  CA        -8.1270   36.3080   51.1160 C.3   186  ASN186      0.1653
     84  C         -6.6890   36.5170   51.4630 C.2   186  ASN186      0.2266
     85  O         -6.2440   36.1380   52.5590 O.2   186  ASN186     -0.2867
     86  CB        -9.0410   36.8510   52.2480 C.3   186  ASN186      0.1155
     87  CG        -8.9130   38.3350   52.5170 C.2   186  ASN186      0.2627
     88  OD1       -8.0220   38.7970   53.2150 O.2   186  ASN186     -0.2716
     89  ND2       -9.8150   39.1220   51.9950 N.am  186  ASN186     -0.0877
     90  N         -5.6780   43.3000   59.1070 N.3   194  LYS194     -0.1245
     91  CA        -7.0990   43.0970   58.9420 C.3   194  LYS194      0.1561
     92  C         -7.4910   42.1650   60.0820 C.2   194  LYS194      0.2260
     93  O         -6.9330   41.0780   60.2130 O.2   194  LYS194     -0.2867
     94  CB        -7.3850   42.4190   57.5750 C.3   194  LYS194      0.0271
     95  CG        -8.8720   42.1660   57.2880 C.3   194  LYS194      0.0035
     96  CD        -9.1640   41.5000   55.9240 C.3   194  LYS194      0.0206
     97  CE        -8.7530   42.3010   54.7010 C.3   194  LYS194      0.1093
     98  NZ        -9.6690   43.4460   54.4520 N.3   194  LYS194     -0.1314
     99  N        -10.3300   39.7300   61.9830 N.3   196  TRP196     -0.1241
    100  CA       -11.4530   38.8710   61.6280 C.3   196  TRP196      0.1605
    101  C        -12.1360   38.2990   62.8700 C.2   196  TRP196      0.2264
    102  O        -11.4830   38.0180   63.8720 O.2   196  TRP196     -0.2867
    103  CB       -10.9640   37.7180   60.7650 C.3   196  TRP196      0.0550
    104  CG       -10.3640   38.0440   59.4290 C.ar  196  TRP196      0.0003
    105  CD1       -9.1450   38.6080   59.1810 C.ar  196  TRP196      0.0946
    106  CD2      -10.8730   37.6290   58.1710 C.ar  196  TRP196      0.0152
    107  NE1       -8.9170   38.6740   57.8260 N.ar  196  TRP196     -0.2442
    108  CE2       -9.9510   38.0560   57.1800 C.ar  196  TRP196      0.0810
    109  CE3      -12.0530   36.9770   57.7720 C.ar  196  TRP196      0.0012
    110  CZ2      -10.1850   37.8670   55.8040 C.ar  196  TRP196      0.0191
    111  CZ3      -12.2710   36.7640   56.4180 C.ar  196  TRP196      0.0001
    112  CH2      -11.3620   37.2270   55.4470 C.ar  196  TRP196      0.0015
    113  N        -25.0490   42.0870   53.7480 N.3   229  LYS229     -0.1245
    114  CA       -23.7770   42.3970   54.4180 C.3   229  LYS229      0.1561
    115  C        -23.8360   43.8010   54.9910 C.2   229  LYS229      0.2260
    116  O        -23.0060   44.6570   54.6760 O.2   229  LYS229     -0.2867
    117  CB       -22.5660   42.1630   53.4820 C.3   229  LYS229      0.0271
    118  CG       -22.4410   40.7170   52.9790 C.3   229  LYS229      0.0035
    119  CD       -21.8220   40.6240   51.5790 C.3   229  LYS229      0.0206
    120  CE       -21.7280   39.2110   51.0230 C.3   229  LYS229      0.1093
    121  NZ       -23.0430   38.5240   50.8990 N.3   229  LYS229     -0.1314
    122  N        -12.0740   31.0550   54.4060 N.3   258  THR258     -0.1218
    123  CA       -13.3710   30.9560   55.0500 C.3   258  THR258      0.1862
    124  C        -13.9400   29.6680   54.4750 C.2   258  THR258      0.2287
    125  O        -13.6380   29.3000   53.3230 O.2   258  THR258     -0.2866
    126  CB       -14.2220   32.2900   54.9690 C.3   258  THR258      0.1770
    127  OG1      -15.1100   32.3000   53.8310 O.3   258  THR258     -0.2211
    128  CG2      -13.3540   33.5600   54.9950 C.3   258  THR258      0.0375
    129  N        -18.5770   35.3260   59.1490 N.3   264  HIS264     -0.1241
    130  CA       -17.4170   36.1110   59.5130 C.3   264  HIS264      0.1621
    131  C        -17.7250   37.5710   59.3200 C.2   264  HIS264      0.2264
    132  O        -18.6180   37.9210   58.5490 O.2   264  HIS264     -0.2867
    133  CB       -16.1650   35.6720   58.7130 C.3   264  HIS264      0.0745
    134  CG       -16.3670   35.6320   57.2280 C.ar  264  HIS264      0.0817
    135  ND1      -17.1640   34.6770   56.6430 N.ar  264  HIS264     -0.2268
    136  CD2      -15.8630   36.4350   56.2640 C.ar  264  HIS264      0.1154
    137  CE1      -17.1310   34.9310   55.3460 C.ar  264  HIS264      0.1986
    138  NE2      -16.3750   35.9890   55.0740 N.ar  264  HIS264     -0.2212
    139  N         -9.1900   38.7610   46.9230 N.3   276  SER276     -0.1217
    140  CA       -10.0490   37.6210   47.2870 C.3   276  SER276      0.1889
    141  C        -10.8830   37.0850   46.1370 C.2   276  SER276      0.2288
    142  O        -11.0560   37.7680   45.1170 O.2   276  SER276     -0.2866
    143  CB       -10.9300   37.9520   48.4990 C.3   276  SER276      0.2089
    144  OG       -12.1870   38.5300   48.1940 O.3   276  SER276     -0.2183
    145  N        -13.9150   33.3390   45.4450 N.3   278  ASN278     -0.1240
    146  CA       -14.6080   32.1790   45.9740 C.3   278  ASN278      0.1653
    147  C        -14.0720   30.9440   45.2910 C.2   278  ASN278      0.2266
    148  O        -13.5720   31.0340   44.1670 O.2   278  ASN278     -0.2867
    149  CB       -16.1140   32.2850   45.7600 C.3   278  ASN278      0.1155
    150  CG       -16.8060   33.3080   46.6490 C.2   278  ASN278      0.2627
    151  OD1      -17.4220   34.2840   46.1650 O.2   278  ASN278     -0.2716
    152  ND2      -16.7530   33.0890   47.9670 N.am  278  ASN278     -0.0877
@<TRIPOS>BOND
     1    21    20    2
     2    20    19    1
     3   148   147    2
     4    22    19    1
     5    22    23    1
     6    19    18    1
     7   142   141    2
     8   147   146    1
     9   145   146    1
    10    16    15    2
    11   149   146    1
    12   149   150    1
    13   141   140    1
    14   151   150    2
    15    23    25   ar
    16    23    24   ar
    17    18    15   am
    18    15    14    1
    19   150   152   am
    20   139   140    1
    21    75    73   ar
    22    72    73    1
    23    72    69    1
    24   140   143    1
    25    73    74   ar
    26    71    70    2
    27    26    27    1
    28    37    36    1
    29    70    69    1
    30    14    13    1
    31    14    17    1
    32    34    36   ar
    33    34    32   ar
    34   144   143    1
    35    36    35   ar
    36    69    68    1
    37    32    31   ar
    38    27    28    1
    39    27    30    1
    40    35    33   ar
    41    68    61   am
    42    31    33   ar
    43    31    30    1
    44     4     3    2
    45    28    29    2
    46     3     2    1
    47    77    80    1
    48    77    78    1
    49    77    76    1
    50    66    65   ar
    51    61    62    2
    52    61    60    1
    53    80    81    1
    54    78    79    2
    55    63    60    1
    56    63    64    1
    57   121   120    1
    58    82    83    1
    59   120   119    1
    60    83    84    1
    61    83    86    1
    62    60    59    1
    63    65    64    1
    64    65    67   ar
    65    84    85    2
    66     2     1    1
    67     2     5    1
    68   119   118    1
    69    89    87   am
    70     5     6    1
    71    86    87    1
    72     6     7   ar
    73     6     8   ar
    74     7     9   ar
    75     8    10   ar
    76     9    11   ar
    77    87    88    2
    78    10    11   ar
    79    11    12    1
    80   118   117    1
    81   125   124    2
    82   117   114    1
    83    56    58   ar
    84    56    54   ar
    85    58    57   ar
    86   113   114    1
    87   127   126    1
    88   122   123    1
    89   114   115    1
    90    98    97    1
    91   124   123    1
    92   116   115    2
    93    54    53    1
    94    54    55   ar
    95    97    96    1
    96    57    55   ar
    97   126   128    1
    98   126   123    1
    99   138   137   ar
   100   138   136   ar
   101    53    50    1
   102   137   135   ar
   103   112   110   ar
   104   112   111   ar
   105    42    43    1
   106    42    39    1
   107   110   108   ar
   108    96    95    1
   109    51    50    1
   110    51    52    2
   111   136   134   ar
   112    43    45   ar
   113    43    44   ar
   114    50    49    1
   115   111   109   ar
   116    39    38    1
   117    39    40    1
   118    45    47   ar
   119    44    46   ar
   120   135   134   ar
   121   108   107   ar
   122   108   106   ar
   123   134   133    1
   124    47    48   ar
   125    46    48   ar
   126    95    94    1
   127    40    41    2
   128    94    91    1
   129   109   106   ar
   130   107   105   ar
   131   106   104   ar
   132   132   131    2
   133   133   130    1
   134    91    90    1
   135    91    92    1
   136   129   130    1
   137   105   104   ar
   138   131   130    1
   139   104   103    1
   140    92    93    2
   141   103   100    1
   142   100    99    1
   143   100   101    1
   144   101   102    2
