@<TRIPOS>MOLECULE
tmp/5f3gB00.pdb
 168 160 0 0 0
SMALL
GASTEIGER

@<TRIPOS>ATOM
      1  N          3.3840   14.6670   18.8870 N.3   124  TYR124     -0.1241
      2  CA         2.9100   13.2930   19.1040 C.3   124  TYR124      0.1605
      3  C          2.8920   12.9870   20.6200 C.2   124  TYR124      0.2264
      4  O          3.9130   13.0810   21.2960 O.2   124  TYR124     -0.2867
      5  CB         3.7690   12.2700   18.3090 C.3   124  TYR124      0.0534
      6  CG         3.0970   10.9620   17.8950 C.ar  124  TYR124     -0.0201
      7  CD1        1.7110   10.8210   17.9200 C.ar  124  TYR124     -0.0009
      8  CD2        3.8490    9.8740   17.4680 C.ar  124  TYR124     -0.0009
      9  CE1        1.0990    9.6110   17.6010 C.ar  124  TYR124      0.0417
     10  CE2        3.2430    8.6750   17.0980 C.ar  124  TYR124      0.0417
     11  CZ         1.8700    8.5450   17.1760 C.ar  124  TYR124      0.1957
     12  OH         1.2820    7.3790   16.7570 O.3   124  TYR124     -0.2866
     13  N          2.8310   10.3570   22.4650 N.3   126  ALA126     -0.1231
     14  CA         3.1270    8.9360   22.3750 C.3   126  ALA126      0.1694
     15  C          3.7020    8.4420   23.6700 C.2   126  ALA126      0.2592
     16  O          4.0690    9.2680   24.5080 O.2   126  ALA126     -0.2718
     17  CB         4.1130    8.7030   21.2310 C.3   126  ALA126      0.0304
     18  N          3.8030    7.0980   23.8210 N.am  127  ASP127     -0.1974
     19  CA         4.4150    6.3950   24.9670 C.3   127  ASP127      0.1709
     20  C          3.7880    6.7820   26.3110 C.2   127  ASP127      0.2293
     21  O          4.4840    7.0100   27.3020 O.2   127  ASP127     -0.2864
     22  CB         5.9600    6.5600   24.9920 C.3   127  ASP127      0.1436
     23  CG         6.6310    6.3750   23.6290 C.2   127  ASP127      0.3671
     24  OD1        6.1190    5.5570   22.8100 O.co2 127  ASP127     -0.2456
     25  OD2        7.6470    7.0760   23.3610 O.co2 127  ASP127     -0.2456
     26  N          9.1710   -1.9810   30.3770 N.3   154  GLY154     -0.1210
     27  CA         7.7490   -2.2630   30.2660 C.3   154  GLY154      0.1956
     28  C          7.3300   -2.6230   28.8520 C.2   154  GLY154      0.2611
     29  O          7.0790   -1.7350   28.0250 O.2   154  GLY154     -0.2717
     30  N          7.2500   -3.9400   28.5610 N.am  155  VAL155     -0.1979
     31  CA         6.8170   -4.4640   27.2520 C.3   155  VAL155      0.1595
     32  C          5.5570   -5.3550   27.3860 C.2   155  VAL155      0.2287
     33  O          4.9340   -5.7230   26.3900 O.2   155  VAL155     -0.2864
     34  CB         7.9450   -5.1160   26.4420 C.3   155  VAL155      0.0276
     35  CG1        8.6790   -4.0520   25.6280 C.3   155  VAL155      0.0022
     36  CG2        8.9070   -5.8900   27.3510 C.3   155  VAL155      0.0022
     37  N          0.5880    1.1600   26.3510 N.3   159  TYR159     -0.1241
     38  CA         1.0380    2.4970   25.9990 C.3   159  TYR159      0.1605
     39  C          0.0410    3.1280   25.0650 C.2   159  TYR159      0.2264
     40  O         -0.3320    2.4960   24.0890 O.2   159  TYR159     -0.2867
     41  CB         2.4170    2.4500   25.3280 C.3   159  TYR159      0.0534
     42  CG         3.5600    2.2330   26.3020 C.ar  159  TYR159     -0.0201
     43  CD1        3.8830    3.1970   27.2570 C.ar  159  TYR159     -0.0009
     44  CD2        4.2100    1.0000   26.3790 C.ar  159  TYR159     -0.0009
     45  CE1        4.9240    3.0000   28.1620 C.ar  159  TYR159      0.0417
     46  CE2        5.2250    0.7730   27.3100 C.ar  159  TYR159      0.0417
     47  CZ         5.5860    1.7800   28.1970 C.ar  159  TYR159      0.1957
     48  OH         6.5790    1.5690   29.1270 O.3   159  TYR159     -0.2866
     49  N         -1.3250    6.4160   22.5790 N.3   161  TYR161     -0.1241
     50  CA        -0.8100    7.2380   21.4750 C.3   161  TYR161      0.1605
     51  C         -1.8570    8.1820   20.9790 C.2   161  TYR161      0.2264
     52  O         -2.8410    7.7830   20.3520 O.2   161  TYR161     -0.2867
     53  CB        -0.2540    6.3620   20.3510 C.3   161  TYR161      0.0534
     54  CG         0.9890    5.6080   20.7680 C.ar  161  TYR161     -0.0201
     55  CD1        0.9000    4.4140   21.4790 C.ar  161  TYR161     -0.0009
     56  CD2        2.2500    6.0480   20.3910 C.ar  161  TYR161     -0.0009
     57  CE1        2.0430    3.7210   21.8730 C.ar  161  TYR161      0.0417
     58  CE2        3.4020    5.3800   20.8070 C.ar  161  TYR161      0.0417
     59  CZ         3.2930    4.2190   21.5520 C.ar  161  TYR161      0.1957
     60  OH         4.4210    3.5250   21.8850 O.3   161  TYR161     -0.2866
     61  N          5.3440    7.0630   12.6280 N.3   169  PHE169     -0.1241
     62  CA         6.2040    6.1280   13.2820 C.3   169  PHE169      0.1605
     63  C          7.1250    5.6390   12.1780 C.2   169  PHE169      0.2264
     64  O          6.6820    5.2280   11.1350 O.2   169  PHE169     -0.2867
     65  CB         5.4840    5.0340   14.0690 C.3   169  PHE169      0.0534
     66  CG         4.3810    4.3380   13.3470 C.ar  169  PHE169     -0.0203
     67  CD1        3.1730    4.9520   13.1410 C.ar  169  PHE169     -0.0042
     68  CD2        4.5210    3.0210   12.9770 C.ar  169  PHE169     -0.0042
     69  CE1        2.1410    4.2920   12.5130 C.ar  169  PHE169     -0.0003
     70  CE2        3.4930    2.3510   12.3600 C.ar  169  PHE169     -0.0003
     71  CZ         2.2990    2.9890   12.1250 C.ar  169  PHE169     -0.0000
     72  N         10.5870    0.2510   11.6040 N.3   172  HIS172     -0.1241
     73  CA        11.1420   -0.5370   12.6850 C.3   172  HIS172      0.1621
     74  C         10.4810   -1.8930   12.8590 C.2   172  HIS172      0.2264
     75  O          9.4320   -2.1370   12.3410 O.2   172  HIS172     -0.2867
     76  CB        11.0030    0.2320   14.0040 C.3   172  HIS172      0.0745
     77  CG         9.5940    0.3590   14.4950 C.ar  172  HIS172      0.0817
     78  ND1        8.6740    1.1710   13.8860 N.ar  172  HIS172     -0.2268
     79  CD2        8.9540   -0.2100   15.5380 C.ar  172  HIS172      0.1154
     80  CE1        7.5230    1.0870   14.5170 C.ar  172  HIS172      0.1986
     81  NE2        7.6620    0.2530   15.5240 N.ar  172  HIS172     -0.2212
     82  N          9.4910   -4.6720   16.0640 N.3   174  GLU174     -0.1231
     83  CA         9.2740   -4.5140   17.4980 C.3   174  GLU174      0.1699
     84  C         10.5570   -4.8020   18.2830 C.2   174  GLU174      0.2592
     85  O         11.4520   -5.4680   17.7550 O.2   174  GLU174     -0.2718
     86  CB         8.1140   -5.4150   17.9590 C.3   174  GLU174      0.0402
     87  CG         6.7730   -4.9970   17.3780 C.3   174  GLU174      0.1161
     88  CD         6.4030   -3.5470   17.6290 C.2   174  GLU174      0.3649
     89  OE1        6.4960   -3.0790   18.7880 O.co2 174  GLU174     -0.2457
     90  OE2        6.0500   -2.8650   16.6470 O.co2 174  GLU174     -0.2457
     91  N         10.6760   -4.2620   19.5080 N.am  175  ASP175     -0.1974
     92  CA        11.8540   -4.5090   20.3380 C.3   175  ASP175      0.1709
     93  C         11.9130   -6.0150   20.6320 C.2   175  ASP175      0.2293
     94  O         10.8740   -6.6170   20.9320 O.2   175  ASP175     -0.2864
     95  CB        11.8220   -3.6570   21.6240 C.3   175  ASP175      0.1436
     96  CG        12.0280   -2.1670   21.3790 C.2   175  ASP175      0.3671
     97  OD1       12.9670   -1.8090   20.6230 O.co2 175  ASP175     -0.2456
     98  OD2       11.2120   -1.3630   21.8890 O.co2 175  ASP175     -0.2456
     99  N          2.9840   -7.2670   18.1430 N.3   180  SER180     -0.1217
    100  CA         2.3350   -6.0960   18.7060 C.3   180  SER180      0.1889
    101  C          0.8530   -6.0620   18.3270 C.2   180  SER180      0.2288
    102  O          0.4740   -6.4400   17.2150 O.2   180  SER180     -0.2866
    103  CB         3.0610   -4.8050   18.3010 C.3   180  SER180      0.2089
    104  OG         2.6250   -4.2940   17.0470 O.3   180  SER180     -0.2183
    105  N         -2.3960   -3.3070   18.2510 N.3   182  ASN182     -0.1240
    106  CA        -2.5970   -1.8660   18.1520 C.3   182  ASN182      0.1653
    107  C         -4.0830   -1.5430   17.9410 C.2   182  ASN182      0.2266
    108  O         -4.5870   -1.6770   16.8390 O.2   182  ASN182     -0.2867
    109  CB        -1.6790   -1.2710   17.0270 C.3   182  ASN182      0.1155
    110  CG        -1.5910    0.2440   17.0580 C.2   182  ASN182      0.2627
    111  OD1       -2.5540    0.9300   16.7130 O.2   182  ASN182     -0.2716
    112  ND2       -0.4750    0.8050   17.5590 N.am  182  ASN182     -0.0877
    113  N         -5.2670    5.8800   11.0320 N.3   190  LYS190     -0.1245
    114  CA        -3.8600    5.6370   11.1300 C.3   190  LYS190      0.1561
    115  C         -3.5470    4.8180    9.8810 C.2   190  LYS190      0.2260
    116  O         -4.1690    3.7790    9.6520 O.2   190  LYS190     -0.2867
    117  CB        -3.5660    4.8150   12.3890 C.3   190  LYS190      0.0271
    118  CG        -2.0870    4.5380   12.6070 C.3   190  LYS190      0.0035
    119  CD        -1.7760    3.7350   13.8930 C.3   190  LYS190      0.0206
    120  CE        -2.0480    4.4560   15.1970 C.3   190  LYS190      0.1093
    121  NZ        -1.0910    5.5630   15.4060 N.3   190  LYS190     -0.1314
    122  N         -0.8380    2.5540    7.6260 N.3   192  TRP192     -0.1241
    123  CA         0.3160    1.6810    7.8680 C.3   192  TRP192      0.1605
    124  C          0.9790    1.2310    6.5730 C.2   192  TRP192      0.2264
    125  O          0.2920    1.0160    5.5700 O.2   192  TRP192     -0.2867
    126  CB        -0.1620    0.4230    8.6110 C.3   192  TRP192      0.0550
    127  CG        -0.7030    0.6300    9.9980 C.ar  192  TRP192      0.0003
    128  CD1       -1.9050    1.1790   10.3360 C.ar  192  TRP192      0.0946
    129  CD2       -0.1060    0.1720   11.2280 C.ar  192  TRP192      0.0152
    130  NE1       -2.0640    1.1530   11.6940 N.ar  192  TRP192     -0.2442
    131  CE2       -0.9990    0.4950   12.2660 C.ar  192  TRP192      0.0810
    132  CE3        1.0740   -0.5270   11.5430 C.ar  192  TRP192      0.0012
    133  CZ2       -0.7180    0.2020   13.6260 C.ar  192  TRP192      0.0191
    134  CZ3        1.3320   -0.8640   12.8750 C.ar  192  TRP192      0.0001
    135  CH2        0.4570   -0.4840   13.9030 C.ar  192  TRP192      0.0015
    136  N         14.2810    4.2240   15.5460 N.3   225  LYS225     -0.1245
    137  CA        12.9900    4.6150   14.9680 C.3   225  LYS225      0.1561
    138  C         13.0420    6.0360   14.4790 C.2   225  LYS225      0.2260
    139  O         12.2420    6.8540   14.8890 O.2   225  LYS225     -0.2867
    140  CB        11.8120    4.3500   15.9330 C.3   225  LYS225      0.0271
    141  CG        10.4660    4.4950   15.1730 C.3   225  LYS225      0.0035
    142  CD         9.2960    3.9940   15.9400 C.3   225  LYS225      0.0206
    143  CE         9.0570    4.8960   17.1320 C.3   225  LYS225      0.1093
    144  NZ         8.0440    4.3140   18.0000 N.3   225  LYS225     -0.1314
    145  N          7.5580   -2.0240    9.8580 N.3   260  HIS260     -0.1241
    146  CA         6.3930   -1.2080    9.6030 C.3   260  HIS260      0.1621
    147  C          6.6880    0.2380    9.9300 C.2   260  HIS260      0.2264
    148  O          7.5670    0.5390   10.7440 O.2   260  HIS260     -0.2867
    149  CB         5.1560   -1.7360   10.3980 C.3   260  HIS260      0.0745
    150  CG         5.4040   -1.8930   11.8680 C.ar  260  HIS260      0.0817
    151  ND1        6.2440   -2.8770   12.3450 N.ar  260  HIS260     -0.2268
    152  CD2        4.9070   -1.2010   12.9140 C.ar  260  HIS260      0.1154
    153  CE1        6.2570   -2.7360   13.6560 C.ar  260  HIS260      0.1986
    154  NE2        5.4670   -1.7470   14.0450 N.ar  260  HIS260     -0.2212
    155  N         -1.3930    0.2210   22.6100 N.3   272  SER272     -0.1217
    156  CA        -0.5690   -0.8720   22.1230 C.3   272  SER272      0.1889
    157  C          0.2990   -1.5130   23.1860 C.2   272  SER272      0.2288
    158  O          0.5580   -0.9200   24.2460 O.2   272  SER272     -0.2866
    159  CB         0.2750   -0.4230   20.9230 C.3   272  SER272      0.2089
    160  OG         0.2290    0.9830   20.7300 O.3   272  SER272     -0.2183
    161  N          3.3010   -5.2690   23.4420 N.3   274  ASN274     -0.1240
    162  CA         3.9700   -6.3650   22.7620 C.3   274  ASN274      0.1653
    163  C          3.4360   -7.6470   23.3220 C.2   274  ASN274      0.2266
    164  O          2.9650   -7.6640   24.4590 O.2   274  ASN274     -0.2867
    165  CB         5.4980   -6.2670   22.9290 C.3   274  ASN274      0.1155
    166  CG         6.1410   -5.1720   22.0880 C.2   274  ASN274      0.2627
    167  OD1        6.7600   -4.2380   22.6070 O.2   274  ASN274     -0.2716
    168  ND2        6.0390   -5.2720   20.7630 N.am  274  ASN274     -0.0877
@<TRIPOS>BOND
     1   125   124    2
     2   124   123    1
     3   122   123    1
     4   123   126    1
     5   126   127    1
     6   146   145    1
     7   146   147    1
     8   146   149    1
     9   116   115    2
    10   115   114    1
    11   147   148    2
    12   127   128   ar
    13   127   129   ar
    14   128   130   ar
    15   149   150    1
    16   113   114    1
    17   114   117    1
    18    64    63    2
    19   129   132   ar
    20   129   131   ar
    21   132   134   ar
    22    72    73    1
    23   130   131   ar
    24   150   151   ar
    25   150   152   ar
    26    71    70   ar
    27    71    69   ar
    28    63    62    1
    29   131   133   ar
    30    75    74    2
    31   151   153   ar
    32    70    68   ar
    33   117   118    1
    34    69    67   ar
    35   118   119    1
    36    61    62    1
    37    73    74    1
    38    73    76    1
    39   134   135   ar
    40   152   154   ar
    41    68    66   ar
    42    67    66   ar
    43    62    65    1
    44    66    65    1
    45   133   135   ar
    46   153   154   ar
    47    78    77   ar
    48    78    80   ar
    49   119   120    1
    50    76    77    1
    51   138   139    2
    52   138   137    1
    53    77    79   ar
    54    80    81   ar
    55   137   136    1
    56   137   140    1
    57   141   140    1
    58   141   142    1
    59   120   121    1
    60    81    79   ar
    61   142   143    1
    62    82    83    1
    63    90    88   ar
    64   111   110    2
    65    12    11    1
    66   108   107    2
    67   109   110    1
    68   109   106    1
    69   104   103    1
    70   110   112   am
    71    10    11   ar
    72    10     8   ar
    73   143   144    1
    74    11     9   ar
    75   102   101    2
    76    87    88    1
    77    87    86    1
    78     8     6   ar
    79    83    86    1
    80    83    84    1
    81     9     7   ar
    82    88    89   ar
    83    85    84    2
    84     6     7   ar
    85     6     5    1
    86   107   106    1
    87    99   100    1
    88   106   105    1
    89    84    91   am
    90   103   100    1
    91     5     2    1
    92   101   100    1
    93     1     2    1
    94     2     3    1
    95    91    92    1
    96    92    93    1
    97    92    95    1
    98    53    54    1
    99    53    50    1
   100    52    51    2
   101    56    54   ar
   102    56    58   ar
   103     3     4    2
   104    97    96   ar
   105    93    94    2
   106   160   159    1
   107   168   166   am
   108    54    55   ar
   109    58    59   ar
   110   159   156    1
   111    51    50    1
   112    17    14    1
   113    96    95    1
   114    96    98   ar
   115    50    49    1
   116    55    57   ar
   117    59    57   ar
   118    59    60    1
   119   166   167    2
   120   166   165    1
   121   156   155    1
   122   156   157    1
   123    14    13    1
   124    14    15    1
   125   162   165    1
   126   162   163    1
   127   162   161    1
   128    24    23   ar
   129   157   158    2
   130   163   164    2
   131    25    23   ar
   132    23    22    1
   133    15    18   am
   134    15    16    2
   135    18    19    1
   136    40    39    2
   137    19    22    1
   138    19    20    1
   139    39    38    1
   140    41    38    1
   141    41    42    1
   142    35    34    1
   143    38    37    1
   144    42    44   ar
   145    42    43   ar
   146    20    21    2
   147    44    46   ar
   148    33    32    2
   149    34    31    1
   150    34    36    1
   151    31    32    1
   152    31    30    1
   153    43    45   ar
   154    46    47   ar
   155    29    28    2
   156    45    47   ar
   157    47    48    1
   158    30    28   am
   159    28    27    1
   160    27    26    1
