@<TRIPOS>MOLECULE
tmp/5f3mB00.pdb
 105 101 0 0 0
SMALL
GASTEIGER

@<TRIPOS>ATOM
      1  N         30.1630   24.8180   36.0900 N.3    15  VAL15      -0.1231
      2  CA        30.1790   26.1630   36.6550 C.3    15  VAL15       0.1692
      3  C         29.9320   27.2130   35.5750 C.2    15  VAL15       0.2592
      4  O         29.2900   28.2430   35.8250 O.2    15  VAL15      -0.2718
      5  CB        31.5130   26.3900   37.3900 C.3    15  VAL15       0.0266
      6  CG1       31.6700   27.8510   37.7930 C.3    15  VAL15       0.0020
      7  CG2       31.6150   25.4690   38.6100 C.3    15  VAL15       0.0020
      8  N         30.4570   26.9790   34.3370 N.am   16  PHE16      -0.1976
      9  CA        30.3450   27.9920   33.2880 C.3    16  PHE16       0.1639
     10  C         29.0270   27.8290   32.5370 C.2    16  PHE16       0.2290
     11  O         28.6410   26.7070   32.2030 O.2    16  PHE16      -0.2864
     12  CB        31.4900   27.8550   32.2850 C.3    16  PHE16       0.0560
     13  CG        32.8520   28.0770   32.8740 C.ar   16  PHE16      -0.0200
     14  CD1       33.8320   27.1060   32.7680 C.ar   16  PHE16      -0.0042
     15  CD2       33.1570   29.2610   33.5280 C.ar   16  PHE16      -0.0042
     16  CE1       35.0890   27.3100   33.3000 C.ar   16  PHE16      -0.0003
     17  CE2       34.4120   29.4680   34.0670 C.ar   16  PHE16      -0.0003
     18  CZ        35.3780   28.4900   33.9530 C.ar   16  PHE16      -0.0000
     19  N         29.0880   25.5940   29.5210 N.3    19  GLU19      -0.1245
     20  CA        29.0040   24.1570   29.7620 C.3    19  GLU19       0.1567
     21  C         27.5550   23.7160   29.8940 C.2    19  GLU19       0.2260
     22  O         27.1900   22.6210   29.4460 O.2    19  GLU19      -0.2867
     23  CB        29.7490   23.7880   31.0420 C.3    19  GLU19       0.0388
     24  CG        31.2540   23.8960   30.9800 C.3    19  GLU19       0.1160
     25  CD        31.8790   23.5380   32.3110 C.2    19  GLU19       0.3649
     26  OE1       31.8260   24.3830   33.2390 O.co2  19  GLU19      -0.2457
     27  OE2       32.3730   22.3960   32.4460 O.co2  19  GLU19      -0.2457
     28  N         25.8720   22.8410   39.1590 N.3    68  LYS68      -0.1231
     29  CA        27.1460   23.4670   38.8210 C.3    68  LYS68       0.1693
     30  C         28.3060   22.5030   39.0360 C.2    68  LYS68       0.2592
     31  O         29.1930   22.3920   38.1790 O.2    68  LYS68      -0.2718
     32  CB        27.3610   24.7450   39.6340 C.3    68  LYS68       0.0285
     33  CG        26.4930   25.9140   39.1950 C.3    68  LYS68       0.0035
     34  CD        26.8880   27.1980   39.9100 C.3    68  LYS68       0.0206
     35  CE        26.0060   28.3550   39.4700 C.3    68  LYS68       0.1093
     36  NZ        24.5690   28.0720   39.7330 N.3    68  LYS68      -0.1314
     37  N         28.3090   21.7850   40.1590 N.am   69  LEU69      -0.1966
     38  CA        29.4800   21.0430   40.6160 C.3    69  LEU69       0.1728
     39  C         29.3260   19.5370   40.4630 C.2    69  LEU69       0.2616
     40  O         28.2550   18.9760   40.7350 O.2    69  LEU69      -0.2715
     41  CB        29.7480   21.3120   42.1080 C.3    69  LEU69       0.0311
     42  CG        29.9550   22.7530   42.5670 C.3    69  LEU69       0.0022
     43  CD1       30.2950   22.7930   44.0590 C.3    69  LEU69       0.0001
     44  CD2       31.0330   23.4450   41.7280 C.3    69  LEU69       0.0001
     45  N         30.4320   18.8710   40.1090 N.am   70  VAL70      -0.1963
     46  CA        30.4340   17.4090   40.1460 C.3    70  VAL70       0.1727
     47  C         30.2350   16.8980   41.5690 C.2    70  VAL70       0.2616
     48  O         29.6850   15.8080   41.7710 O.2    70  VAL70      -0.2715
     49  CB        31.6850   16.8070   39.4700 C.3    70  VAL70       0.0290
     50  CG1       31.6290   17.0230   37.9680 C.3    70  VAL70       0.0023
     51  CG2       32.9490   17.4100   40.0270 C.3    70  VAL70       0.0023
     52  N         30.6560   17.6790   42.5750 N.am   71  GLU71      -0.1977
     53  CA        30.3980   17.3210   43.9670 C.3    71  GLU71       0.1602
     54  C         28.9080   17.1010   44.2170 C.2    71  GLU71       0.2287
     55  O         28.5230   16.1980   44.9730 O.2    71  GLU71      -0.2864
     56  CB        30.9110   18.4310   44.8920 C.3    71  GLU71       0.0415
     57  CG        32.4340   18.4950   45.0660 C.3    71  GLU71       0.1163
     58  CD        33.1750   19.3050   44.0030 C.2    71  GLU71       0.3649
     59  OE1       32.6360   19.5430   42.8960 O.co2  71  GLU71      -0.2457
     60  OE2       34.3300   19.7040   44.2840 O.co2  71  GLU71      -0.2457
     61  N         34.7880   13.7970   35.1510 N.3    97  LYS97      -0.1245
     62  CA        34.5730   14.7290   34.0540 C.3    97  LYS97       0.1561
     63  C         35.7910   14.5730   33.1490 C.2    97  LYS97       0.2260
     64  O         36.8580   15.1400   33.4400 O.2    97  LYS97      -0.2867
     65  CB        34.5010   16.1420   34.6360 C.3    97  LYS97       0.0271
     66  CG        33.8160   17.1720   33.7860 C.3    97  LYS97       0.0035
     67  CD        33.5600   18.4190   34.6150 C.3    97  LYS97       0.0206
     68  CE        32.9030   19.5080   33.8120 C.3    97  LYS97       0.1093
     69  NZ        32.7290   20.7480   34.6180 N.3    97  LYS97      -0.1314
     70  N         36.8060   18.2710   30.5880 N.3   100  PRO100     -0.2103
     71  CA        36.4860   19.5980   31.1230 C.3   100  PRO100      0.1489
     72  C         37.1280   20.6950   30.2900 C.2   100  PRO100      0.2418
     73  O         38.0710   20.4450   29.5240 O.2   100  PRO100     -0.2734
     74  CB        37.1090   19.5560   32.5240 C.3   100  PRO100      0.0282
     75  CG        38.3170   18.7120   32.3200 C.3   100  PRO100      0.0208
     76  CD        37.8570   17.6160   31.3920 C.3   100  PRO100      0.0893
     77  N         36.6590   21.9430   30.4250 N.am  101  PRO101     -0.2718
     78  CA        37.2340   23.0690   29.6770 C.3   101  PRO101      0.1535
     79  C         38.5000   23.6380   30.3210 C.2   101  PRO101      0.2598
     80  O         38.5930   24.8380   30.5950 O.2   101  PRO101     -0.2715
     81  CB        36.0910   24.0880   29.6760 C.3   101  PRO101      0.0310
     82  CG        35.4200   23.8480   31.0080 C.3   101  PRO101      0.0237
     83  CD        35.4580   22.3430   31.1880 C.3   101  PRO101      0.0939
     84  N         39.4760   22.7680   30.5670 N.am  102  ILE102     -0.1978
     85  CA        40.7600   23.1210   31.1630 C.3   102  ILE102      0.1596
     86  C         41.8210   23.0440   30.0670 C.2   102  ILE102      0.2287
     87  O         42.1220   21.9450   29.5780 O.2   102  ILE102     -0.2864
     88  CB        41.1190   22.1920   32.3300 C.3   102  ILE102      0.0276
     89  CG1       40.0650   22.2840   33.4350 C.3   102  ILE102      0.0022
     90  CG2       42.5030   22.5340   32.8730 C.3   102  ILE102      0.0022
     91  CD1       40.2050   21.2190   34.5070 C.3   102  ILE102      0.0001
     92  N         39.4020   14.8320   35.2820 N.3   109  VAL109     -0.1245
     93  CA        39.2710   15.2930   36.6600 C.3   109  VAL109      0.1561
     94  C         38.1130   14.5260   37.2930 C.2   109  VAL109      0.2260
     95  O         37.2240   14.0290   36.6010 O.2   109  VAL109     -0.2867
     96  CB        39.0540   16.8200   36.7610 C.3   109  VAL109      0.0252
     97  CG1       40.1920   17.5740   36.0670 C.3   109  VAL109      0.0019
     98  CG2       37.6950   17.2170   36.1870 C.3   109  VAL109      0.0019
     99  N         35.7960   13.6980   41.3090 N.3   111  VAL111     -0.1245
    100  CA        35.5820   13.7560   42.7490 C.3   111  VAL111      0.1561
    101  C         35.1490   12.3770   43.2230 C.2   111  VAL111      0.2260
    102  O         34.5200   11.6130   42.4830 O.2   111  VAL111     -0.2867
    103  CB        34.5480   14.8190   43.1870 C.3   111  VAL111      0.0252
    104  CG1       35.0170   16.2260   42.8320 C.3   111  VAL111      0.0019
    105  CG2       33.1710   14.5070   42.6200 C.3   111  VAL111      0.0019
@<TRIPOS>BOND
     1    22    21    2
     2    19    20    1
     3    73    72    2
     4    87    86    2
     5    81    78    1
     6    81    82    1
     7    78    79    1
     8    78    77    1
     9    20    21    1
    10    20    23    1
    11    86    85    1
    12    72    77   am
    13    72    71    1
    14    79    84   am
    15    79    80    2
    16    77    83    1
    17    84    85    1
    18    70    71    1
    19    70    76    1
    20    24    23    1
    21    24    25    1
    22    82    83    1
    23    71    74    1
    24    85    88    1
    25    76    75    1
    26    11    10    2
    27    12    13    1
    28    12     9    1
    29    25    27   ar
    30    25    26   ar
    31    75    74    1
    32    88    90    1
    33    88    89    1
    34    10     9    1
    35    14    13   ar
    36    14    16   ar
    37    13    15   ar
    38    63    64    2
    39    63    62    1
    40     9     8    1
    41    16    18   ar
    42    89    91    1
    43    15    17   ar
    44    66    67    1
    45    66    65    1
    46    68    67    1
    47    68    69    1
    48    18    17   ar
    49    62    65    1
    50    62    61    1
    51     8     3   am
    52    92    93    1
    53     3     4    2
    54     3     2    1
    55    97    96    1
    56     1     2    1
    57    98    96    1
    58    95    94    2
    59     2     5    1
    60    93    96    1
    61    93    94    1
    62     5     6    1
    63     5     7    1
    64    50    49    1
    65    31    30    2
    66    29    30    1
    67    29    28    1
    68    29    32    1
    69    30    37   am
    70    33    32    1
    71    33    34    1
    72    49    51    1
    73    49    46    1
    74    35    36    1
    75    35    34    1
    76    45    46    1
    77    45    39   am
    78    46    47    1
    79    37    38    1
    80    39    38    1
    81    39    40    2
    82    38    41    1
    83    99   100    1
    84    47    48    2
    85    47    52   am
    86    44    42    1
    87    41    42    1
    88   102   101    2
    89    42    43    1
    90    52    53    1
    91   105   103    1
    92   100   103    1
    93   100   101    1
    94   104   103    1
    95    59    58   ar
    96    53    54    1
    97    53    56    1
    98    58    60   ar
    99    58    57    1
   100    54    55    2
   101    56    57    1
