@<TRIPOS>MOLECULE
tmp/5f3tA00.pdb
 151 148 0 0 0
SMALL
GASTEIGER

@<TRIPOS>ATOM
      1  N         19.4910   55.9950    5.8640 N.3   213  LEU213     -0.1245
      2  CA        18.0920   56.1160    6.2780 C.3   213  LEU213      0.1561
      3  C         17.1090   55.3550    5.3610 C.2   213  LEU213      0.2260
      4  O         16.2500   54.6310    5.8700 O.2   213  LEU213     -0.2867
      5  CB        17.6930   57.5950    6.4000 C.3   213  LEU213      0.0270
      6  CG        16.2190   57.8690    6.7070 C.3   213  LEU213      0.0019
      7  CD1       15.8040   57.2820    8.0780 C.3   213  LEU213      0.0001
      8  CD2       15.8920   59.3500    6.5830 C.3   213  LEU213      0.0001
      9  N         16.8160   51.6290    6.3030 N.3   216  LEU216     -0.1245
     10  CA        16.3370   51.2660    7.6470 C.3   216  LEU216      0.1561
     11  C         14.9150   50.7090    7.6630 C.2   216  LEU216      0.2260
     12  O         14.6740   49.7190    8.3380 O.2   216  LEU216     -0.2867
     13  CB        16.5030   52.4330    8.6560 C.3   216  LEU216      0.0270
     14  CG        17.9060   53.0790    8.7570 C.3   216  LEU216      0.0019
     15  CD1       17.9060   54.2550    9.7390 C.3   216  LEU216      0.0001
     16  CD2       18.9750   52.0670    9.1600 C.3   216  LEU216      0.0001
     17  N         15.3360   55.5590   15.0980 N.3   411  CYS411     -0.1221
     18  CA        16.2090   56.6330   14.6250 C.3   411  CYS411      0.1808
     19  C         15.4130   57.9010   14.2230 C.2   411  CYS411      0.2602
     20  O         15.6100   58.4590   13.1410 O.2   411  CYS411     -0.2717
     21  CB        17.1320   56.1360   13.5120 C.3   411  CYS411      0.0970
     22  SG        18.1970   54.7450   13.9940 S.3   411  CYS411     -0.0800
     23  N         14.4530   58.2970   15.0920 N.am  412  SER412     -0.1938
     24  CA        13.5880   59.4850   14.9510 C.3   412  SER412      0.2055
     25  C         12.5490   59.3670   13.8200 C.2   412  SER412      0.2643
     26  O         11.8300   60.3270   13.5420 O.2   412  SER412     -0.2714
     27  CB        14.4330   60.7520   14.7690 C.3   412  SER412      0.2130
     28  OG        15.4940   60.8190   15.7060 O.3   412  SER412     -0.2179
     29  N         12.4150   58.1700   13.2320 N.am  413  HIS413     -0.1973
     30  CA        11.5030   57.9460   12.1190 C.3   413  HIS413      0.1656
     31  C         10.5950   56.7450   12.3160 C.2   413  HIS413      0.2291
     32  O         10.7890   55.9470   13.2260 O.2   413  HIS413     -0.2864
     33  CB        12.3250   57.7050   10.8250 C.3   413  HIS413      0.0771
     34  CG        13.0100   58.9200   10.2820 C.ar  413  HIS413      0.0820
     35  ND1       14.1830   59.4040   10.8450 N.ar  413  HIS413     -0.2267
     36  CD2       12.6980   59.6790    9.2110 C.ar  413  HIS413      0.1154
     37  CE1       14.5190   60.4560   10.1210 C.ar  413  HIS413      0.1986
     38  NE2       13.6400   60.6740    9.1460 N.ar  413  HIS413     -0.2212
     39  N          8.4790   61.1170    9.2990 N.3   431  ARG431     -0.1245
     40  CA         8.4270   61.6460   10.6610 C.3   431  ARG431      0.1563
     41  C          7.3700   62.7630   10.6960 C.2   431  ARG431      0.2260
     42  O          6.9640   63.1820    9.6120 O.2   431  ARG431     -0.2867
     43  CB         9.8230   62.0920   11.1570 C.3   431  ARG431      0.0307
     44  CG        10.4250   63.3030   10.4540 C.3   431  ARG431      0.0489
     45  CD        11.8680   63.4710   10.8380 C.3   431  ARG431      0.2205
     46  NE        12.0120   63.9100   12.2240 N.pl3 431  ARG431     -0.0865
     47  CZ        13.1720   64.0590   12.8480 C.cat 431  ARG431      0.5346
     48  NH1       14.3090   63.8150   12.2140 N.pl3 431  ARG431      0.1354
     49  NH2       13.2030   64.4370   14.1160 N.pl3 431  ARG431      0.1354
     50  N         13.0720   72.1180   11.1980 N.3   439  ARG439     -0.1245
     51  CA        14.5100   71.9600   11.0560 C.3   439  ARG439      0.1563
     52  C         15.0480   72.7650    9.8580 C.2   439  ARG439      0.2260
     53  O         16.0360   73.4930   10.0150 O.2   439  ARG439     -0.2867
     54  CB        14.8980   70.4660   10.9390 C.3   439  ARG439      0.0307
     55  CG        16.4120   70.1690   10.7780 C.3   439  ARG439      0.0489
     56  CD        17.2870   70.7190   11.9010 C.3   439  ARG439      0.2205
     57  NE        16.9220   70.1710   13.2110 N.pl3 439  ARG439     -0.0865
     58  CZ        17.0970   70.8020   14.3690 C.cat 439  ARG439      0.5346
     59  NH1       17.6200   72.0220   14.3960 N.pl3 439  ARG439      0.1354
     60  NH2       16.7410   70.2220   15.5090 N.pl3 439  ARG439      0.1354
     61  N         17.0340   67.2770    0.0230 N.3   463  MET463     -0.1245
     62  CA        16.9510   66.1460    0.9710 C.3   463  MET463      0.1570
     63  C         15.5040   65.6390    0.9780 C.2   463  MET463      0.2261
     64  O         15.2840   64.4280    0.9370 O.2   463  MET463     -0.2867
     65  CB        17.3790   66.5650    2.3850 C.3   463  MET463      0.0387
     66  CG        17.3230   65.4190    3.3890 C.3   463  MET463      0.0595
     67  SD        17.8480   65.9120    5.0400 S.3   463  MET463     -0.1393
     68  CE        16.4230   66.9270    5.5460 C.3   463  MET463      0.0692
     69  N         14.3410   61.8750    0.2240 N.3   467  MET467     -0.1230
     70  CA        13.8360   61.0410    1.3060 C.3   467  MET467      0.1702
     71  C         12.3660   61.2120    1.6230 C.2   467  MET467      0.2592
     72  O         11.7410   60.2480    2.0810 O.2   467  MET467     -0.2718
     73  CB        14.6840   61.2670    2.5800 C.3   467  MET467      0.0401
     74  CG        16.1910   60.9700    2.3920 C.3   467  MET467      0.0596
     75  SD        16.4700   59.1970    2.3050 S.3   467  MET467     -0.1393
     76  CE        18.0390   59.1460    1.5130 C.3   467  MET467      0.0692
     77  N         11.8300   62.4430    1.4850 N.am  468  TYR468     -0.1976
     78  CA        10.4580   62.7420    1.9110 C.3   468  TYR468      0.1639
     79  C          9.5470   63.2610    0.7690 C.2   468  TYR468      0.2290
     80  O          8.5870   64.0090    1.0110 O.2   468  TYR468     -0.2864
     81  CB        10.4780   63.6990    3.1250 C.3   468  TYR468      0.0560
     82  CG        11.4910   63.3360    4.2060 C.ar  468  TYR468     -0.0198
     83  CD1       12.6980   64.0230    4.3150 C.ar  468  TYR468     -0.0009
     84  CD2       11.2320   62.3160    5.1240 C.ar  468  TYR468     -0.0009
     85  CE1       13.6220   63.7080    5.3090 C.ar  468  TYR468      0.0417
     86  CE2       12.1490   61.9930    6.1250 C.ar  468  TYR468      0.0417
     87  CZ        13.3430   62.6910    6.2090 C.ar  468  TYR468      0.1957
     88  OH        14.2620   62.3950    7.1680 O.3   468  TYR468     -0.2866
     89  N         22.5500   69.3820    6.2630 N.3   495  THR495     -0.1203
     90  CA        21.1560   69.4420    6.7120 C.3   495  THR495      0.1994
     91  C         20.9930   68.6610    8.0210 C.2   495  THR495      0.2619
     92  O         20.0110   68.8660    8.7580 O.2   495  THR495     -0.2717
     93  CB        20.2190   68.8300    5.6540 C.3   495  THR495      0.1784
     94  OG1       20.5910   67.4800    5.4030 O.3   495  THR495     -0.2211
     95  CG2       20.1830   69.6200    4.3770 C.3   495  THR495      0.0376
     96  N         21.9500   67.7430    8.2820 N.am  496  THR496     -0.1938
     97  CA        21.9570   66.8380    9.4360 C.3   496  THR496      0.2028
     98  C         23.3780   66.3290    9.7220 C.2   496  THR496      0.2642
     99  O         24.2150   66.2720    8.8220 O.2   496  THR496     -0.2714
    100  CB        20.9740   65.6560    9.1770 C.3   496  THR496      0.1808
    101  OG1       21.0390   64.7100   10.2400 O.3   496  THR496     -0.2208
    102  CG2       21.2260   64.9470    7.8460 C.3   496  THR496      0.0379
    103  N         23.6270   65.9440   10.9760 N.am  497  TRP497     -0.1959
    104  CA        24.8920   65.3510   11.4110 C.3   497  TRP497      0.1771
    105  C         24.6940   63.8410   11.6040 C.2   497  TRP497      0.2620
    106  O         25.6250   63.1510   12.0150 O.2   497  TRP497     -0.2715
    107  CB        25.3810   66.0030   12.7160 C.3   497  TRP497      0.0590
    108  CG        25.9940   67.3550   12.5170 C.ar  497  TRP497      0.0006
    109  CD1       25.3580   68.5590   12.5760 C.ar  497  TRP497      0.0946
    110  CD2       27.3680   67.6390   12.2120 C.ar  497  TRP497      0.0152
    111  NE1       26.2530   69.5800   12.3460 N.ar  497  TRP497     -0.2442
    112  CE2       27.4970   69.0440   12.1290 C.ar  497  TRP497      0.0810
    113  CE3       28.5100   66.8410   12.0160 C.ar  497  TRP497      0.0012
    114  CZ2       28.7210   69.6710   11.8540 C.ar  497  TRP497      0.0191
    115  CZ3       29.7220   67.4610   11.7370 C.ar  497  TRP497      0.0001
    116  CH2       29.8210   68.8590   11.6580 C.ar  497  TRP497      0.0015
    117  N         23.4780   63.3330   11.2990 N.am  498  SER498     -0.1950
    118  CA        23.1090   61.9160   11.4510 C.3   498  SER498      0.1924
    119  C         24.0630   60.9730   10.7310 C.2   498  SER498      0.2314
    120  O         24.4420   61.2360    9.5850 O.2   498  SER498     -0.2863
    121  CB        21.6820   61.6680   10.9620 C.3   498  SER498      0.2116
    122  OG        21.3550   60.2880   11.0180 O.3   498  SER498     -0.2180
    123  N         23.2210   58.1760    9.6140 N.3   500  HIS500     -0.1226
    124  CA        22.3780   57.5610    8.5900 C.3   500  HIS500      0.1752
    125  C         22.2500   58.4170    7.3270 C.2   500  HIS500      0.2595
    126  O         21.6890   57.9620    6.3320 O.2   500  HIS500     -0.2718
    127  CB        21.0060   57.2140    9.1920 C.3   500  HIS500      0.0759
    128  CG        21.1070   56.3870   10.4350 C.ar  500  HIS500      0.0818
    129  ND1       21.6600   55.1220   10.4130 N.ar  500  HIS500     -0.2268
    130  CD2       20.7580   56.6840   11.7100 C.ar  500  HIS500      0.1154
    131  CE1       21.6370   54.6930   11.6620 C.ar  500  HIS500      0.1986
    132  NE2       21.0910   55.5920   12.4750 N.ar  500  HIS500     -0.2212
    133  N         22.7750   59.6460    7.3590 N.am  501  ALA501     -0.1980
    134  CA        22.7370   60.5580    6.2170 C.3   501  ALA501      0.1597
    135  C         23.9420   60.3210    5.3010 C.2   501  ALA501      0.2287
    136  O         25.0910   60.3590    5.7590 O.2   501  ALA501     -0.2864
    137  CB        22.7160   62.0020    6.7000 C.3   501  ALA501      0.0319
    138  N         21.8680   64.5060   -1.6600 N.3   505  TRP505     -0.1241
    139  CA        21.2180   65.7740   -2.0500 C.3   505  TRP505      0.1605
    140  C         22.2000   66.9590   -2.1700 C.2   505  TRP505      0.2264
    141  O         21.8100   68.0610   -2.5700 O.2   505  TRP505     -0.2867
    142  CB        20.1170   66.1110   -1.0350 C.3   505  TRP505      0.0550
    143  CG        20.5660   66.0530    0.3960 C.ar  505  TRP505      0.0003
    144  CD1       21.0840   67.0730    1.1400 C.ar  505  TRP505      0.0946
    145  CD2       20.4940   64.9140    1.2670 C.ar  505  TRP505      0.0152
    146  NE1       21.3630   66.6330    2.4170 N.ar  505  TRP505     -0.2442
    147  CE2       21.0250   65.3080    2.5160 C.ar  505  TRP505      0.0810
    148  CE3       20.0030   63.6060    1.1200 C.ar  505  TRP505      0.0012
    149  CZ2       21.1120   64.4280    3.6050 C.ar  505  TRP505      0.0191
    150  CZ3       20.1390   62.7230    2.1780 C.ar  505  TRP505      0.0001
    151  CH2       20.6890   63.1360    3.4030 C.ar  505  TRP505      0.0015
@<TRIPOS>BOND
     1   141   140    2
     2   140   139    1
     3   139   138    1
     4   139   142    1
     5   142   143    1
     6    61    62    1
     7    69    70    1
     8   143   144   ar
     9   143   145   ar
    10    79    80    2
    11    79    78    1
    12    64    63    2
    13    62    63    1
    14    62    65    1
    15   148   145   ar
    16   148   150   ar
    17   144   146   ar
    18   145   147   ar
    19    70    71    1
    20    70    73    1
    21    77    71   am
    22    77    78    1
    23    76    75    1
    24    71    72    2
    25    78    81    1
    26   150   151   ar
    27    75    74    1
    28    65    66    1
    29    74    73    1
    30   146   147   ar
    31   147   149   ar
    32    81    82    1
    33    66    67    1
    34   151   149   ar
    35    82    83   ar
    36    82    84   ar
    37    83    85   ar
    38    95    93    1
    39    67    68    1
    40    84    86   ar
    41   135   136    2
    42   135   134    1
    43    85    87   ar
    44     3     4    2
    45     3     2    1
    46    94    93    1
    47    93    90    1
    48     1     2    1
    49    86    87   ar
    50    87    88    1
    51   134   137    1
    52   134   133    1
    53    89    90    1
    54     2     5    1
    55     9    10    1
    56   126   125    2
    57     5     6    1
    58     8     6    1
    59     6     7    1
    60    90    91    1
    61   125   133   am
    62   125   124    1
    63    10    11    1
    64    10    13    1
    65    11    12    2
    66   102   100    1
    67    91    96   am
    68    91    92    2
    69    96    97    1
    70   124   127    1
    71   124   123    1
    72    13    14    1
    73    14    16    1
    74    14    15    1
    75    99    98    2
    76    38    36   ar
    77    38    37   ar
    78   100    97    1
    79   100   101    1
    80   127   128    1
    81    36    34   ar
    82    39    40    1
    83    97    98    1
    84   120   119    2
    85    42    41    2
    86    98   103   am
    87    52    53    2
    88    52    51    1
    89    37    35   ar
    90    34    33    1
    91    34    35   ar
    92   129   128   ar
    93   129   131   ar
    94   128   130   ar
    95    44    45    1
    96    44    43    1
    97    40    41    1
    98    40    43    1
    99   119   118    1
   100    55    54    1
   101    55    56    1
   102    33    30    1
   103    45    46    1
   104    54    51    1
   105   121   122    1
   106   121   118    1
   107   103   104    1
   108    51    50    1
   109   117   118    1
   110   117   105   am
   111   104   105    1
   112   104   107    1
   113   105   106    2
   114   116   115   ar
   115   116   114   ar
   116   131   132   ar
   117   130   132   ar
   118   115   113   ar
   119   114   112   ar
   120    56    57    1
   121   113   110   ar
   122    30    31    1
   123    30    29    1
   124   112   110   ar
   125   112   111   ar
   126   110   108   ar
   127    48    47    1
   128    46    47    2
   129    31    32    2
   130   111   109   ar
   131   108   109   ar
   132   108   107    1
   133    47    49    1
   134    20    19    2
   135    57    58    2
   136    29    25   am
   137    21    22    1
   138    21    18    1
   139    26    25    2
   140    25    24    1
   141    19    18    1
   142    19    23   am
   143    58    59    1
   144    58    60    1
   145    18    17    1
   146    27    24    1
   147    27    28    1
   148    24    23    1
