@<TRIPOS>MOLECULE
tmp/5f3wB00.pdb
 166 156 0 0 0
SMALL
GASTEIGER

@<TRIPOS>ATOM
      1  N        -29.8010   -8.8730  -40.3160 N.3    14  LYS14      -0.1231
      2  CA       -29.1630   -7.9910  -39.3440 C.3    14  LYS14       0.1693
      3  C        -30.1580   -6.9710  -38.8040 C.2    14  LYS14       0.2592
      4  O        -31.1110   -7.3400  -38.1120 O.2    14  LYS14      -0.2718
      5  CB       -27.9440   -7.3050  -39.9670 C.3    14  LYS14       0.0285
      6  CG       -26.8690   -8.2810  -40.4390 C.3    14  LYS14       0.0035
      7  CD       -25.7100   -7.5810  -41.1370 C.3    14  LYS14       0.0206
      8  CE       -24.7060   -7.0110  -40.1460 C.3    14  LYS14       0.1093
      9  NZ       -23.5140   -6.4240  -40.8220 N.3    14  LYS14      -0.1314
     10  N        -29.9560   -5.6900  -39.1170 N.am   15  SER15      -0.1952
     11  CA       -30.8570   -4.6550  -38.6220 C.3    15  SER15       0.1924
     12  C        -32.1190   -4.5160  -39.4650 C.2    15  SER15       0.2314
     13  O        -33.1100   -3.9600  -38.9810 O.2    15  SER15      -0.2863
     14  CB       -30.1330   -3.3070  -38.5550 C.3    15  SER15       0.2116
     15  OG       -29.7350   -2.8700  -39.8420 O.3    15  SER15      -0.2180
     16  N        -27.3500    7.5340  -40.5170 N.3    33  GLU33      -0.1231
     17  CA       -26.5520    7.6330  -39.3010 C.3    33  GLU33       0.1699
     18  C        -25.4390    6.5900  -39.3060 C.2    33  GLU33       0.2592
     19  O        -25.3290    5.7540  -40.2040 O.2    33  GLU33      -0.2718
     20  CB       -27.4210    7.4300  -38.0610 C.3    33  GLU33       0.0402
     21  CG       -28.4890    8.4670  -37.8200 C.3    33  GLU33       0.1161
     22  CD       -29.1510    8.2870  -36.4650 C.2    33  GLU33       0.3649
     23  OE1      -28.4310    8.3090  -35.4430 O.co2  33  GLU33      -0.2457
     24  OE2      -30.3860    8.1010  -36.4210 O.co2  33  GLU33      -0.2457
     25  N        -24.6130    6.6320  -38.2630 N.am   34  ASN34      -0.1960
     26  CA       -23.7260    5.5170  -37.9800 C.3    34  ASN34       0.1819
     27  C        -24.5490    4.3650  -37.4240 C.2    34  ASN34       0.2622
     28  O        -25.3460    4.5470  -36.4990 O.2    34  ASN34      -0.2715
     29  CB       -22.6400    5.9320  -36.9910 C.3    34  ASN34       0.1195
     30  CG       -21.6900    6.9520  -37.5690 C.2    34  ASN34       0.2630
     31  OD1      -21.2670    7.8790  -36.8800 O.2    34  ASN34      -0.2716
     32  ND2      -21.3510    6.7920  -38.8450 N.am   34  ASN34      -0.0877
     33  N        -24.3760    3.1780  -38.0050 N.am   35  GLY35      -0.1940
     34  CA       -25.2010    2.0510  -37.6280 C.3    35  GLY35       0.2014
     35  C        -26.6360    2.1340  -38.0920 C.2    35  GLY35       0.2640
     36  O        -27.4680    1.3580  -37.6170 O.2    35  GLY35      -0.2714
     37  N        -26.9550    3.0560  -39.0050 N.am   36  SER36      -0.1935
     38  CA       -28.3280    3.1700  -39.4870 C.3    36  SER36       0.2055
     39  C        -28.7230    1.9570  -40.3180 C.2    36  SER36       0.2644
     40  O        -29.8530    1.4690  -40.2120 O.2    36  SER36      -0.2714
     41  CB       -28.5010    4.4570  -40.2950 C.3    36  SER36       0.2130
     42  OG       -27.7310    4.4320  -41.4840 O.3    36  SER36      -0.2179
     43  N        -27.8080    1.4550  -41.1450 N.am   37  GLY37      -0.1939
     44  CA       -28.0700    0.2710  -41.9430 C.3    37  GLY37       0.2014
     45  C        -27.5470    0.3540  -43.3640 C.2    37  GLY37       0.2639
     46  O        -27.9690   -0.4160  -44.2300 O.2    37  GLY37      -0.2714
     47  N        -26.6160    1.2760  -43.6160 N.am   38  LYS38      -0.1963
     48  CA       -26.1320    1.4970  -44.9750 C.3    38  LYS38       0.1728
     49  C        -25.3300    0.3030  -45.4790 C.2    38  LYS38       0.2617
     50  O        -25.6580   -0.2890  -46.5140 O.2    38  LYS38      -0.2715
     51  CB       -25.2990    2.7800  -45.0280 C.3    38  LYS38       0.0311
     52  CG       -26.0740    4.0280  -44.6120 C.3    38  LYS38       0.0038
     53  CD       -25.2030    5.2770  -44.5990 C.3    38  LYS38       0.0206
     54  CE       -24.0540    5.1530  -43.6070 C.3    38  LYS38       0.1093
     55  NZ       -23.4940    6.4780  -43.2120 N.3    38  LYS38      -0.1314
     56  N        -24.2680   -0.0690  -44.7550 N.am   39  SER39      -0.1936
     57  CA       -23.4110   -1.1650  -45.1990 C.3    39  SER39       0.2055
     58  C        -24.1610   -2.4910  -45.2420 C.2    39  SER39       0.2643
     59  O        -23.9020   -3.3200  -46.1230 O.2    39  SER39      -0.2714
     60  CB       -22.1880   -1.2800  -44.2900 C.3    39  SER39       0.2130
     61  OG       -21.2320   -0.2770  -44.5870 O.3    39  SER39      -0.2179
     62  N        -25.0980   -2.7040  -44.3150 N.am   40  SER40      -0.1949
     63  CA       -25.8560   -3.9490  -44.2870 C.3    40  SER40       0.1924
     64  C        -26.5770   -4.2220  -45.5970 C.2    40  SER40       0.2314
     65  O        -26.8620   -5.3830  -45.9010 O.2    40  SER40      -0.2863
     66  CB       -26.8670   -3.9260  -43.1410 C.3    40  SER40       0.2116
     67  OG       -26.2100   -3.8340  -41.8930 O.3    40  SER40      -0.2180
     68  N        -23.9310   -6.0480  -47.4960 N.3    43  GLU43      -0.1245
     69  CA       -23.7160   -7.3660  -46.9120 C.3    43  GLU43       0.1567
     70  C        -24.7430   -8.3570  -47.4380 C.2    43  GLU43       0.2260
     71  O        -24.4440   -9.5480  -47.5830 O.2    43  GLU43      -0.2867
     72  CB       -23.7830   -7.2840  -45.3860 C.3    43  GLU43       0.0388
     73  CG       -22.9000   -6.2030  -44.7710 C.3    43  GLU43       0.1160
     74  CD       -21.4630   -6.6490  -44.5920 C.2    43  GLU43       0.3649
     75  OE1      -21.1990   -7.4530  -43.6720 O.co2  43  GLU43      -0.2457
     76  OE2      -20.5980   -6.2000  -45.3730 O.co2  43  GLU43      -0.2457
     77  N        -25.4120  -16.7410  -37.3560 N.3    59  ASP59      -0.1225
     78  CA       -25.6010  -15.9550  -36.1400 C.3    59  ASP59       0.1805
     79  C        -25.0930  -14.5300  -36.3140 C.2    59  ASP59       0.2598
     80  O        -25.5630  -13.6130  -35.6300 O.2    59  ASP59      -0.2718
     81  CB       -24.8950  -16.6310  -34.9650 C.3    59  ASP59       0.1424
     82  CG       -25.1140  -15.9030  -33.6530 C.2    59  ASP59       0.3668
     83  OD1      -26.2840  -15.6280  -33.3130 O.co2  59  ASP59      -0.2456
     84  OD2      -24.1150  -15.6010  -32.9650 O.co2  59  ASP59      -0.2456
     85  N        -24.1420  -14.3230  -37.2260 N.am   60  THR60      -0.1953
     86  CA       -23.6590  -12.9760  -37.5020 C.3    60  THR60       0.1897
     87  C        -24.6770  -12.1780  -38.3100 C.2    60  THR60       0.2313
     88  O        -24.8530  -10.9760  -38.0830 O.2    60  THR60      -0.2863
     89  CB       -22.3180  -13.0470  -38.2380 C.3    60  THR60       0.1794
     90  OG1      -21.3250  -13.6080  -37.3700 O.3    60  THR60      -0.2208
     91  CG2      -21.8660  -11.6680  -38.7010 C.3    60  THR60       0.0378
     92  N        -28.1520  -13.2150  -39.1390 N.3    62  ILE62      -0.1231
     93  CA       -29.5590  -13.2190  -38.7600 C.3    62  ILE62       0.1692
     94  C        -29.8040  -12.0740  -37.7880 C.2    62  ILE62       0.2593
     95  O        -28.9300  -11.7040  -36.9920 O.2    62  ILE62      -0.2718
     96  CB       -29.9970  -14.5630  -38.1460 C.3    62  ILE62       0.0266
     97  CG1      -29.2000  -14.8740  -36.8730 C.3    62  ILE62       0.0019
     98  CG2      -29.8850  -15.6910  -39.1600 C.3    62  ILE62       0.0020
     99  CD1      -29.9700  -14.6450  -35.5870 C.3    62  ILE62       0.0001
    100  N        -30.9950  -11.4870  -37.8690 N.am   63  THR63      -0.1939
    101  CA       -31.4210  -10.5410  -36.8470 C.3    63  THR63       0.2028
    102  C        -31.3780  -11.2230  -35.4900 C.2    63  THR63       0.2642
    103  O        -32.0520  -12.2360  -35.2780 O.2    63  THR63      -0.2714
    104  CB       -32.8250  -10.0320  -37.1500 C.3    63  THR63       0.1808
    105  OG1      -32.7890   -9.2100  -38.3210 O.3    63  THR63      -0.2208
    106  CG2      -33.3560   -9.2220  -35.9830 C.3    63  THR63       0.0379
    107  N        -30.5830  -10.6590  -34.5740 N.am   64  LYS64      -0.1977
    108  CA       -30.2080  -11.3570  -33.3470 C.3    64  LYS64       0.1596
    109  C        -31.4100  -11.9220  -32.6000 C.2    64  LYS64       0.2287
    110  O        -31.2770  -12.9160  -31.8770 O.2    64  LYS64      -0.2864
    111  CB       -29.4100  -10.4150  -32.4450 C.3    64  LYS64       0.0298
    112  CG       -28.0320  -10.9410  -32.0610 C.3    64  LYS64       0.0038
    113  CD       -27.5550  -12.0230  -33.0230 C.3    64  LYS64       0.0206
    114  CE       -26.1350  -12.4590  -32.7100 C.3    64  LYS64       0.1093
    115  NZ       -25.1500  -11.3930  -33.0370 N.3    64  LYS64      -0.1314
    116  N        -14.6880   -0.3610  -46.7160 N.3   134  GLN134     -0.1245
    117  CA       -14.1400    0.8090  -46.0390 C.3   134  GLN134      0.1566
    118  C        -12.6160    0.7800  -46.0260 C.2   134  GLN134      0.2260
    119  O        -12.0040   -0.2050  -45.6020 O.2   134  GLN134     -0.2867
    120  CB       -14.6690    0.8830  -44.6080 C.3   134  GLN134      0.0367
    121  CG       -16.1720    1.0770  -44.5030 C.3   134  GLN134      0.0905
    122  CD       -16.6390    1.2300  -43.0680 C.2   134  GLN134      0.2608
    123  OE1      -15.8300    1.2720  -42.1400 O.2   134  GLN134     -0.2717
    124  NE2      -17.9510    1.3140  -42.8780 N.am  134  GLN134     -0.0878
    125  N        -17.8900    2.2150  -50.4510 N.3   300  ASP300     -0.1225
    126  CA       -18.3630    2.4180  -49.0830 C.3   300  ASP300      0.1805
    127  C        -17.4920    3.4880  -48.4320 C.2   300  ASP300      0.2597
    128  O        -16.3530    3.2180  -48.0370 O.2   300  ASP300     -0.2718
    129  CB       -18.3320    1.1160  -48.2900 C.3   300  ASP300      0.1424
    130  CG       -19.1890    1.1720  -47.0350 C.2   300  ASP300      0.3668
    131  OD1      -19.5650    2.2870  -46.6140 O.co2 300  ASP300     -0.2456
    132  OD2      -19.4870    0.1000  -46.4680 O.co2 300  ASP300     -0.2456
    133  N        -18.0370    4.7040  -48.3280 N.am  301  GLU301     -0.1979
    134  CA       -17.4200    5.8450  -47.6580 C.3   301  GLU301      0.1602
    135  C        -16.0210    6.1340  -48.1920 C.2   301  GLU301      0.2287
    136  O        -15.0330    5.9740  -47.4650 O.2   301  GLU301     -0.2864
    137  CB       -17.3810    5.6100  -46.1470 C.3   301  GLU301      0.0415
    138  CG       -18.7550    5.3910  -45.5360 C.3   301  GLU301      0.1163
    139  CD       -18.7260    5.3350  -44.0230 C.2   301  GLU301      0.3649
    140  OE1      -17.6250    5.4370  -43.4420 O.co2 301  GLU301     -0.2457
    141  OE2      -19.8060    5.1900  -43.4130 O.co2 301  GLU301     -0.2457
    142  N        -21.7710    5.0860  -50.6090 N.3   330  ILE330     -0.1245
    143  CA       -22.2480    5.2980  -49.2480 C.3   330  ILE330      0.1561
    144  C        -21.4140    6.4070  -48.6280 C.2   330  ILE330      0.2260
    145  O        -20.1970    6.4630  -48.8370 O.2   330  ILE330     -0.2867
    146  CB       -22.1500    4.0100  -48.4070 C.3   330  ILE330      0.0252
    147  CG1      -23.0120    2.8980  -49.0010 C.3   330  ILE330      0.0019
    148  CG2      -22.5410    4.2750  -46.9610 C.3   330  ILE330      0.0019
    149  CD1      -23.0440    1.6600  -48.1370 C.3   330  ILE330      0.0001
    150  N        -32.9720    4.5390  -38.8330 N.3   348  LYS348     -0.1245
    151  CA       -33.1520    3.3980  -37.9460 C.3   348  LYS348      0.1561
    152  C        -34.0280    3.7970  -36.7700 C.2   348  LYS348      0.2260
    153  O        -33.7340    4.7730  -36.0730 O.2   348  LYS348     -0.2867
    154  CB       -31.8100    2.8510  -37.4420 C.3   348  LYS348      0.0271
    155  CG       -31.9480    1.5610  -36.6340 C.3   348  LYS348      0.0035
    156  CD       -30.6100    0.8740  -36.3950 C.3   348  LYS348      0.0206
    157  CE       -29.7740    1.6060  -35.3610 C.3   348  LYS348      0.1093
    158  NZ       -28.5490    0.8380  -35.0070 N.3   348  LYS348     -0.1314
    159  N        -33.5610   -0.2650  -33.2710 N.3   351  ASN351     -0.1240
    160  CA       -32.6630   -1.3000  -33.7650 C.3   351  ASN351      0.1653
    161  C        -33.1120   -1.8700  -35.1040 C.2   351  ASN351      0.2266
    162  O        -32.4960   -2.8230  -35.5960 O.2   351  ASN351     -0.2867
    163  CB       -32.5250   -2.4220  -32.7310 C.3   351  ASN351      0.1155
    164  CG       -32.0110   -1.9190  -31.3950 C.2   351  ASN351      0.2627
    165  OD1      -30.8180   -2.0040  -31.1040 O.2   351  ASN351     -0.2716
    166  ND2      -32.9110   -1.3810  -30.5800 N.am  351  ASN351     -0.0877
@<TRIPOS>BOND
     1   142   143    1
     2   125   126    1
     3   143   144    1
     4   143   146    1
     5   126   127    1
     6   126   129    1
     7   147   146    1
     8   147   149    1
     9   145   144    2
    10   127   133   am
    11   127   128    2
    12   146   148    1
    13   133   134    1
    14   129   130    1
    15   135   134    1
    16   135   136    2
    17   134   137    1
    18    71    70    2
    19    68    69    1
    20    70    69    1
    21   130   131   ar
    22   130   132   ar
    23    69    72    1
    24   116   117    1
    25    50    49    2
    26   137   138    1
    27    59    58    2
    28   117   118    1
    29   117   120    1
    30   118   119    2
    31    65    64    2
    32    64    63    1
    33   138   139    1
    34    49    48    1
    35    49    56   am
    36    72    73    1
    37    76    74   ar
    38    58    57    1
    39    58    62   am
    40    57    56    1
    41    57    60    1
    42    51    48    1
    43    51    52    1
    44    48    47    1
    45    73    74    1
    46    52    53    1
    47   120   121    1
    48    53    54    1
    49    74    75   ar
    50    61    60    1
    51   121   122    1
    52    62    63    1
    53    63    66    1
    54    46    45    2
    55   139   140   ar
    56   139   141   ar
    57    47    45   am
    58    54    55    1
    59    45    44    1
    60    66    67    1
    61   122   124   am
    62   122   123    2
    63    44    43    1
    64    42    41    1
    65    43    39   am
    66     7     6    1
    67     7     8    1
    68     9     8    1
    69    16    17    1
    70     6     5    1
    71    39    40    2
    72    39    38    1
    73     1     2    1
    74    41    38    1
    75    19    18    2
    76     5     2    1
    77    15    14    1
    78    38    37    1
    79    12    13    2
    80    12    11    1
    81     2     3    1
    82    18    17    1
    83    18    25   am
    84    17    20    1
    85    98    96    1
    86    92    93    1
    87    10     3   am
    88    10    11    1
    89    37    35   am
    90    32    30   am
    91   150   151    1
    92     3     4    2
    93    93    96    1
    94    93    94    1
    95    91    89    1
    96    11    14    1
    97   105   104    1
    98    87    88    2
    99    87    86    1
   100    25    26    1
   101    89    86    1
   102    89    90    1
   103    96    97    1
   104    35    34    1
   105    35    36    2
   106    20    21    1
   107    33    34    1
   108    33    27   am
   109    26    27    1
   110    26    29    1
   111   151   154    1
   112   151   152    1
   113   100    94   am
   114   100   101    1
   115    21    22    1
   116    94    95    2
   117    30    29    1
   118    30    31    2
   119    86    85    1
   120   154   155    1
   121    27    28    2
   122    77    78    1
   123    85    79   am
   124   104   101    1
   125   104   106    1
   126    97    99    1
   127   101   102    1
   128   152   153    2
   129   155   156    1
   130    22    24   ar
   131    22    23   ar
   132   156   157    1
   133    79    78    1
   134    79    80    2
   135    78    81    1
   136   162   161    2
   137   102   103    2
   138   102   107   am
   139   157   158    1
   140   161   160    1
   141    81    82    1
   142   107   108    1
   143   160   159    1
   144   160   163    1
   145    82    83   ar
   146    82    84   ar
   147   108   109    1
   148   108   111    1
   149   115   114    1
   150   113   114    1
   151   113   112    1
   152   163   164    1
   153   109   110    2
   154   111   112    1
   155   164   165    2
   156   164   166   am
