@<TRIPOS>MOLECULE
tmp/5f3yA00.pdb
 210 202 0 0 0
SMALL
GASTEIGER

@<TRIPOS>ATOM
      1  N        -19.4780   48.4830    0.0140 N.3   218  GLN218     -0.1245
      2  CA       -19.4010   49.5950    0.9530 C.3   218  GLN218      0.1566
      3  C        -18.3390   49.3390    2.0230 C.2   218  GLN218      0.2260
      4  O        -18.0640   48.1950    2.3840 O.2   218  GLN218     -0.2867
      5  CB       -20.7630   49.8480    1.6020 C.3   218  GLN218      0.0367
      6  CG       -21.9060   49.6350    0.6160 C.3   218  GLN218      0.0905
      7  CD       -22.1640   50.8970   -0.2060 C.2   218  GLN218      0.2608
      8  OE1      -22.0220   52.0050    0.3320 O.2   218  GLN218     -0.2717
      9  NE2      -22.5320   50.7210   -1.4770 N.am  218  GLN218     -0.0878
     10  N        -16.9420   50.6630    5.8800 N.3   220  ALA220     -0.1245
     11  CA       -17.4150   51.3190    7.0970 C.3   220  ALA220      0.1562
     12  C        -16.3490   51.2540    8.1740 C.2   220  ALA220      0.2260
     13  O        -15.8090   50.1770    8.4500 O.2   220  ALA220     -0.2867
     14  CB       -18.7070   50.6830    7.6220 C.3   220  ALA220      0.0290
     15  N        -17.8660   54.8890   12.6810 N.3   223  ASP223     -0.1225
     16  CA       -19.1100   55.6530   12.5320 C.3   223  ASP223      0.1805
     17  C        -19.0650   56.5710   11.3070 C.2   223  ASP223      0.2598
     18  O        -19.5860   57.6880   11.3250 O.2   223  ASP223     -0.2718
     19  CB       -19.4290   56.4580   13.7970 C.3   223  ASP223      0.1424
     20  CG       -20.1470   55.7100   14.8660 C.2   223  ASP223      0.3668
     21  OD1      -20.5310   54.5760   14.6810 O.co2 223  ASP223     -0.2456
     22  OD2      -20.3670   56.3840   15.9530 O.co2 223  ASP223     -0.2456
     23  N        -18.4320   56.0860   10.2370 N.am  224  LYS224     -0.1966
     24  CA       -18.3780   56.7350    8.9320 C.3   224  LYS224      0.1728
     25  C        -18.2600   55.6360    7.8800 C.2   224  LYS224      0.2616
     26  O        -17.7200   54.5690    8.1570 O.2   224  LYS224     -0.2715
     27  CB       -17.1890   57.7130    8.8360 C.3   224  LYS224      0.0311
     28  CG       -17.3110   58.6540    7.6540 C.3   224  LYS224      0.0038
     29  CD       -16.2050   59.7000    7.6940 C.3   224  LYS224      0.0206
     30  CE       -16.3710   60.6570    6.5260 C.3   224  LYS224      0.1093
     31  NZ       -16.2680   59.9470    5.2670 N.3   224  LYS224     -0.1314
     32  N        -18.7910   55.8770    6.6800 N.am  225  PHE225     -0.1960
     33  CA       -18.7200   54.8550    5.6360 C.3   225  PHE225      0.1771
     34  C        -18.8530   55.5160    4.2720 C.2   225  PHE225      0.2619
     35  O        -19.3690   56.6290    4.1540 O.2   225  PHE225     -0.2715
     36  CB       -19.8140   53.7920    5.8100 C.3   225  PHE225      0.0574
     37  CG       -21.0850   54.0770    5.0380 C.ar  225  PHE225     -0.0200
     38  CD1      -21.9580   55.0730    5.4400 C.ar  225  PHE225     -0.0042
     39  CD2      -21.4170   53.3160    3.9210 C.ar  225  PHE225     -0.0042
     40  CE1      -23.1240   55.3150    4.7310 C.ar  225  PHE225     -0.0003
     41  CE2      -22.5800   53.5570    3.2080 C.ar  225  PHE225     -0.0003
     42  CZ       -23.4330   54.5550    3.6140 C.ar  225  PHE225     -0.0000
     43  N        -18.4240   54.8020    3.2320 N.am  226  TRP226     -0.1974
     44  CA       -18.6200   55.2840    1.8710 C.3   226  TRP226      0.1640
     45  C        -18.6650   54.0710    0.9580 C.2   226  TRP226      0.2290
     46  O        -18.4640   52.9390    1.4000 O.2   226  TRP226     -0.2864
     47  CB       -17.5230   56.2530    1.4360 C.3   226  TRP226      0.0576
     48  CG       -16.1690   55.6790    1.4980 C.ar  226  TRP226      0.0006
     49  CD1      -15.5160   55.0430    0.4930 C.ar  226  TRP226      0.0946
     50  CD2      -15.3270   55.5950    2.6420 C.ar  226  TRP226      0.0152
     51  NE1      -14.2890   54.6170    0.9230 N.ar  226  TRP226     -0.2442
     52  CE2      -14.1570   54.9350    2.2480 C.ar  226  TRP226      0.0810
     53  CE3      -15.4420   56.0260    3.9570 C.ar  226  TRP226      0.0012
     54  CZ2      -13.1140   54.6980    3.1220 C.ar  226  TRP226      0.0191
     55  CZ3      -14.4130   55.7900    4.8150 C.ar  226  TRP226      0.0001
     56  CH2      -13.2640   55.1340    4.4020 C.ar  226  TRP226      0.0015
     57  N         -7.3380   55.2140    3.1530 N.3   241  GLN241     -0.1245
     58  CA        -8.1370   56.3090    3.6860 C.3   241  GLN241      0.1566
     59  C         -8.5300   56.0360    5.1350 C.2   241  GLN241      0.2260
     60  O         -8.3950   56.9090    6.0000 O.2   241  GLN241     -0.2867
     61  CB        -9.3730   56.5330    2.8080 C.3   241  GLN241      0.0367
     62  CG        -9.1070   57.3470    1.5710 C.3   241  GLN241      0.0905
     63  CD       -10.3470   57.4850    0.7080 C.2   241  GLN241      0.2608
     64  OE1      -10.5510   58.5100    0.0520 O.2   241  GLN241     -0.2717
     65  NE2      -11.1860   56.4470    0.6940 N.am  241  GLN241     -0.0878
     66  N        -14.4850   47.5870    7.9660 N.3   259  ARG259     -0.1245
     67  CA       -15.1860   46.4160    7.4720 C.3   259  ARG259      0.1563
     68  C        -15.7470   46.7190    6.0960 C.2   259  ARG259      0.2260
     69  O        -16.0200   47.8760    5.7590 O.2   259  ARG259     -0.2867
     70  CB       -16.2840   46.0120    8.4650 C.3   259  ARG259      0.0307
     71  CG       -16.9370   47.2380    9.0800 C.3   259  ARG259      0.0489
     72  CD       -17.1950   47.1110   10.5830 C.3   259  ARG259      0.2205
     73  NE       -17.4040   48.4340   11.1770 N.pl3 259  ARG259     -0.0865
     74  CZ       -18.5270   49.1450   11.0930 C.cat 259  ARG259      0.5346
     75  NH1      -19.5810   48.6790   10.4330 N.pl3 259  ARG259      0.1354
     76  NH2      -18.5910   50.3400   11.6660 N.pl3 259  ARG259      0.1354
     77  N        -18.7370   45.6060    3.3740 N.3   261  TYR261     -0.1241
     78  CA       -20.0390   44.9990    3.1450 C.3   261  TYR261      0.1605
     79  C        -20.2770   44.8470    1.6480 C.2   261  TYR261      0.2264
     80  O        -19.8350   45.6770    0.8460 O.2   261  TYR261     -0.2867
     81  CB       -21.1610   45.8540    3.7450 C.3   261  TYR261      0.0534
     82  CG       -21.1240   46.0040    5.2510 C.ar  261  TYR261     -0.0201
     83  CD1      -20.2900   45.2230    6.0280 C.ar  261  TYR261     -0.0009
     84  CD2      -21.8900   46.9710    5.8880 C.ar  261  TYR261     -0.0009
     85  CE1      -20.2430   45.3740    7.3950 C.ar  261  TYR261      0.0417
     86  CE2      -21.8480   47.1330    7.2540 C.ar  261  TYR261      0.0417
     87  CZ       -21.0200   46.3300    8.0060 C.ar  261  TYR261      0.1957
     88  OH       -20.9650   46.4740    9.3760 O.3   261  TYR261     -0.2866
     89  N        -23.3920   45.0310   -0.6100 N.3   263  ARG263     -0.1245
     90  CA       -24.7030   45.6160   -0.3610 C.3   263  ARG263      0.1563
     91  C        -25.3830   45.9990   -1.6790 C.2   263  ARG263      0.2260
     92  O        -24.7140   46.2060   -2.6930 O.2   263  ARG263     -0.2867
     93  CB       -24.5310   46.8150    0.6090 C.3   263  ARG263      0.0307
     94  CG       -25.4730   47.9820    0.3990 C.3   263  ARG263      0.0489
     95  CD       -25.5960   48.9230    1.5880 C.3   263  ARG263      0.2205
     96  NE       -26.3590   48.2720    2.6510 N.pl3 263  ARG263     -0.0865
     97  CZ       -27.0680   48.9120    3.5770 C.cat 263  ARG263      0.5346
     98  NH1      -27.1230   50.2410    3.5850 N.pl3 263  ARG263      0.1354
     99  NH2      -27.7270   48.2160    4.4960 N.pl3 263  ARG263      0.1354
    100  N        -33.2230   48.2800   11.7040 N.3   293  SER293     -0.1202
    101  CA       -32.3510   49.3770   12.1090 C.3   293  SER293      0.2020
    102  C        -33.0280   50.7370   12.0290 C.2   293  SER293      0.2619
    103  O        -32.6490   51.6560   12.7620 O.2   293  SER293     -0.2717
    104  CB       -31.0930   49.3890   11.2450 C.3   293  SER293      0.2103
    105  OG       -31.3860   49.8130    9.9240 O.3   293  SER293     -0.2182
    106  N        -33.9930   50.9060   11.1360 N.am  294  GLY294     -0.1942
    107  CA       -34.5300   52.2170   10.8490 C.3   294  GLY294      0.2014
    108  C        -33.9110   52.9060    9.6540 C.2   294  GLY294      0.2638
    109  O        -34.2600   54.0630    9.3820 O.2   294  GLY294     -0.2714
    110  N        -32.9880   52.2430    8.9500 N.am  295  GLU295     -0.1977
    111  CA       -32.5010   52.7690    7.6810 C.3   295  GLU295      0.1602
    112  C        -33.6660   53.0180    6.7460 C.2   295  GLU295      0.2287
    113  O        -33.9400   54.1580    6.3580 O.2   295  GLU295     -0.2864
    114  CB       -31.4910   51.8160    7.0440 C.3   295  GLU295      0.0415
    115  CG       -31.0010   52.2980    5.6810 C.3   295  GLU295      0.1163
    116  CD       -29.8590   51.4560    5.1200 C.2   295  GLU295      0.3649
    117  OE1      -29.6640   50.3210    5.6080 O.co2 295  GLU295     -0.2457
    118  OE2      -29.1500   51.9340    4.1990 O.co2 295  GLU295     -0.2457
    119  N        -35.0740   56.8270   -3.0590 N.3   381  LEU381     -0.1231
    120  CA       -33.9090   57.6380   -2.7300 C.3   381  LEU381      0.1693
    121  C        -32.8810   56.8820   -1.8970 C.2   381  LEU381      0.2591
    122  O        -31.6790   57.1360   -2.0250 O.2   381  LEU381     -0.2718
    123  CB       -34.3280   58.9020   -1.9960 C.3   381  LEU381      0.0284
    124  CG       -34.8540   60.0380   -2.8580 C.3   381  LEU381      0.0019
    125  CD1      -35.1920   61.2100   -1.9650 C.3   381  LEU381      0.0001
    126  CD2      -33.8320   60.4430   -3.8860 C.3   381  LEU381      0.0001
    127  N        -33.3120   55.9710   -1.0290 N.am  382  LEU382     -0.1980
    128  CA       -32.3410   55.2650   -0.2070 C.3   382  LEU382      0.1596
    129  C        -31.5780   54.2230   -1.0090 C.2   382  LEU382      0.2287
    130  O        -30.4720   53.8440   -0.6180 O.2   382  LEU382     -0.2864
    131  CB       -33.0330   54.6070    0.9790 C.3   382  LEU382      0.0297
    132  CG       -33.5470   55.5750    2.0470 C.3   382  LEU382      0.0022
    133  CD1      -34.8740   56.2220    1.6610 C.3   382  LEU382      0.0001
    134  CD2      -33.6830   54.8550    3.3560 C.3   382  LEU382      0.0001
    135  N        -25.3580   58.0920   -4.6780 N.3   386  LEU386     -0.1231
    136  CA       -25.1980   59.5100   -4.3770 C.3   386  LEU386      0.1693
    137  C        -23.8410   60.0620   -4.8040 C.2   386  LEU386      0.2592
    138  O        -22.8030   59.4170   -4.6320 O.2   386  LEU386     -0.2718
    139  CB       -25.4090   59.7600   -2.8860 C.3   386  LEU386      0.0284
    140  CG       -26.7410   59.2920   -2.3120 C.3   386  LEU386      0.0019
    141  CD1      -26.6090   57.9000   -1.7190 C.3   386  LEU386      0.0001
    142  CD2      -27.2010   60.2750   -1.2510 C.3   386  LEU386      0.0001
    143  N        -23.8710   61.2860   -5.3210 N.am  387  PHE387     -0.1962
    144  CA       -22.7240   62.0220   -5.8090 C.3   387  PHE387      0.1771
    145  C        -22.8050   63.4400   -5.2790 C.2   387  PHE387      0.2619
    146  O        -23.8910   63.9500   -4.9980 O.2   387  PHE387     -0.2715
    147  CB       -22.7730   62.1120   -7.3250 C.3   387  PHE387      0.0574
    148  CG       -22.6800   60.8060   -8.0190 C.ar  387  PHE387     -0.0200
    149  CD1      -21.6110   59.9700   -7.8150 C.ar  387  PHE387     -0.0042
    150  CD2      -23.7240   60.3680   -8.8040 C.ar  387  PHE387     -0.0042
    151  CE1      -21.5360   58.7630   -8.4610 C.ar  387  PHE387     -0.0003
    152  CE2      -23.6610   59.1590   -9.4280 C.ar  387  PHE387     -0.0003
    153  CZ       -22.5590   58.3530   -9.2580 C.ar  387  PHE387     -0.0000
    154  N        -21.6670   64.1180   -5.2270 N.am  388  GLU388     -0.1977
    155  CA       -21.6400   65.4960   -4.7690 C.3   388  GLU388      0.1602
    156  C        -21.4280   66.2980   -6.0370 C.2   388  GLU388      0.2287
    157  O        -20.5180   65.9960   -6.8110 O.2   388  GLU388     -0.2864
    158  CB       -20.5340   65.7500   -3.7410 C.3   388  GLU388      0.0415
    159  CG       -20.4500   67.1700   -3.2210 C.3   388  GLU388      0.1163
    160  CD       -21.5000   67.4940   -2.1800 C.2   388  GLU388      0.3649
    161  OE1      -22.3470   66.6280   -1.8790 O.co2 388  GLU388     -0.2457
    162  OE2      -21.4800   68.6260   -1.6500 O.co2 388  GLU388     -0.2457
    163  N        -26.3540   67.4460   -3.9060 N.3   403  VAL403     -0.1245
    164  CA       -26.1320   65.9980   -3.8910 C.3   403  VAL403      0.1561
    165  C        -27.0430   65.3430   -4.9210 C.2   403  VAL403      0.2260
    166  O        -28.2590   65.2920   -4.7280 O.2   403  VAL403     -0.2867
    167  CB       -26.3940   65.4010   -2.5010 C.3   403  VAL403      0.0252
    168  CG1      -26.4300   63.8790   -2.5590 C.3   403  VAL403      0.0019
    169  CG2      -25.3430   65.8670   -1.5270 C.3   403  VAL403      0.0019
    170  N        -30.4830   66.9800   -4.6580 N.3   414  LEU414     -0.1231
    171  CA       -30.7710   66.9860   -3.2290 C.3   414  LEU414      0.1693
    172  C        -30.1490   68.1740   -2.5170 C.2   414  LEU414      0.2592
    173  O        -28.9340   68.4080   -2.6190 O.2   414  LEU414     -0.2718
    174  CB       -30.2900   65.7010   -2.5590 C.3   414  LEU414      0.0284
    175  CG       -31.0830   64.4580   -2.9180 C.3   414  LEU414      0.0019
    176  CD1      -30.6400   63.2900   -2.0690 C.3   414  LEU414      0.0001
    177  CD2      -32.5330   64.7530   -2.6610 C.3   414  LEU414      0.0001
    178  N        -31.0010   68.8820   -1.7730 N.am  415  ASP415     -0.1960
    179  CA       -30.6070   69.9010   -0.8070 C.3   415  ASP415      0.1840
    180  C        -29.5750   69.3390    0.1620 C.2   415  ASP415      0.2621
    181  O        -29.6730   68.1840    0.5770 O.2   415  ASP415     -0.2715
    182  CB       -31.8660   70.3070   -0.0320 C.3   415  ASP415      0.1450
    183  CG       -31.8630   71.7220    0.4290 C.2   415  ASP415      0.3671
    184  OD1      -30.9340   72.4690    0.0630 O.co2 415  ASP415     -0.2456
    185  OD2      -32.8330   72.0850    1.1350 O.co2 415  ASP415     -0.2456
    186  N        -28.5970   70.1670    0.5510 N.am  416  GLN416     -0.1977
    187  CA       -27.6950   69.7700    1.6310 C.3   416  GLN416      0.1601
    188  C        -28.4530   69.4120    2.9090 C.2   416  GLN416      0.2287
    189  O        -27.9270   68.6600    3.7380 O.2   416  GLN416     -0.2864
    190  CB       -26.6770   70.8750    1.9050 C.3   416  GLN416      0.0394
    191  CG       -25.6540   71.1060    0.7880 C.3   416  GLN416      0.0908
    192  CD       -24.6830   69.9320    0.6060 C.2   416  GLN416      0.2608
    193  OE1      -23.9750   69.5360    1.5430 O.2   416  GLN416     -0.2717
    194  NE2      -24.6520   69.3720   -0.5970 N.am  416  GLN416     -0.0878
    195  N        -31.3700   67.8470    2.6400 N.3   418  GLU418     -0.1245
    196  CA       -32.0230   66.6230    2.1570 C.3   418  GLU418      0.1567
    197  C        -33.3650   66.8190    1.4440 C.2   418  GLU418      0.2260
    198  O        -33.9370   65.8130    1.0030 O.2   418  GLU418     -0.2867
    199  CB       -32.2160   65.5800    3.2760 C.3   418  GLU418      0.0388
    200  CG       -30.9520   64.8480    3.6750 C.3   418  GLU418      0.1160
    201  CD       -30.3160   64.0020    2.6090 C.2   418  GLU418      0.3649
    202  OE1      -31.0370   63.7930    1.5780 O.co2 418  GLU418     -0.2457
    203  OE2      -29.1890   63.5340    2.7830 O.co2 418  GLU418     -0.2457
    204  N        -16.6380   65.9970   -8.9430 N.3   452  PRO452     -0.2116
    205  CA       -15.4830   65.1340   -9.2080 C.3   452  PRO452      0.1372
    206  C        -15.8870   63.8580   -9.9220 C.2   452  PRO452      0.2244
    207  O        -15.1440   63.3900  -10.7930 O.2   452  PRO452     -0.2868
    208  CB       -14.9300   64.8510   -7.8090 C.3   452  PRO452      0.0268
    209  CG       -16.1080   64.9720   -6.9200 C.3   452  PRO452      0.0207
    210  CD       -16.9220   66.0990   -7.5030 C.3   452  PRO452      0.0892
@<TRIPOS>BOND
     1   207   206    2
     2   206   205    1
     3   152   153   ar
     4   152   150   ar
     5   153   151   ar
     6   205   204    1
     7   205   208    1
     8   204   210    1
     9   150   148   ar
    10   151   149   ar
    11   148   149   ar
    12   148   147    1
    13   208   209    1
    14   210   209    1
    15   147   144    1
    16   157   156    2
    17   156   155    1
    18   144   143    1
    19   144   145    1
    20   143   137   am
    21   145   154   am
    22   145   146    2
    23   154   155    1
    24   165   166    2
    25   165   164    1
    26   137   138    2
    27   137   136    1
    28   155   158    1
    29   135   136    1
    30   170   171    1
    31   136   139    1
    32   163   164    1
    33   164   167    1
    34   126   124    1
    35   158   159    1
    36   171   174    1
    37   171   172    1
    38   159   160    1
    39   119   120    1
    40   175   177    1
    41   175   174    1
    42   175   176    1
    43   139   140    1
    44   124   123    1
    45   124   125    1
    46   120   123    1
    47   120   121    1
    48    92    91    2
    49   173   172    2
    50   168   167    1
    51   172   178   am
    52   167   169    1
    53   140   141    1
    54   140   142    1
    55   160   161   ar
    56   160   162   ar
    57   122   121    2
    58   121   127   am
    59   178   179    1
    60    91    90    1
    61     9     7   am
    62   127   128    1
    63   129   130    2
    64   129   128    1
    65   179   182    1
    66   179   180    1
    67    89    90    1
    68   194   192   am
    69    90    93    1
    70   128   131    1
    71     7     8    2
    72     7     6    1
    73   182   183    1
    74     1     2    1
    75    64    63    2
    76   184   183   ar
    77   180   186   am
    78   180   181    2
    79    94    93    1
    80    94    95    1
    81   183   185   ar
    82    49    51   ar
    83    49    48   ar
    84   186   187    1
    85   192   191    1
    86   192   193    2
    87     6     5    1
    88    65    63   am
    89    63    62    1
    90   191   190    1
    91    80    79    2
    92    51    52   ar
    93     2     5    1
    94     2     3    1
    95    45    46    2
    96    45    44    1
    97   131   132    1
    98   198   197    2
    99    47    48    1
   100    47    44    1
   101   197   196    1
   102    48    50   ar
   103    62    61    1
   104   202   201   ar
   105    95    96    1
   106   187   190    1
   107   187   188    1
   108    79    78    1
   109   133   132    1
   110    44    43    1
   111     3     4    2
   112   132   134    1
   113   196   195    1
   114   196   199    1
   115    52    50   ar
   116    52    54   ar
   117   201   203   ar
   118   201   200    1
   119    50    53   ar
   120    96    97    2
   121    61    58    1
   122   188   189    2
   123    54    56   ar
   124    78    77    1
   125    78    81    1
   126    57    58    1
   127    41    42   ar
   128    41    39   ar
   129    43    34   am
   130   199   200    1
   131    97    98    1
   132    97    99    1
   133    42    40   ar
   134    58    59    1
   135    81    82    1
   136    39    37   ar
   137    53    55   ar
   138    35    34    2
   139   118   116   ar
   140    34    33    1
   141    56    55   ar
   142    40    38   ar
   143    37    38   ar
   144    37    36    1
   145   116   117   ar
   146   116   115    1
   147    59    60    2
   148    82    84   ar
   149    82    83   ar
   150    31    30    1
   151    33    36    1
   152    33    32    1
   153   115   114    1
   154    69    68    2
   155    10    11    1
   156    84    86   ar
   157    83    85   ar
   158    68    67    1
   159   113   112    2
   160    30    29    1
   161    32    25   am
   162   112   111    1
   163   114   111    1
   164    11    14    1
   165    11    12    1
   166    86    87   ar
   167    85    87   ar
   168    67    66    1
   169    67    70    1
   170    28    29    1
   171    28    27    1
   172   111   110    1
   173    25    26    2
   174    25    24    1
   175    87    88    1
   176    12    13    2
   177    70    71    1
   178    27    24    1
   179    24    23    1
   180   110   108   am
   181    71    72    1
   182   109   108    2
   183   108   107    1
   184   105   104    1
   185    23    17   am
   186    75    74    1
   187    72    73    1
   188   107   106    1
   189    74    73    2
   190    74    76    1
   191   106   102   am
   192   104   101    1
   193    17    18    2
   194    17    16    1
   195   100   101    1
   196   102   101    1
   197   102   103    2
   198    16    15    1
   199    16    19    1
   200    19    20    1
   201    21    20   ar
   202    20    22   ar
