@<TRIPOS>MOLECULE
tmp/5f41A00.pdb
 151 148 0 0 0
SMALL
GASTEIGER

@<TRIPOS>ATOM
      1  N         19.4940   56.5350    5.9810 N.3   213  LEU213     -0.1245
      2  CA        18.0760   56.6970    6.3390 C.3   213  LEU213      0.1561
      3  C         17.1120   55.9550    5.4190 C.2   213  LEU213      0.2260
      4  O         16.2330   55.2560    5.9160 O.2   213  LEU213     -0.2867
      5  CB        17.7010   58.1910    6.3930 C.3   213  LEU213      0.0270
      6  CG        16.2200   58.5190    6.6670 C.3   213  LEU213      0.0019
      7  CD1       15.8080   58.1110    8.1040 C.3   213  LEU213      0.0001
      8  CD2       15.9520   60.0040    6.4420 C.3   213  LEU213      0.0001
      9  N         16.8150   52.2090    6.2830 N.3   216  LEU216     -0.1245
     10  CA        16.3230   51.8270    7.6350 C.3   216  LEU216      0.1561
     11  C         14.9310   51.2660    7.6440 C.2   216  LEU216      0.2260
     12  O         14.6700   50.2860    8.3480 O.2   216  LEU216     -0.2867
     13  CB        16.4400   52.9850    8.6520 C.3   216  LEU216      0.0270
     14  CG        17.8430   53.6280    8.7960 C.3   216  LEU216      0.0019
     15  CD1       17.8390   54.7430    9.8520 C.3   216  LEU216      0.0001
     16  CD2       18.9290   52.5750    9.0980 C.3   216  LEU216      0.0001
     17  N         15.2730   56.0950   15.1040 N.3   411  CYS411     -0.1221
     18  CA        16.1570   57.1690   14.6630 C.3   411  CYS411      0.1808
     19  C         15.3640   58.4410   14.2730 C.2   411  CYS411      0.2602
     20  O         15.5940   59.0230   13.2080 O.2   411  CYS411     -0.2717
     21  CB        17.0700   56.6800   13.5310 C.3   411  CYS411      0.0970
     22  SG        18.1670   55.3050   13.9990 S.3   411  CYS411     -0.0800
     23  N         14.3800   58.8330   15.1180 N.am  412  SER412     -0.1938
     24  CA        13.5310   60.0340   14.9030 C.3   412  SER412      0.2055
     25  C         12.5080   59.9040   13.7530 C.2   412  SER412      0.2643
     26  O         11.8110   60.8820   13.4060 O.2   412  SER412     -0.2714
     27  CB        14.3930   61.2740   14.6750 C.3   412  SER412      0.2130
     28  OG        15.3450   61.4280   15.7100 O.3   412  SER412     -0.2179
     29  N         12.3760   58.6950   13.2040 N.am  413  HIS413     -0.1973
     30  CA        11.4720   58.4750   12.0830 C.3   413  HIS413      0.1656
     31  C         10.5610   57.2590   12.2730 C.2   413  HIS413      0.2291
     32  O         10.7620   56.4350   13.1670 O.2   413  HIS413     -0.2864
     33  CB        12.3290   58.2450   10.8060 C.3   413  HIS413      0.0771
     34  CG        13.0050   59.4790   10.2770 C.ar  413  HIS413      0.0820
     35  ND1       14.1790   59.9540   10.8320 N.ar  413  HIS413     -0.2267
     36  CD2       12.6790   60.2490    9.2140 C.ar  413  HIS413      0.1154
     37  CE1       14.5200   61.0050   10.1090 C.ar  413  HIS413      0.1986
     38  NE2       13.6350   61.2340    9.1350 N.ar  413  HIS413     -0.2212
     39  N          8.5070   61.6240    9.3220 N.3   431  ARG431     -0.1245
     40  CA         8.4240   62.1610   10.6860 C.3   431  ARG431      0.1563
     41  C          7.3740   63.2930   10.6880 C.2   431  ARG431      0.2260
     42  O          6.9600   63.6940    9.5800 O.2   431  ARG431     -0.2867
     43  CB         9.8100   62.6180   11.2050 C.3   431  ARG431      0.0307
     44  CG        10.4070   63.8360   10.4950 C.3   431  ARG431      0.0489
     45  CD        11.8370   64.0470   10.8970 C.3   431  ARG431      0.2205
     46  NE        11.9260   64.4580   12.2950 N.pl3 431  ARG431     -0.0865
     47  CZ        13.0550   64.5840   12.9780 C.cat 431  ARG431      0.5346
     48  NH1       14.2210   64.3390   12.3960 N.pl3 431  ARG431      0.1354
     49  NH2       13.0270   64.9410   14.2590 N.pl3 431  ARG431      0.1354
     50  N         13.1160   72.6960   11.2850 N.3   439  ARG439     -0.1245
     51  CA        14.5670   72.5680   11.1480 C.3   439  ARG439      0.1563
     52  C         15.1090   73.3450    9.9390 C.2   439  ARG439      0.2260
     53  O         16.1330   74.0310   10.0620 O.2   439  ARG439     -0.2867
     54  CB        14.9780   71.0850   11.0600 C.3   439  ARG439      0.0307
     55  CG        16.4960   70.8270   10.8740 C.3   439  ARG439      0.0489
     56  CD        17.3690   71.3510   12.0150 C.3   439  ARG439      0.2205
     57  NE        16.9880   70.7730   13.3100 N.pl3 439  ARG439     -0.0865
     58  CZ        17.1010   71.3960   14.4800 C.cat 439  ARG439      0.5346
     59  NH1       17.5790   72.6350   14.5390 N.pl3 439  ARG439      0.1354
     60  NH2       16.7330   70.7860   15.6010 N.pl3 439  ARG439      0.1354
     61  N         17.1600   67.8110    0.1010 N.3   463  MET463     -0.1245
     62  CA        17.0350   66.6630    1.0240 C.3   463  MET463      0.1570
     63  C         15.5670   66.1750    1.0200 C.2   463  MET463      0.2261
     64  O         15.3270   64.9650    0.9730 O.2   463  MET463     -0.2867
     65  CB        17.4790   67.0350    2.4490 C.3   463  MET463      0.0387
     66  CG        17.3390   65.8740    3.4320 C.3   463  MET463      0.0595
     67  SD        17.7940   66.3620    5.0920 S.3   463  MET463     -0.1393
     68  CE        16.3820   67.3920    5.5180 C.3   463  MET463      0.0692
     69  N         14.4280   62.4130    0.2940 N.3   467  MET467     -0.1230
     70  CA        13.9310   61.5900    1.3920 C.3   467  MET467      0.1702
     71  C         12.4640   61.7610    1.6990 C.2   467  MET467      0.2592
     72  O         11.8150   60.8000    2.1200 O.2   467  MET467     -0.2718
     73  CB        14.7840   61.8630    2.6540 C.3   467  MET467      0.0401
     74  CG        16.2750   61.5080    2.4840 C.3   467  MET467      0.0596
     75  SD        16.5370   59.7220    2.3450 S.3   467  MET467     -0.1393
     76  CE        18.1190   59.7050    1.5820 C.3   467  MET467      0.0692
     77  N         11.9440   62.9750    1.5190 N.am  468  TYR468     -0.1976
     78  CA        10.5820   63.3050    1.9380 C.3   468  TYR468      0.1639
     79  C          9.6890   63.8230    0.8070 C.2   468  TYR468      0.2290
     80  O          8.7330   64.5570    1.0620 O.2   468  TYR468     -0.2864
     81  CB        10.6510   64.3120    3.1100 C.3   468  TYR468      0.0560
     82  CG        11.6300   63.9340    4.2180 C.ar  468  TYR468     -0.0198
     83  CD1       11.3210   62.9350    5.1470 C.ar  468  TYR468     -0.0009
     84  CD2       12.8730   64.5540    4.3150 C.ar  468  TYR468     -0.0009
     85  CE1       12.2150   62.5890    6.1700 C.ar  468  TYR468      0.0417
     86  CE2       13.7690   64.2280    5.3390 C.ar  468  TYR468      0.0417
     87  CZ        13.4360   63.2430    6.2600 C.ar  468  TYR468      0.1957
     88  OH        14.3310   62.9460    7.2400 O.3   468  TYR468     -0.2866
     89  N         22.5210   69.8700    6.2710 N.3   495  THR495     -0.1203
     90  CA        21.1510   69.8660    6.7830 C.3   495  THR495      0.1994
     91  C         21.0450   69.1090    8.0960 C.2   495  THR495      0.2619
     92  O         20.1020   69.3520    8.8650 O.2   495  THR495     -0.2717
     93  CB        20.1950   69.2820    5.7580 C.3   495  THR495      0.1784
     94  OG1       20.5850   67.9450    5.4730 O.3   495  THR495     -0.2211
     95  CG2       20.1390   70.0960    4.4960 C.3   495  THR495      0.0376
     96  N         22.0270   68.2110    8.3520 N.am  496  THR496     -0.1938
     97  CA        22.0830   67.2970    9.5040 C.3   496  THR496      0.2028
     98  C         23.5000   66.7280    9.7130 C.2   496  THR496      0.2642
     99  O         24.2650   66.5760    8.7570 O.2   496  THR496     -0.2714
    100  CB        21.0530   66.1470    9.2930 C.3   496  THR496      0.1808
    101  OG1       21.1620   65.1860   10.3440 O.3   496  THR496     -0.2208
    102  CG2       21.2050   65.4490    7.9400 C.3   496  THR496      0.0379
    103  N         23.8120   66.3580   10.9600 N.am  497  TRP497     -0.1959
    104  CA        25.0800   65.7320   11.3360 C.3   497  TRP497      0.1771
    105  C         24.8680   64.2400   11.5340 C.2   497  TRP497      0.2620
    106  O         25.7980   63.5490   11.9360 O.2   497  TRP497     -0.2715
    107  CB        25.6070   66.3380   12.6500 C.3   497  TRP497      0.0590
    108  CG        26.2520   67.6750   12.4800 C.ar  497  TRP497      0.0006
    109  CD1       25.6700   68.8940   12.6490 C.ar  497  TRP497      0.0946
    110  CD2       27.6130   67.9240   12.1060 C.ar  497  TRP497      0.0152
    111  NE1       26.5930   69.8930   12.4260 N.ar  497  TRP497     -0.2442
    112  CE2       27.7920   69.3250   12.0850 C.ar  497  TRP497      0.0810
    113  CE3       28.7110   67.0940   11.8070 C.ar  497  TRP497      0.0012
    114  CZ2       29.0250   69.9180   11.7830 C.ar  497  TRP497      0.0191
    115  CZ3       29.9310   67.6810   11.5040 C.ar  497  TRP497      0.0001
    116  CH2       30.0780   69.0780   11.4870 C.ar  497  TRP497      0.0015
    117  N         23.6400   63.7470   11.2920 N.am  498  SER498     -0.1950
    118  CA        23.2740   62.3350   11.4590 C.3   498  SER498      0.1924
    119  C         24.2130   61.3880   10.7180 C.2   498  SER498      0.2314
    120  O         24.5440   61.6290    9.5510 O.2   498  SER498     -0.2863
    121  CB        21.8400   62.0960   10.9950 C.3   498  SER498      0.2116
    122  OG        21.4780   60.7240   11.0860 O.3   498  SER498     -0.2180
    123  N         23.2960   58.6810    9.6460 N.3   500  HIS500     -0.1226
    124  CA        22.4150   58.0910    8.6380 C.3   500  HIS500      0.1752
    125  C         22.2450   58.9450    7.3860 C.2   500  HIS500      0.2595
    126  O         21.5770   58.5190    6.4480 O.2   500  HIS500     -0.2718
    127  CB        21.0650   57.7560    9.2790 C.3   500  HIS500      0.0759
    128  CG        21.1930   56.9050   10.5020 C.ar  500  HIS500      0.0818
    129  ND1       21.5670   55.5810   10.4140 N.ar  500  HIS500     -0.2268
    130  CD2       20.9910   57.2150   11.8040 C.ar  500  HIS500      0.1154
    131  CE1       21.6030   55.1270   11.6550 C.ar  500  HIS500      0.1986
    132  NE2       21.2470   56.0660   12.5230 N.ar  500  HIS500     -0.2212
    133  N         22.8450   60.1420    7.3720 N.am  501  ALA501     -0.1980
    134  CA        22.7770   61.0740    6.2520 C.3   501  ALA501      0.1597
    135  C         23.9630   60.8620    5.3180 C.2   501  ALA501      0.2287
    136  O         25.1150   60.9210    5.7590 O.2   501  ALA501     -0.2864
    137  CB        22.7690   62.5040    6.7670 C.3   501  ALA501      0.0319
    138  N         21.9500   65.0610   -1.6380 N.3   505  TRP505     -0.1241
    139  CA        21.2960   66.3320   -2.0270 C.3   505  TRP505      0.1605
    140  C         22.2670   67.5270   -2.1290 C.2   505  TRP505      0.2264
    141  O         21.8610   68.6430   -2.4950 O.2   505  TRP505     -0.2867
    142  CB        20.1960   66.6570   -1.0090 C.3   505  TRP505      0.0550
    143  CG        20.6460   66.5830    0.4280 C.ar  505  TRP505      0.0003
    144  CD1       21.1530   67.5950    1.1870 C.ar  505  TRP505      0.0946
    145  CD2       20.5430   65.4400    1.2950 C.ar  505  TRP505      0.0152
    146  NE1       21.4160   67.1440    2.4650 N.ar  505  TRP505     -0.2442
    147  CE2       21.0730   65.8160    2.5500 C.ar  505  TRP505      0.0810
    148  CE3       20.0480   64.1330    1.1300 C.ar  505  TRP505      0.0012
    149  CZ2       21.1460   64.9240    3.6320 C.ar  505  TRP505      0.0191
    150  CZ3       20.1830   63.2320    2.1780 C.ar  505  TRP505      0.0001
    151  CH2       20.7230   63.6320    3.4140 C.ar  505  TRP505      0.0015
@<TRIPOS>BOND
     1   141   140    2
     2   140   139    1
     3   139   138    1
     4   139   142    1
     5   142   143    1
     6    61    62    1
     7    69    70    1
     8   143   144   ar
     9   143   145   ar
    10    79    80    2
    11    79    78    1
    12    64    63    2
    13    63    62    1
    14    62    65    1
    15   148   145   ar
    16   148   150   ar
    17   144   146   ar
    18   145   147   ar
    19    70    71    1
    20    70    73    1
    21    77    71   am
    22    77    78    1
    23    76    75    1
    24    71    72    2
    25    78    81    1
    26   150   151   ar
    27    75    74    1
    28    65    66    1
    29   146   147   ar
    30    74    73    1
    31   147   149   ar
    32    81    82    1
    33   151   149   ar
    34    66    67    1
    35    82    84   ar
    36    82    83   ar
    37    84    86   ar
    38    95    93    1
    39    67    68    1
    40    83    85   ar
    41   135   136    2
    42   135   134    1
    43    86    87   ar
    44     3     4    2
    45     3     2    1
    46    94    93    1
    47    93    90    1
    48     1     2    1
    49    85    87   ar
    50   134   137    1
    51   134   133    1
    52    87    88    1
    53    89    90    1
    54     9    10    1
    55     2     5    1
    56     5     6    1
    57     8     6    1
    58   126   125    2
    59     6     7    1
    60    90    91    1
    61   133   125   am
    62   125   124    1
    63    10    11    1
    64    10    13    1
    65    11    12    2
    66   102   100    1
    67    91    96   am
    68    91    92    2
    69    96    97    1
    70   124   127    1
    71   124   123    1
    72    13    14    1
    73    99    98    2
    74    14    16    1
    75    14    15    1
    76    38    36   ar
    77    38    37   ar
    78    36    34   ar
    79   127   128    1
    80   100    97    1
    81   100   101    1
    82    39    40    1
    83    97    98    1
    84   120   119    2
    85    42    41    2
    86    98   103   am
    87    52    53    2
    88    52    51    1
    89    37    35   ar
    90    34    33    1
    91    34    35   ar
    92   129   128   ar
    93   129   131   ar
    94    44    45    1
    95    44    43    1
    96   128   130   ar
    97    40    41    1
    98    40    43    1
    99   119   118    1
   100    33    30    1
   101    55    54    1
   102    55    56    1
   103    45    46    1
   104   103   104    1
   105   121   122    1
   106   121   118    1
   107    54    51    1
   108    51    50    1
   109   117   118    1
   110   117   105   am
   111   104   105    1
   112   104   107    1
   113   116   115   ar
   114   116   114   ar
   115   115   113   ar
   116   105   106    2
   117   131   132   ar
   118   114   112   ar
   119   130   132   ar
   120   113   110   ar
   121    56    57    1
   122    30    31    1
   123    30    29    1
   124   112   110   ar
   125   112   111   ar
   126   110   108   ar
   127    31    32    2
   128    46    47    2
   129    48    47    1
   130   111   109   ar
   131   108   109   ar
   132   108   107    1
   133    47    49    1
   134    29    25   am
   135    20    19    2
   136    57    58    2
   137    26    25    2
   138    21    22    1
   139    21    18    1
   140    25    24    1
   141    19    18    1
   142    19    23   am
   143    58    59    1
   144    58    60    1
   145    18    17    1
   146    27    24    1
   147    27    28    1
   148    24    23    1
