@<TRIPOS>MOLECULE
tmp/5f47A00.pdb
 111 109 0 0 0
SMALL
GASTEIGER

@<TRIPOS>ATOM
      1  N         15.4690   38.1140   49.7590 N.3    28  VAL28      -0.1231
      2  CA        14.1610   38.5720   50.1920 C.3    28  VAL28       0.1692
      3  C         13.8560   38.0850   51.6040 C.2    28  VAL28       0.2592
      4  O         13.3140   38.8390   52.4200 O.2    28  VAL28      -0.2718
      5  CB        13.0670   38.1150   49.2020 C.3    28  VAL28       0.0266
      6  CG1       11.6820   38.4630   49.7260 C.3    28  VAL28       0.0020
      7  CG2       13.3050   38.7870   47.8510 C.3    28  VAL28       0.0020
      8  N         14.2220   36.8410   51.9090 N.am   29  PHE29      -0.1976
      9  CA        13.9550   36.2960   53.2450 C.3    29  PHE29       0.1639
     10  C         15.0230   36.7360   54.2530 C.2    29  PHE29       0.2290
     11  O         14.9130   36.4390   55.4390 O.2    29  PHE29      -0.2864
     12  CB        13.8590   34.7600   53.2130 C.3    29  PHE29       0.0560
     13  CG        12.7960   34.2250   52.2740 C.ar   29  PHE29      -0.0200
     14  CD1       11.6420   34.9500   52.0150 C.ar   29  PHE29      -0.0042
     15  CD2       12.9650   32.9900   51.6350 C.ar   29  PHE29      -0.0042
     16  CE1       10.6760   34.4470   51.1300 C.ar   29  PHE29      -0.0003
     17  CE2       11.9940   32.4910   50.7560 C.ar   29  PHE29      -0.0003
     18  CZ        10.8580   33.2220   50.5180 C.ar   29  PHE29      -0.0000
     19  N          2.2540   21.1810   47.1080 N.3    82  TYR82      -0.1227
     20  CA         2.6160   21.9640   48.2800 C.3    82  TYR82       0.1736
     21  C          3.5570   23.0750   47.8340 C.2    82  TYR82       0.2595
     22  O          4.7130   22.8110   47.4820 O.2    82  TYR82      -0.2718
     23  CB         3.2930   21.0400   49.3010 C.3    82  TYR82       0.0548
     24  CG         3.7910   21.6180   50.6150 C.ar   82  TYR82      -0.0200
     25  CD1        3.4000   22.8570   51.0780 C.ar   82  TYR82      -0.0009
     26  CD2        4.6670   20.8760   51.3930 C.ar   82  TYR82      -0.0009
     27  CE1        3.8760   23.3580   52.2960 C.ar   82  TYR82       0.0417
     28  CE2        5.1410   21.3490   52.5960 C.ar   82  TYR82       0.0417
     29  CZ         4.7470   22.5840   53.0390 C.ar   82  TYR82       0.1957
     30  OH         5.2350   23.0360   54.2450 O.3    82  TYR82      -0.2866
     31  N          3.0490   24.2990   47.7970 N.am   83  ILE83      -0.1966
     32  CA         3.9020   25.4640   47.5360 C.3    83  ILE83       0.1727
     33  C          4.7520   25.7100   48.7730 C.2    83  ILE83       0.2616
     34  O          4.2190   25.9170   49.8750 O.2    83  ILE83      -0.2715
     35  CB         3.0740   26.7070   47.2090 C.3    83  ILE83       0.0290
     36  CG1        2.2710   26.5060   45.9040 C.3    83  ILE83       0.0022
     37  CG2        4.0270   27.9180   47.1260 C.3    83  ILE83       0.0023
     38  CD1        1.2420   27.6060   45.6740 C.3    83  ILE83       0.0001
     39  N          6.0770   25.6620   48.6070 N.am   84  TYR84      -0.1960
     40  CA         6.9810   25.7310   49.7440 C.3    84  TYR84       0.1771
     41  C          7.5110   27.1370   49.9840 C.2    84  TYR84       0.2620
     42  O          7.4990   27.6100   51.1180 O.2    84  TYR84      -0.2715
     43  CB         8.1430   24.7330   49.5640 C.3    84  TYR84       0.0574
     44  CG         8.8740   24.5480   50.8540 C.ar   84  TYR84      -0.0198
     45  CD1        8.3630   23.7010   51.8330 C.ar   84  TYR84      -0.0009
     46  CD2       10.0210   25.2810   51.1340 C.ar   84  TYR84      -0.0009
     47  CE1        9.0100   23.5600   53.0550 C.ar   84  TYR84       0.0417
     48  CE2       10.6760   25.1370   52.3630 C.ar   84  TYR84       0.0417
     49  CZ        10.1480   24.2630   53.2950 C.ar   84  TYR84       0.1957
     50  OH        10.7740   24.1260   54.5090 O.3    84  TYR84      -0.2866
     51  N          7.9780   27.8030   48.9400 N.am   85  ASP85      -0.1957
     52  CA         8.4180   29.1930   49.0300 C.3    85  ASP85       0.1840
     53  C          7.8550   29.9990   47.8850 C.2    85  ASP85       0.2621
     54  O          7.6680   29.4760   46.7960 O.2    85  ASP85      -0.2715
     55  CB         9.9420   29.3090   48.9690 C.3    85  ASP85       0.1450
     56  CG        10.6210   29.1270   50.2960 C.2    85  ASP85       0.3671
     57  OD1       10.1590   29.6720   51.3210 O.co2  85  ASP85      -0.2456
     58  OD2       11.6760   28.4580   50.3090 O.co2  85  ASP85      -0.2456
     59  N          7.5850   31.2790   48.1380 N.am   86  LEU86      -0.1977
     60  CA         7.2230   32.2370   47.1000 C.3    86  LEU86       0.1596
     61  C          7.8630   33.5710   47.4710 C.2    86  LEU86       0.2287
     62  O          7.7700   34.0210   48.6270 O.2    86  LEU86      -0.2864
     63  CB         5.6980   32.3830   46.9750 C.3    86  LEU86       0.0297
     64  CG         5.1350   33.5390   46.1320 C.3    86  LEU86       0.0022
     65  CD1        5.5200   33.4820   44.6400 C.3    86  LEU86       0.0001
     66  CD2        3.6120   33.5880   46.2550 C.3    86  LEU86       0.0001
     67  N          1.5980   27.7310   53.0620 N.3   120  GLN120     -0.1231
     68  CA         1.6180   28.1540   54.4590 C.3   120  GLN120      0.1698
     69  C          2.1540   29.5750   54.6160 C.2   120  GLN120      0.2592
     70  O          3.1450   29.9370   53.9840 O.2   120  GLN120     -0.2718
     71  CB         2.4830   27.1900   55.2800 C.3   120  GLN120      0.0381
     72  CG         2.5990   27.5210   56.7750 C.3   120  GLN120      0.0905
     73  CD         3.2740   26.4110   57.5630 C.2   120  GLN120      0.2608
     74  OE1        2.7360   25.3120   57.6930 O.2   120  GLN120     -0.2717
     75  NE2        4.4590   26.6990   58.1010 N.am  120  GLN120     -0.0878
     76  N          1.5150   30.3750   55.4690 N.am  121  ALA121     -0.1966
     77  CA         2.0260   31.6910   55.8010 C.3   121  ALA121      0.1728
     78  C          2.0080   31.8860   57.3110 C.2   121  ALA121      0.2616
     79  O          1.1770   31.3010   58.0160 O.2   121  ALA121     -0.2715
     80  CB         1.2120   32.7890   55.1040 C.3   121  ALA121      0.0334
     81  N          2.9280   32.6970   57.8140 N.am  122  ASP122     -0.1971
     82  CA         2.9920   32.9150   59.2480 C.3   122  ASP122      0.1709
     83  C          1.8940   33.8720   59.6580 C.2   122  ASP122      0.2293
     84  O          1.6280   34.8580   58.9780 O.2   122  ASP122     -0.2864
     85  CB         4.3560   33.4450   59.6680 C.3   122  ASP122      0.1436
     86  CG         4.5500   33.3660   61.1650 C.2   122  ASP122      0.3671
     87  OD1        5.1400   32.3720   61.6440 O.co2 122  ASP122     -0.2456
     88  OD2        4.0840   34.2830   61.8680 O.co2 122  ASP122     -0.2456
     89  N          2.6830   37.5750   59.7330 N.3   125  ASP125     -0.1239
     90  CA         3.0390   38.1980   58.4620 C.3   125  ASP125      0.1674
     91  C          1.7930   38.7260   57.7560 C.2   125  ASP125      0.2266
     92  O          1.3230   38.1210   56.8020 O.2   125  ASP125     -0.2867
     93  CB         3.7530   37.1810   57.5700 C.3   125  ASP125      0.1410
     94  CG         4.5070   37.8260   56.4290 C.2   125  ASP125      0.3668
     95  OD1        4.2540   39.0150   56.1150 O.co2 125  ASP125     -0.2456
     96  OD2        5.3520   37.1240   55.8360 O.co2 125  ASP125     -0.2456
     97  N          1.8710   38.9290   53.9170 N.3   128  ALA128     -0.1245
     98  CA         1.7530   37.6350   53.2390 C.3   128  ALA128      0.1562
     99  C          0.2870   37.1940   53.2540 C.2   128  ALA128      0.2260
    100  O         -0.2390   36.6880   52.2490 O.2   128  ALA128     -0.2867
    101  CB         2.6370   36.5830   53.8960 C.3   128  ALA128      0.0290
    102  N          2.1500   24.8260   63.4440 N.3   145  HIS145     -0.1241
    103  CA         3.2590   24.1330   62.8040 C.3   145  HIS145      0.1621
    104  C          4.3030   23.7780   63.8760 C.2   145  HIS145      0.2264
    105  O          4.7670   24.6420   64.6110 O.2   145  HIS145     -0.2867
    106  CB         3.8400   25.0330   61.7040 C.3   145  HIS145      0.0745
    107  CG         5.1360   24.5640   61.1180 C.ar  145  HIS145      0.0817
    108  ND1        5.2000   23.7340   60.0180 N.ar  145  HIS145     -0.2268
    109  CD2        6.4140   24.8700   61.4360 C.ar  145  HIS145      0.1154
    110  CE1        6.4690   23.5230   59.7080 C.ar  145  HIS145      0.1986
    111  NE2        7.2250   24.1970   60.5530 N.ar  145  HIS145     -0.2212
@<TRIPOS>BOND
     1    65    64    1
     2    38    36    1
     3    36    35    1
     4    64    66    1
     5    64    63    1
     6    54    53    2
     7    63    60    1
     8    60    61    1
     9    60    59    1
    10    19    20    1
    11    37    35    1
    12    35    32    1
    13    61    62    2
    14    22    21    2
    15    32    31    1
    16    32    33    1
    17    31    21   am
    18    21    20    1
    19     7     5    1
    20    53    59   am
    21    53    52    1
    22    20    23    1
    23    39    33   am
    24    39    40    1
    25    33    34    2
    26    51    52    1
    27    51    41   am
    28    55    52    1
    29    55    56    1
    30     5     6    1
    31     5     2    1
    32    23    24    1
    33    43    40    1
    34    43    44    1
    35    40    41    1
    36     1     2    1
    37    41    42    2
    38     2     3    1
    39    56    58   ar
    40    56    57   ar
    41    18    17   ar
    42    18    16   ar
    43    24    25   ar
    44    24    26   ar
    45    17    15   ar
    46    44    46   ar
    47    44    45   ar
    48    25    27   ar
    49    16    14   ar
    50    46    48   ar
    51    26    28   ar
    52     3     8   am
    53     3     4    2
    54    15    13   ar
    55    45    47   ar
    56     8     9    1
    57    14    13   ar
    58   100    99    2
    59    13    12    1
    60    27    29   ar
    61    48    49   ar
    62    28    29   ar
    63    29    30    1
    64    47    49   ar
    65    67    68    1
    66    12     9    1
    67    98    99    1
    68    98   101    1
    69    98    97    1
    70     9    10    1
    71    49    50    1
    72    70    69    2
    73    10    11    2
    74    68    69    1
    75    68    71    1
    76    69    76   am
    77    80    77    1
    78    71    72    1
    79    76    77    1
    80    77    78    1
    81    96    94   ar
    82    95    94   ar
    83    94    93    1
    84    72    73    1
    85    92    91    2
    86    78    81   am
    87    78    79    2
    88    73    74    2
    89    73    75   am
    90    93    90    1
    91    91    90    1
    92    81    82    1
    93    90    89    1
    94    84    83    2
    95    82    83    1
    96    82    85    1
    97    85    86    1
    98   110   108   ar
    99   110   111   ar
   100   108   107   ar
   101   111   109   ar
   102   107   109   ar
   103   107   106    1
   104    86    87   ar
   105    86    88   ar
   106   106   103    1
   107   103   102    1
   108   103   104    1
   109   104   105    2
