@<TRIPOS>MOLECULE
tmp/5f48B00.pdb
 188 185 0 0 0
SMALL
GASTEIGER

@<TRIPOS>ATOM
      1  N         -7.1170   -0.2570  -14.2120 N.3    28  VAL28      -0.1231
      2  CA        -6.3480    0.9110  -14.6200 C.3    28  VAL28       0.1692
      3  C         -4.9070    0.7750  -14.1640 C.2    28  VAL28       0.2592
      4  O         -3.9870    1.0850  -14.9100 O.2    28  VAL28      -0.2718
      5  CB        -6.9830    2.2020  -14.0810 C.3    28  VAL28       0.0266
      6  CG1       -6.1370    3.4280  -14.4280 C.3    28  VAL28       0.0020
      7  CG2       -8.3750    2.3480  -14.6780 C.3    28  VAL28       0.0020
      8  N         -4.7130    0.2660  -12.9550 N.am   29  PHE29      -0.1976
      9  CA        -3.3680    0.0780  -12.4320 C.3    29  PHE29       0.1639
     10  C         -2.7720   -1.2420  -12.9300 C.2    29  PHE29       0.2290
     11  O         -1.6230   -1.5460  -12.6330 O.2    29  PHE29      -0.2864
     12  CB        -3.3850    0.1190  -10.8990 C.3    29  PHE29       0.0560
     13  CG        -3.8880    1.4150  -10.3290 C.ar   29  PHE29      -0.0200
     14  CD1       -3.5450    2.6240  -10.9120 C.ar   29  PHE29      -0.0042
     15  CD2       -4.7160    1.4290   -9.2140 C.ar   29  PHE29      -0.0042
     16  CE1       -4.0070    3.8270  -10.3850 C.ar   29  PHE29      -0.0003
     17  CE2       -5.1920    2.6280   -8.6950 C.ar   29  PHE29      -0.0003
     18  CZ        -4.8340    3.8260   -9.2840 C.ar   29  PHE29      -0.0000
     19  N         -5.5770    9.0550   -1.7000 N.3    84  TYR84      -0.1227
     20  CA        -4.6820    7.9210   -1.7990 C.3    84  TYR84       0.1736
     21  C         -4.6220    7.3910   -3.2330 C.2    84  TYR84       0.2595
     22  O         -3.5440    7.2910   -3.8150 O.2    84  TYR84      -0.2718
     23  CB        -5.1170    6.8260   -0.8320 C.3    84  TYR84       0.0548
     24  CG        -4.1350    5.6920   -0.7180 C.ar   84  TYR84      -0.0200
     25  CD1       -2.9700    5.8210    0.0320 C.ar   84  TYR84      -0.0009
     26  CD2       -4.3650    4.4970   -1.3710 C.ar   84  TYR84      -0.0009
     27  CE1       -2.0750    4.7890    0.1210 C.ar   84  TYR84       0.0417
     28  CE2       -3.4800    3.4690   -1.2940 C.ar   84  TYR84       0.0417
     29  CZ        -2.3360    3.6110   -0.5420 C.ar   84  TYR84       0.1957
     30  OH        -1.4620    2.5580   -0.4730 O.3    84  TYR84      -0.2866
     31  N         -5.7790    7.0610   -3.7970 N.am   85  ASP85      -0.1960
     32  CA        -5.8400    6.5550   -5.1640 C.3    85  ASP85       0.1840
     33  C         -6.7670    7.4280   -5.9840 C.2    85  ASP85       0.2622
     34  O         -7.7950    7.8690   -5.4770 O.2    85  ASP85      -0.2715
     35  CB        -6.3450    5.1090   -5.1980 C.3    85  ASP85       0.1450
     36  CG        -5.2300    4.0830   -5.1020 C.2    85  ASP85       0.3671
     37  OD1       -4.0970    4.3770   -5.5490 O.co2  85  ASP85      -0.2456
     38  OD2       -5.5010    2.9710   -4.5950 O.co2  85  ASP85      -0.2456
     39  N         -6.4060    7.6650   -7.2450 N.am   86  LEU86      -0.1963
     40  CA        -7.3100    8.3050   -8.2150 C.3    86  LEU86       0.1728
     41  C         -7.1050    7.6410   -9.5770 C.2    86  LEU86       0.2616
     42  O         -5.9720    7.4530  -10.0190 O.2    86  LEU86      -0.2715
     43  CB        -7.0640    9.8190   -8.3130 C.3    86  LEU86       0.0311
     44  CG        -7.5940   10.6120   -9.5320 C.3    86  LEU86       0.0022
     45  CD1       -9.1160   10.6350   -9.6130 C.3    86  LEU86       0.0001
     46  CD2       -7.0610   12.0340   -9.5170 C.3    86  LEU86       0.0001
     47  N         -8.1990    7.2560  -10.2230 N.am   87  ALA87      -0.1963
     48  CA        -8.1060    6.6320  -11.5320 C.3    87  ALA87       0.1728
     49  C         -9.3630    6.9230  -12.3350 C.2    87  ALA87       0.2616
     50  O        -10.4460    7.1080  -11.7570 O.2    87  ALA87      -0.2715
     51  CB        -7.9030    5.1200  -11.4010 C.3    87  ALA87       0.0334
     52  N         -9.2000    6.9810  -13.6560 N.am   88  VAL88      -0.1977
     53  CA       -10.3190    7.0690  -14.5830 C.3    88  VAL88       0.1596
     54  C        -10.1660    5.9380  -15.5960 C.2    88  VAL88       0.2287
     55  O         -9.0560    5.6890  -16.0830 O.2    88  VAL88      -0.2864
     56  CB       -10.3770    8.4490  -15.2920 C.3    88  VAL88       0.0276
     57  CG1      -11.3770    8.4310  -16.4100 C.3    88  VAL88       0.0022
     58  CG2      -10.7190    9.5780  -14.2820 C.3    88  VAL88       0.0022
     59  N        -10.5640    8.5030  -20.2400 N.3    93  GLN93      -0.1231
     60  CA        -9.5640    9.4550  -19.7900 C.3    93  GLN93       0.1698
     61  C         -9.5120   10.6650  -20.7170 C.2    93  GLN93       0.2592
     62  O         -9.9770   10.5960  -21.8560 O.2    93  GLN93      -0.2718
     63  CB        -8.1880    8.7810  -19.6880 C.3    93  GLN93       0.0381
     64  CG        -8.0440    7.8980  -18.4360 C.3    93  GLN93       0.0905
     65  CD        -6.7730    7.0630  -18.4270 C.2    93  GLN93       0.2608
     66  OE1       -5.8610    7.2840  -19.2260 O.2    93  GLN93      -0.2717
     67  NE2       -6.7260    6.0760  -17.5430 N.am   93  GLN93      -0.0878
     68  N         -8.9810   11.7740  -20.2050 N.am   94  ARG94      -0.1966
     69  CA        -8.7530   12.9950  -20.9900 C.3    94  ARG94       0.1729
     70  C        -10.0520   13.6360  -21.4680 C.2    94  ARG94       0.2616
     71  O        -10.1050   14.2450  -22.5380 O.2    94  ARG94      -0.2715
     72  CB        -7.8460   12.7000  -22.1780 C.3    94  ARG94       0.0348
     73  CG        -6.3740   12.9660  -21.9070 C.3    94  ARG94       0.0492
     74  CD        -5.4810   12.2570  -22.9200 C.3    94  ARG94       0.2205
     75  NE        -5.3850   10.8450  -22.5850 N.pl3  94  ARG94      -0.0865
     76  CZ        -6.0420    9.8820  -23.2050 C.cat  94  ARG94       0.5346
     77  NH1       -6.8200   10.1680  -24.2370 N.pl3  94  ARG94       0.1354
     78  NH2       -5.9050    8.6350  -22.7940 N.pl3  94  ARG94       0.1354
     79  N        -11.1000   13.4850  -20.6630 N.am   95  GLN95      -0.1963
     80  CA       -12.4030   14.0850  -20.9430 C.3    95  GLN95       0.1733
     81  C        -12.9090   14.9000  -19.7390 C.2    95  GLN95       0.2617
     82  O        -14.0780   15.2920  -19.6900 O.2    95  GLN95      -0.2715
     83  CB       -13.4100   12.9990  -21.3150 C.3    95  GLN95       0.0408
     84  CG       -13.0310   12.2450  -22.5810 C.3    95  GLN95       0.0908
     85  CD       -14.1920   11.4990  -23.1880 C.2    95  GLN95       0.2608
     86  OE1      -15.3190   11.9940  -23.2070 O.2    95  GLN95      -0.2717
     87  NE2      -13.9230   10.3040  -23.7090 N.am   95  GLN95      -0.0878
     88  N        -12.0170   15.1370  -18.7740 N.am   96  GLY96      -0.1940
     89  CA       -12.2800   16.0520  -17.6690 C.3    96  GLY96       0.2014
     90  C        -12.7930   15.4020  -16.3910 C.2    96  GLY96       0.2639
     91  O        -13.1340   16.0830  -15.4210 O.2    96  GLY96      -0.2714
     92  N        -12.8480   14.0780  -16.3890 N.am   97  ILE97      -0.1963
     93  CA       -13.3660   13.3410  -15.2450 C.3    97  ILE97       0.1727
     94  C        -12.4610   13.4590  -14.0350 C.2    97  ILE97       0.2617
     95  O        -12.9330   13.6870  -12.9120 O.2    97  ILE97      -0.2715
     96  CB       -13.5590   11.8550  -15.5770 C.3    97  ILE97       0.0290
     97  CG1      -14.5800   11.6980  -16.6960 C.3    97  ILE97       0.0022
     98  CG2      -14.0000   11.0940  -14.3390 C.3    97  ILE97       0.0023
     99  CD1      -14.6630   10.2800  -17.2500 C.3    97  ILE97       0.0001
    100  N        -11.1650   13.2960  -14.2610 N.am   98  GLY98      -0.1940
    101  CA       -10.2000   13.4080  -13.1800 C.3    98  GLY98       0.2014
    102  C        -10.3110   14.7660  -12.5170 C.2    98  GLY98       0.2638
    103  O        -10.3170   14.8800  -11.2840 O.2    98  GLY98      -0.2714
    104  N        -10.4320   15.8070  -13.3270 N.am   99  LYS99      -0.1977
    105  CA       -10.5280   17.1540  -12.7830 C.3    99  LYS99       0.1596
    106  C        -11.7830   17.3160  -11.9460 C.2    99  LYS99       0.2287
    107  O        -11.7480   17.9740  -10.9020 O.2    99  LYS99      -0.2864
    108  CB       -10.5160   18.2110  -13.8960 C.3    99  LYS99       0.0298
    109  CG        -9.1280   18.5350  -14.4140 C.3    99  LYS99       0.0038
    110  CD        -9.1610   19.7530  -15.3160 C.3    99  LYS99       0.0206
    111  CE        -7.7500   20.2530  -15.6420 C.3    99  LYS99       0.1093
    112  NZ        -7.4740   20.1600  -17.0800 N.3    99  LYS99      -0.1314
    113  N         -0.2560   12.5550   -3.8880 N.3   120  GLN120     -0.1231
    114  CA         1.1060   12.3460   -4.3370 C.3   120  GLN120      0.1698
    115  C          1.1490   11.5730   -5.6460 C.2   120  GLN120      0.2592
    116  O          0.1910   10.8890   -6.0230 O.2   120  GLN120     -0.2718
    117  CB         1.9120   11.6170   -3.2670 C.3   120  GLN120      0.0381
    118  CG         1.7170   12.2110   -1.8640 C.3   120  GLN120      0.0905
    119  CD         2.7650   11.7320   -0.8620 C.2   120  GLN120      0.2608
    120  OE1        3.1360   10.5590   -0.8440 O.2   120  GLN120     -0.2717
    121  NE2        3.2610   12.6500   -0.0400 N.am  120  GLN120     -0.0878
    122  N          2.2670   11.7010   -6.3400 N.am  121  ALA121     -0.1980
    123  CA         2.5000   10.9250   -7.5450 C.3   121  ALA121      0.1597
    124  C          3.9830   10.5970   -7.6540 C.2   121  ALA121      0.2287
    125  O          4.8340   11.3520   -7.1580 O.2   121  ALA121     -0.2864
    126  CB         2.0120   11.6850   -8.7700 C.3   121  ALA121      0.0319
    127  N          6.3130    9.3170  -13.0710 N.3   125  ASP125     -0.1239
    128  CA         4.9930    9.2190  -13.7010 C.3   125  ASP125      0.1674
    129  C          4.6180   10.5730  -14.3130 C.2   125  ASP125      0.2266
    130  O          3.8180   11.3250  -13.7650 O.2   125  ASP125     -0.2867
    131  CB         3.9410    8.7480  -12.6840 C.3   125  ASP125      0.1410
    132  CG         2.5860    8.4460  -13.3240 C.2   125  ASP125      0.3668
    133  OD1        2.3940    8.7620  -14.5180 O.co2 125  ASP125     -0.2456
    134  OD2        1.6850    7.9320  -12.6150 O.co2 125  ASP125     -0.2456
    135  N          2.8050   11.6290  -16.6930 N.3   127  TYR127     -0.1227
    136  CA         1.4360   11.9280  -17.0840 C.3   127  TYR127      0.1736
    137  C          0.5970   12.2540  -15.8610 C.2   127  TYR127      0.2595
    138  O         -0.2620   13.1260  -15.9020 O.2   127  TYR127     -0.2718
    139  CB         0.8420   10.7620  -17.8880 C.3   127  TYR127      0.0548
    140  CG         1.4010   10.6780  -19.3130 C.ar  127  TYR127     -0.0200
    141  CD1        2.2260   11.6820  -19.8260 C.ar  127  TYR127     -0.0009
    142  CD2        1.1190    9.5920  -20.1310 C.ar  127  TYR127     -0.0009
    143  CE1        2.7550   11.6040  -21.1190 C.ar  127  TYR127      0.0417
    144  CE2        1.6330    9.5070  -21.4220 C.ar  127  TYR127      0.0417
    145  CZ         2.4440   10.5200  -21.9160 C.ar  127  TYR127      0.1957
    146  OH         2.9490   10.4310  -23.1950 O.3   127  TYR127     -0.2866
    147  N          0.8740   11.5770  -14.7550 N.am  128  ALA128     -0.1980
    148  CA         0.2120   11.9150  -13.5100 C.3   128  ALA128      0.1597
    149  C          0.6400   13.2970  -12.9950 C.2   128  ALA128      0.2287
    150  O         -0.1820   14.0510  -12.4910 O.2   128  ALA128     -0.2864
    151  CB         0.4790   10.8470  -12.4650 C.3   128  ALA128      0.0319
    152  N          1.7160   15.7850  -14.8190 N.3   130  ASP130     -0.1225
    153  CA         1.0260   16.6750  -15.7480 C.3   130  ASP130      0.1805
    154  C         -0.3790   16.9280  -15.2310 C.2   130  ASP130      0.2598
    155  O         -0.8280   18.0720  -15.1590 O.2   130  ASP130     -0.2718
    156  CB         0.9590   16.0750  -17.1610 C.3   130  ASP130      0.1424
    157  CG         2.2720   16.2170  -17.9350 C.2   130  ASP130      0.3668
    158  OD1        3.2280   16.8040  -17.3760 O.co2 130  ASP130     -0.2456
    159  OD2        2.3420   15.7560  -19.1090 O.co2 130  ASP130     -0.2456
    160  N         -1.0500   15.8540  -14.8300 N.am  131  PHE131     -0.1962
    161  CA        -2.4490   15.9620  -14.4370 C.3   131  PHE131      0.1771
    162  C         -2.6060   16.8050  -13.1890 C.2   131  PHE131      0.2619
    163  O         -3.3730   17.7600  -13.1850 O.2   131  PHE131     -0.2715
    164  CB        -3.1050   14.6060  -14.1910 C.3   131  PHE131      0.0574
    165  CG        -4.4570   14.7430  -13.5320 C.ar  131  PHE131     -0.0200
    166  CD1       -5.5480   15.2280  -14.2530 C.ar  131  PHE131     -0.0042
    167  CD2       -4.6240   14.4580  -12.1800 C.ar  131  PHE131     -0.0042
    168  CE1       -6.8000   15.4050  -13.6320 C.ar  131  PHE131     -0.0003
    169  CE2       -5.8630   14.6280  -11.5510 C.ar  131  PHE131     -0.0003
    170  CZ        -6.9410   15.0990  -12.2740 C.ar  131  PHE131     -0.0000
    171  N         -1.8830   16.4550  -12.1290 N.am  132  TYR132     -0.1974
    172  CA        -2.0320   17.1760  -10.8700 C.3   132  TYR132      0.1639
    173  C         -1.6840   18.6430  -11.0460 C.2   132  TYR132      0.2290
    174  O         -2.3510   19.5110  -10.4990 O.2   132  TYR132     -0.2864
    175  CB        -1.1770   16.5300   -9.7740 C.3   132  TYR132      0.0560
    176  CG        -1.8100   15.2530   -9.2990 C.ar  132  TYR132     -0.0198
    177  CD1       -3.1030   15.2590   -8.7870 C.ar  132  TYR132     -0.0009
    178  CD2       -1.1380   14.0390   -9.3860 C.ar  132  TYR132     -0.0009
    179  CE1       -3.7100   14.0970   -8.3690 C.ar  132  TYR132      0.0417
    180  CE2       -1.7400   12.8660   -8.9660 C.ar  132  TYR132      0.0417
    181  CZ        -3.0210   12.9020   -8.4550 C.ar  132  TYR132      0.1957
    182  OH        -3.6310   11.7480   -8.0450 O.3   132  TYR132     -0.2866
    183  N         -2.2760   20.4290  -13.5140 N.3   134  SER134     -0.1217
    184  CA        -3.3520   21.1150  -14.2440 C.3   134  SER134      0.1889
    185  C         -4.5440   21.4330  -13.3450 C.2   134  SER134      0.2288
    186  O         -5.4160   22.2080  -13.7130 O.2   134  SER134     -0.2866
    187  CB        -3.8350   20.2740  -15.4230 C.3   134  SER134      0.2089
    188  OG        -4.6900   19.2470  -14.9680 O.3   134  SER134     -0.2183
@<TRIPOS>BOND
     1    77    76    1
     2    87    85   am
     3    86    85    2
     4    76    78    1
     5    76    75    2
     6   146   145    1
     7    85    84    1
     8    74    75    1
     9    74    73    1
    10    84    83    1
    11    71    70    2
    12    72    73    1
    13    72    69    1
    14   145   144   ar
    15   145   143   ar
    16    62    61    2
    17    70    69    1
    18    70    79   am
    19   144   142   ar
    20    83    80    1
    21   143   141   ar
    22    69    68    1
    23    80    79    1
    24    80    81    1
    25    61    68   am
    26    61    60    1
    27    59    60    1
    28   142   140   ar
    29   141   140   ar
    30    60    63    1
    31    81    82    2
    32    81    88   am
    33    63    64    1
    34   140   139    1
    35    66    65    2
    36   159   157   ar
    37    88    89    1
    38    64    65    1
    39    65    67   am
    40   157   158   ar
    41   157   156    1
    42   139   136    1
    43    89    90    1
    44    99    97    1
    45   156   153    1
    46   136   135    1
    47   136   137    1
    48   112   111    1
    49    97    96    1
    50    57    56    1
    51    90    92   am
    52    90    91    2
    53    92    93    1
    54    55    54    2
    55   138   137    2
    56   137   147   am
    57   153   154    1
    58   153   152    1
    59   111   110    1
    60    54    53    1
    61    96    93    1
    62    96    98    1
    63   187   188    1
    64   187   184    1
    65   110   109    1
    66    56    53    1
    67    56    58    1
    68    93    94    1
    69   154   155    2
    70   154   160   am
    71     4     3    2
    72   160   161    1
    73   147   148    1
    74     7     5    1
    75     2     1    1
    76     2     3    1
    77     2     5    1
    78    53    52    1
    79   133   132   ar
    80   161   164    1
    81   161   162    1
    82     6     5    1
    83   109   108    1
    84   129   130    2
    85   129   128    1
    86   100    94   am
    87   100   101    1
    88   166   168   ar
    89   166   165   ar
    90   184   183    1
    91   184   185    1
    92   164   165    1
    93     3     8   am
    94    94    95    2
    95   108   105    1
    96   186   185    2
    97   128   127    1
    98   128   131    1
    99    52    49   am
   100   168   170   ar
   101   165   167   ar
   102   148   149    1
   103   148   151    1
   104   104   105    1
   105   104   102   am
   106   132   131    1
   107   132   134   ar
   108   162   163    2
   109   162   171   am
   110   101   102    1
   111   149   150    2
   112     8     9    1
   113    10    11    2
   114    10     9    1
   115   105   106    1
   116   102   103    2
   117     9    12    1
   118    49    50    2
   119    49    48    1
   120   170   169   ar
   121   167   169   ar
   122   171   172    1
   123   106   107    2
   124    48    51    1
   125    48    47    1
   126   173   172    1
   127   173   174    2
   128    14    16   ar
   129    14    13   ar
   130    12    13    1
   131   172   175    1
   132    16    18   ar
   133    13    15   ar
   134    47    41   am
   135    42    41    2
   136   175   176    1
   137    45    44    1
   138    41    40    1
   139    44    46    1
   140    44    43    1
   141   178   176   ar
   142   178   180   ar
   143   176   177   ar
   144    18    17   ar
   145    15    17   ar
   146   180   181   ar
   147   177   179   ar
   148   126   123    1
   149   181   179   ar
   150   181   182    1
   151    43    40    1
   152    40    39    1
   153   124   123    1
   154   124   125    2
   155   123   122    1
   156    39    33   am
   157   122   115   am
   158   116   115    2
   159    33    34    2
   160    33    32    1
   161   115   114    1
   162    37    36   ar
   163    35    32    1
   164    35    36    1
   165    32    31    1
   166    36    38   ar
   167   114   113    1
   168   114   117    1
   169    22    21    2
   170    31    21   am
   171   117   118    1
   172    21    20    1
   173   118   119    1
   174    20    19    1
   175    20    23    1
   176    26    28   ar
   177    26    24   ar
   178    28    29   ar
   179   119   120    2
   180   119   121   am
   181    23    24    1
   182    24    25   ar
   183    29    30    1
   184    29    27   ar
   185    25    27   ar
