@<TRIPOS>MOLECULE
tmp/5f49C00.pdb
 217 216 0 0 0
SMALL
GASTEIGER

@<TRIPOS>ATOM
      1  N        -17.9550  -17.4400   -5.5880 N.3    25  VAL25      -0.1231
      2  CA       -17.0120  -18.1250   -4.7070 C.3    25  VAL25       0.1692
      3  C        -17.2810  -19.6320   -4.6070 C.2    25  VAL25       0.2592
      4  O        -16.3460  -20.4350   -4.6340 O.2    25  VAL25      -0.2718
      5  CB       -17.0360  -17.5060   -3.2900 C.3    25  VAL25       0.0266
      6  CG1      -16.2320  -18.3440   -2.3310 C.3    25  VAL25       0.0020
      7  CG2      -16.5030  -16.0870   -3.3260 C.3    25  VAL25       0.0020
      8  N        -18.5540  -20.0120   -4.4950 N.am   26  PHE26      -0.1976
      9  CA       -18.9280  -21.4210   -4.4150 C.3    26  PHE26       0.1639
     10  C        -18.9470  -22.0710   -5.8030 C.2    26  PHE26       0.2290
     11  O        -19.2490  -23.2570   -5.9360 O.2    26  PHE26      -0.2864
     12  CB       -20.2930  -21.5770   -3.7390 C.3    26  PHE26       0.0560
     13  CG       -20.3210  -21.1260   -2.3020 C.ar   26  PHE26      -0.0200
     14  CD1      -19.2600  -21.3940   -1.4530 C.ar   26  PHE26      -0.0042
     15  CD2      -21.4140  -20.4320   -1.8020 C.ar   26  PHE26      -0.0042
     16  CE1      -19.2840  -20.9780   -0.1310 C.ar   26  PHE26      -0.0003
     17  CE2      -21.4460  -20.0130   -0.4800 C.ar   26  PHE26      -0.0003
     18  CZ       -20.3780  -20.2870    0.3560 C.ar   26  PHE26      -0.0000
     19  N        -25.5220  -20.6120    7.9630 N.3    81  TYR81      -0.1227
     20  CA       -25.7540  -21.4690    6.8130 C.3    81  TYR81       0.1736
     21  C        -24.6390  -21.3560    5.7810 C.2    81  TYR81       0.2595
     22  O        -24.0360  -22.3570    5.4080 O.2    81  TYR81      -0.2718
     23  CB       -27.1010  -21.1470    6.1630 C.3    81  TYR81       0.0548
     24  CG       -27.5030  -22.1740    5.1370 C.ar   81  TYR81      -0.0200
     25  CD1      -28.0530  -23.3870    5.5280 C.ar   81  TYR81      -0.0009
     26  CD2      -27.3090  -21.9450    3.7800 C.ar   81  TYR81      -0.0009
     27  CE1      -28.4110  -24.3410    4.5970 C.ar   81  TYR81       0.0417
     28  CE2      -27.6650  -22.8920    2.8420 C.ar   81  TYR81       0.0417
     29  CZ       -28.2140  -24.0890    3.2570 C.ar   81  TYR81       0.1957
     30  OH       -28.5710  -25.0390    2.3300 O.3    81  TYR81      -0.2866
     31  N        -24.3820  -20.1390    5.3150 N.am   82  ASP82      -0.1960
     32  CA       -23.3230  -19.8920    4.3400 C.3    82  ASP82       0.1840
     33  C        -22.3810  -18.8000    4.8190 C.2    82  ASP82       0.2622
     34  O        -22.8100  -17.8250    5.4280 O.2    82  ASP82      -0.2715
     35  CB       -23.9100  -19.4980    2.9820 C.3    82  ASP82       0.1450
     36  CG       -24.2160  -20.6950    2.1020 C.2    82  ASP82       0.3671
     37  OD1      -23.4970  -21.7130    2.1990 O.co2  82  ASP82      -0.2456
     38  OD2      -25.1750  -20.6100    1.3050 O.co2  82  ASP82      -0.2456
     39  N        -21.0960  -18.9740    4.5360 N.am   83  LEU83      -0.1963
     40  CA       -20.0860  -17.9600    4.8160 C.3    83  LEU83       0.1728
     41  C        -19.0490  -17.9460    3.7020 C.2    83  LEU83       0.2616
     42  O        -18.4960  -18.9860    3.3520 O.2    83  LEU83      -0.2715
     43  CB       -19.4080  -18.2180    6.1640 C.3    83  LEU83       0.0311
     44  CG       -18.1120  -17.4360    6.4070 C.3    83  LEU83       0.0022
     45  CD1      -18.3410  -15.9310    6.3300 C.3    83  LEU83       0.0001
     46  CD2      -17.5050  -17.8090    7.7410 C.3    83  LEU83       0.0001
     47  N        -18.7840  -16.7700    3.1450 N.am   84  ALA84      -0.1963
     48  CA       -17.8330  -16.6690    2.0460 C.3    84  ALA84       0.1728
     49  C        -17.1710  -15.3000    1.9880 C.2    84  ALA84       0.2616
     50  O        -17.7500  -14.2890    2.3970 O.2    84  ALA84      -0.2715
     51  CB       -18.5200  -16.9770    0.7150 C.3    84  ALA84       0.0334
     52  N        -15.9440  -15.2900    1.4830 N.am   85  VAL85      -0.1977
     53  CA       -15.1940  -14.0660    1.2630 C.3    85  VAL85       0.1596
     54  C        -14.6710  -14.0830   -0.1700 C.2    85  VAL85       0.2287
     55  O        -14.2330  -15.1260   -0.6540 O.2    85  VAL85      -0.2864
     56  CB       -14.0190  -13.9270    2.2580 C.3    85  VAL85       0.0276
     57  CG1      -13.2850  -12.6000    2.0510 C.3    85  VAL85       0.0022
     58  CG2      -14.5150  -14.0550    3.6960 C.3    85  VAL85       0.0022
     59  N         -9.7680  -11.4070   -1.3810 N.3    89  TRP89      -0.1227
     60  CA        -9.6040  -10.8900   -0.0250 C.3    89  TRP89       0.1737
     61  C         -9.5680  -11.9740    1.0510 C.2    89  TRP89       0.2595
     62  O         -9.9090  -11.7190    2.2040 O.2    89  TRP89      -0.2718
     63  CB       -10.7260   -9.8990    0.2920 C.3    89  TRP89       0.0564
     64  CG       -10.8480   -8.7960   -0.7130 C.ar   89  TRP89       0.0003
     65  CD1      -11.6950   -8.7510   -1.7820 C.ar   89  TRP89       0.0946
     66  CD2      -10.0920   -7.5800   -0.7470 C.ar   89  TRP89       0.0152
     67  NE1      -11.5150   -7.5800   -2.4780 N.ar   89  TRP89      -0.2442
     68  CE2      -10.5370   -6.8440   -1.8630 C.ar   89  TRP89       0.0810
     69  CE3       -9.0840   -7.0420    0.0580 C.ar   89  TRP89       0.0012
     70  CZ2      -10.0070   -5.5980   -2.1950 C.ar   89  TRP89       0.0191
     71  CZ3       -8.5590   -5.8040   -0.2730 C.ar   89  TRP89       0.0001
     72  CH2       -9.0220   -5.0960   -1.3890 C.ar   89  TRP89       0.0015
     73  N         -9.1400  -13.1760    0.6820 N.am   90  GLN90      -0.1965
     74  CA        -9.1040  -14.2900    1.6230 C.3    90  GLN90       0.1733
     75  C         -7.8000  -14.2940    2.4260 C.2    90  GLN90       0.2616
     76  O         -6.7730  -13.8320    1.9380 O.2    90  GLN90      -0.2715
     77  CB        -9.2900  -15.6140    0.8860 C.3    90  GLN90       0.0408
     78  CG       -10.6350  -15.7070    0.1670 C.3    90  GLN90       0.0908
     79  CD       -10.9030  -17.0750   -0.4380 C.2    90  GLN90       0.2608
     80  OE1      -10.0450  -17.9560   -0.4130 O.2    90  GLN90      -0.2717
     81  NE2      -12.1040  -17.2580   -0.9820 N.am   90  GLN90      -0.0878
     82  N         -7.8800  -14.8040    3.6570 N.am   91  ARG91      -0.1963
     83  CA        -6.7460  -14.8010    4.5710 C.3    91  ARG91       0.1729
     84  C         -6.3450  -13.3990    4.9520 C.2    91  ARG91       0.2616
     85  O         -5.1480  -13.0710    4.9500 O.2    91  ARG91      -0.2715
     86  CB        -5.5700  -15.5640    3.9740 C.3    91  ARG91       0.0348
     87  CG        -5.3260  -16.9000    4.5670 C.3    91  ARG91       0.0492
     88  CD        -3.9010  -16.9310    5.0690 C.3    91  ARG91       0.2205
     89  NE        -3.5660  -18.1930    5.7120 N.pl3  91  ARG91      -0.0865
     90  CZ        -3.6930  -18.4010    7.0160 C.cat  91  ARG91       0.5346
     91  NH1       -4.1310  -17.4510    7.8240 N.pl3  91  ARG91       0.1354
     92  NH2       -3.3780  -19.5820    7.5230 N.pl3  91  ARG91       0.1354
     93  N         -7.3140  -12.5690    5.3530 N.am   92  GLN92      -0.1963
     94  CA        -7.0070  -11.2330    5.8370 C.3    92  GLN92       0.1733
     95  C         -7.9270  -10.8330    6.9860 C.2    92  GLN92       0.2617
     96  O         -8.1520   -9.6490    7.2310 O.2    92  GLN92      -0.2715
     97  CB        -7.0960  -10.1970    4.7080 C.3    92  GLN92       0.0408
     98  CG        -6.4920  -10.6520    3.3910 C.3    92  GLN92       0.0908
     99  CD        -5.8150   -9.5420    2.6300 C.2    92  GLN92       0.2608
    100  OE1       -5.5410   -8.4730    3.1770 O.2    92  GLN92      -0.2717
    101  NE2       -5.5320   -9.7900    1.3550 N.am   92  GLN92      -0.0878
    102  N         -8.4600  -11.8330    7.6800 N.am   93  GLY93      -0.1940
    103  CA        -9.2330  -11.5970    8.8880 C.3    93  GLY93       0.2014
    104  C        -10.7110  -11.3370    8.6730 C.2    93  GLY93       0.2639
    105  O        -11.4830  -11.3360    9.6300 O.2    93  GLY93      -0.2714
    106  N        -11.1070  -11.1220    7.4230 N.am   94  ILE94      -0.1963
    107  CA       -12.4870  -10.7730    7.0980 C.3    94  ILE94       0.1727
    108  C        -13.4800  -11.8230    7.5890 C.2    94  ILE94       0.2617
    109  O        -14.5140  -11.4870    8.1650 O.2    94  ILE94      -0.2715
    110  CB       -12.6690  -10.5770    5.5820 C.3    94  ILE94       0.0290
    111  CG1      -11.7230   -9.4840    5.0720 C.3    94  ILE94       0.0022
    112  CG2      -14.1090  -10.2330    5.2610 C.3    94  ILE94       0.0023
    113  CD1      -12.0120   -9.0260    3.6590 C.3    94  ILE94       0.0001
    114  N        -13.1510  -13.0910    7.3740 N.am   95  GLY95      -0.1940
    115  CA       -14.0010  -14.1850    7.8070 C.3    95  GLY95       0.2014
    116  C        -14.2600  -14.2140    9.3010 C.2    95  GLY95       0.2638
    117  O        -15.4080  -14.2800    9.7380 O.2    95  GLY95      -0.2714
    118  N        -13.1940  -14.1630   10.0910 N.am   96  LYS96      -0.1977
    119  CA       -13.3290  -14.2430   11.5410 C.3    96  LYS96       0.1596
    120  C        -14.0580  -13.0350   12.1130 C.2    96  LYS96       0.2287
    121  O        -14.7830  -13.1490   13.1000 O.2    96  LYS96      -0.2864
    122  CB       -11.9650  -14.3690   12.2090 C.3    96  LYS96       0.0298
    123  CG       -12.0600  -14.5390   13.7140 C.3    96  LYS96       0.0038
    124  CD       -10.7960  -14.0820   14.4140 C.3    96  LYS96       0.0206
    125  CE       -10.5200  -14.9520   15.6230 C.3    96  LYS96       0.1093
    126  NZ       -10.6040  -16.3920   15.2480 N.3    96  LYS96      -0.1314
    127  N        -22.5570  -24.0250   13.1720 N.3   116  VAL116     -0.1231
    128  CA       -22.1980  -23.9200   11.7670 C.3   116  VAL116      0.1692
    129  C        -21.6360  -25.2610   11.3410 C.2   116  VAL116      0.2592
    130  O        -21.1130  -26.0100   12.1670 O.2   116  VAL116     -0.2718
    131  CB       -21.1590  -22.7990   11.5210 C.3   116  VAL116      0.0266
    132  CG1      -19.8300  -23.1560   12.1730 C.3   116  VAL116      0.0020
    133  CG2      -20.9730  -22.5310   10.0320 C.3   116  VAL116      0.0020
    134  N        -21.7500  -25.5770   10.0600 N.am  117  GLN117     -0.1966
    135  CA       -21.2580  -26.8520    9.5800 C.3   117  GLN117      0.1733
    136  C        -20.3660  -26.6920    8.3630 C.2   117  GLN117      0.2616
    137  O        -20.4220  -25.6850    7.6540 O.2   117  GLN117     -0.2715
    138  CB       -22.4290  -27.7860    9.2820 C.3   117  GLN117      0.0408
    139  CG       -22.9850  -28.4190   10.5480 C.3   117  GLN117      0.0908
    140  CD       -24.3840  -28.9580   10.3810 C.2   117  GLN117      0.2608
    141  OE1      -24.9170  -29.6130   11.2770 O.2   117  GLN117     -0.2717
    142  NE2      -24.9930  -28.6830    9.2340 N.am  117  GLN117     -0.0878
    143  N        -19.5250  -27.6930    8.1490 N.am  118  ALA118     -0.1963
    144  CA       -18.5800  -27.6900    7.0480 C.3   118  ALA118      0.1728
    145  C        -18.3090  -29.1380    6.6700 C.2   118  ALA118      0.2616
    146  O        -18.1810  -29.9860    7.5370 O.2   118  ALA118     -0.2715
    147  CB       -17.3010  -26.9810    7.4390 C.3   118  ALA118      0.0334
    148  N        -18.2390  -29.4220    5.3750 N.am  119  ASP119     -0.1971
    149  CA       -18.0640  -30.8090    4.9550 C.3   119  ASP119      0.1709
    150  C        -16.6520  -31.2810    5.2740 C.2   119  ASP119      0.2293
    151  O        -15.7210  -30.4940    5.3860 O.2   119  ASP119     -0.2864
    152  CB       -18.3470  -30.9810    3.4670 C.3   119  ASP119      0.1436
    153  CG       -19.4670  -30.1030    2.9820 C.2   119  ASP119      0.3671
    154  OD1      -20.6530  -30.4400    3.2080 O.co2 119  ASP119     -0.2456
    155  OD2      -19.1540  -29.0690    2.3600 O.co2 119  ASP119     -0.2456
    156  N        -13.7410  -30.6490    3.1090 N.3   122  ASP122     -0.1239
    157  CA       -13.5950  -29.2100    2.9340 C.3   122  ASP122      0.1674
    158  C        -12.6210  -28.6560    3.9680 C.2   122  ASP122      0.2266
    159  O        -13.0360  -28.0990    4.9830 O.2   122  ASP122     -0.2867
    160  CB       -14.9610  -28.5330    3.0640 C.3   122  ASP122      0.1410
    161  CG       -14.9960  -27.1570    2.4480 C.2   122  ASP122      0.3668
    162  OD1      -13.9250  -26.6530    2.0580 O.co2 122  ASP122     -0.2456
    163  OD2      -16.0990  -26.5760    2.3620 O.co2 122  ASP122     -0.2456
    164  N        -10.0240  -26.3160    3.8600 N.3   124  TYR124     -0.1227
    165  CA        -9.7170  -24.8990    4.0140 C.3   124  TYR124      0.1736
    166  C        -10.7430  -24.2650    4.9550 C.2   124  TYR124      0.2595
    167  O        -10.4170  -23.3710    5.7330 O.2   124  TYR124     -0.2718
    168  CB        -9.6760  -24.1730    2.6590 C.3   124  TYR124      0.0548
    169  CG       -10.9730  -24.1470    1.8700 C.ar  124  TYR124     -0.0200
    170  CD1      -11.9580  -23.1990    2.1370 C.ar  124  TYR124     -0.0009
    171  CD2      -11.1950  -25.0420    0.8310 C.ar  124  TYR124     -0.0009
    172  CE1      -13.1360  -23.1660    1.4130 C.ar  124  TYR124      0.0417
    173  CE2      -12.3700  -25.0100    0.0960 C.ar  124  TYR124      0.0417
    174  CZ       -13.3370  -24.0710    0.3940 C.ar  124  TYR124      0.1957
    175  OH       -14.5050  -24.0400   -0.3340 O.3   124  TYR124     -0.2866
    176  N        -11.9740  -24.7600    4.9040 N.am  125  ALA125     -0.1980
    177  CA       -13.0380  -24.2580    5.7670 C.3   125  ALA125      0.1597
    178  C        -12.9020  -24.7930    7.1900 C.2   125  ALA125      0.2287
    179  O        -13.1790  -24.0850    8.1570 O.2   125  ALA125     -0.2864
    180  CB       -14.3970  -24.6210    5.1930 C.3   125  ALA125      0.0319
    181  N        -10.0800  -25.6350    8.7630 N.3   127  ASP127     -0.1225
    182  CA        -9.0180  -24.9390    9.4800 C.3   127  ASP127      0.1805
    183  C         -9.4980  -23.5570    9.9030 C.2   127  ASP127      0.2598
    184  O         -9.1080  -23.0530   10.9560 O.2   127  ASP127     -0.2718
    185  CB        -7.7490  -24.8300    8.6250 C.3   127  ASP127      0.1424
    186  CG        -7.1130  -26.1860    8.3430 C.2   127  ASP127      0.3668
    187  OD1       -6.5860  -26.8120    9.2860 O.co2 127  ASP127     -0.2456
    188  OD2       -7.1280  -26.6250    7.1730 O.co2 127  ASP127     -0.2456
    189  N        -10.3780  -22.9510    9.1110 N.am  128  PHE128     -0.1962
    190  CA       -10.9360  -21.6540    9.4700 C.3   128  PHE128      0.1771
    191  C        -11.7600  -21.7220   10.7510 C.2   128  PHE128      0.2619
    192  O        -11.4880  -20.9970   11.7030 O.2   128  PHE128     -0.2715
    193  CB       -11.8060  -21.0880    8.3500 C.3   128  PHE128      0.0574
    194  CG       -12.6160  -19.8960    8.7730 C.ar  128  PHE128     -0.0200
    195  CD1      -12.0090  -18.6630    8.9610 C.ar  128  PHE128     -0.0042
    196  CD2      -13.9780  -20.0130    9.0090 C.ar  128  PHE128     -0.0042
    197  CE1      -12.7480  -17.5640    9.3590 C.ar  128  PHE128     -0.0003
    198  CE2      -14.7230  -18.9220    9.4100 C.ar  128  PHE128     -0.0003
    199  CZ       -14.1110  -17.6940    9.5850 C.ar  128  PHE128     -0.0000
    200  N        -12.7700  -22.5890   10.7690 N.am  129  TYR129     -0.1974
    201  CA       -13.6720  -22.6800   11.9140 C.3   129  TYR129      0.1639
    202  C        -12.9520  -23.1330   13.1880 C.2   129  TYR129      0.2290
    203  O        -13.3910  -22.8300   14.2950 O.2   129  TYR129     -0.2864
    204  CB       -14.8440  -23.6200   11.6040 C.3   129  TYR129      0.0560
    205  CG       -15.8400  -23.0360   10.6240 C.ar  129  TYR129     -0.0198
    206  CD1      -16.5280  -21.8650   10.9220 C.ar  129  TYR129     -0.0009
    207  CD2      -16.0960  -23.6530    9.4050 C.ar  129  TYR129     -0.0009
    208  CE1      -17.4360  -21.3200   10.0350 C.ar  129  TYR129      0.0417
    209  CE2      -17.0060  -23.1150    8.5100 C.ar  129  TYR129      0.0417
    210  CZ       -17.6740  -21.9480    8.8310 C.ar  129  TYR129      0.1957
    211  OH       -18.5790  -21.3980    7.9520 O.3   129  TYR129     -0.2866
    212  N        -10.1920  -22.0680   14.0190 N.3   131  SER131     -0.1217
    213  CA        -9.4250  -20.9050   14.4330 C.3   131  SER131      0.1889
    214  C        -10.2940  -19.8820   15.1300 C.2   131  SER131      0.2288
    215  O         -9.7980  -18.8890   15.6640 O.2   131  SER131     -0.2866
    216  CB        -8.7740  -20.2570   13.2360 C.3   131  SER131      0.2089
    217  OG        -7.8080  -21.1170   12.6500 O.3   131  SER131     -0.2183
@<TRIPOS>BOND
     1    11    10    2
     2    10     9    1
     3     1     2    1
     4     2     3    1
     5     2     5    1
     6     4     3    2
     7     3     8   am
     8     8     9    1
     9     9    12    1
    10    12    13    1
    11     7     5    1
    12     5     6    1
    13    67    68   ar
    14    67    65   ar
    15    13    15   ar
    16    13    14   ar
    17    70    68   ar
    18    70    72   ar
    19    68    66   ar
    20    15    17   ar
    21    65    64   ar
    22    14    16   ar
    23    72    71   ar
    24    59    60    1
    25    81    79   am
    26    66    64   ar
    27    66    69   ar
    28    64    63    1
    29    55    54    2
    30    17    18   ar
    31    79    80    2
    32    79    78    1
    33   175   174    1
    34    71    69   ar
    35    54    53    1
    36    16    18   ar
    37    60    63    1
    38    60    61    1
    39   173   174   ar
    40   173   171   ar
    41    78    77    1
    42   174   172   ar
    43    73    61   am
    44    73    74    1
    45    51    48    1
    46   171   169   ar
    47    77    74    1
    48    61    62    2
    49    53    52    1
    50    53    56    1
    51    38    36   ar
    52   101    99   am
    53   172   170   ar
    54    52    49   am
    55    74    75    1
    56   169   170   ar
    57   169   168    1
    58    76    75    2
    59    49    48    1
    60    49    50    2
    61    48    47    1
    62    57    56    1
    63   162   161   ar
    64    36    37   ar
    65    36    35    1
    66    56    58    1
    67    30    29    1
    68   155   153   ar
    69   163   161   ar
    70    75    82   am
    71   161   160    1
    72    99   100    2
    73    99    98    1
    74   168   165    1
    75    28    29   ar
    76    28    26   ar
    77   157   160    1
    78   157   156    1
    79   157   158    1
    80    35    32    1
    81   153   154   ar
    82   153   152    1
    83    47    41   am
    84    29    27   ar
    85    42    41    2
    86    98    97    1
    87   152   149    1
    88    82    83    1
    89   113   111    1
    90    41    40    1
    91    26    24   ar
    92   164   165    1
    93   158   159    2
    94    86    87    1
    95    86    83    1
    96   165   166    1
    97    32    33    1
    98    32    31    1
    99    39    40    1
   100    39    33   am
   101    87    88    1
   102    83    84    1
   103    27    25   ar
   104    97    94    1
   105    40    43    1
   106    33    34    2
   107   176   166   am
   108   176   177    1
   109    85    84    2
   110    84    93   am
   111   166   167    2
   112   149   150    1
   113   149   148    1
   114    88    89    1
   115   111   110    1
   116    24    25   ar
   117    24    23    1
   118   180   177    1
   119   112   110    1
   120   150   151    2
   121    31    21   am
   122    93    94    1
   123   148   145   am
   124    22    21    2
   125   110   107    1
   126    89    90    2
   127   177   178    1
   128    21    20    1
   129    94    95    1
   130    23    20    1
   131    43    44    1
   132    45    44    1
   133    44    46    1
   134   145   144    1
   135   145   146    2
   136    20    19    1
   137    95    96    2
   138    95   102   am
   139    90    92    1
   140    90    91    1
   141   144   147    1
   142   144   143    1
   143   107   106    1
   144   107   108    1
   145   188   186   ar
   146   178   179    2
   147   114   108   am
   148   114   115    1
   149   106   104   am
   150   108   109    2
   151   137   136    2
   152   102   103    1
   153   115   116    1
   154   211   210    1
   155   143   136   am
   156   186   185    1
   157   186   187   ar
   158   193   194    1
   159   193   190    1
   160   136   135    1
   161   209   210   ar
   162   209   207   ar
   163   185   182    1
   164   104   103    1
   165   104   105    2
   166   181   182    1
   167   194   195   ar
   168   194   196   ar
   169   210   208   ar
   170   195   197   ar
   171   196   198   ar
   172   189   190    1
   173   189   183   am
   174   142   140   am
   175   138   135    1
   176   138   139    1
   177   116   117    2
   178   116   118   am
   179   197   199   ar
   180   207   205   ar
   181   198   199   ar
   182   190   191    1
   183   182   183    1
   184   135   134    1
   185   183   184    2
   186   133   131    1
   187   208   206   ar
   188   134   129   am
   189   118   119    1
   190   140   139    1
   191   140   141    2
   192   205   206   ar
   193   205   204    1
   194   191   200   am
   195   191   192    2
   196   200   201    1
   197   129   128    1
   198   129   130    2
   199   131   128    1
   200   131   132    1
   201   119   120    1
   202   119   122    1
   203   204   201    1
   204   128   127    1
   205   201   202    1
   206   120   121    2
   207   122   123    1
   208   217   216    1
   209   202   203    2
   210   216   213    1
   211   123   124    1
   212   212   213    1
   213   124   125    1
   214   213   214    1
   215   214   215    2
   216   126   125    1
