@<TRIPOS>MOLECULE
tmp/5f4nA01.pdb
 102 97 0 0 0
SMALL
GASTEIGER

@<TRIPOS>ATOM
      1  N          4.5670    2.1360   -7.9350 N.3     3  GLU3       -0.1245
      2  CA         4.1970    1.2310   -6.8590 C.3     3  GLU3        0.1567
      3  C          5.0750   -0.0380   -6.8190 C.2     3  GLU3        0.2260
      4  O          4.8850   -0.8770   -5.9510 O.2     3  GLU3       -0.2867
      5  CB         2.7210    0.8480   -6.9670 C.3     3  GLU3        0.0388
      6  CG         2.2690    0.2280   -8.2120 C.3     3  GLU3        0.1160
      7  CD         1.9680    1.1140   -9.3900 C.2     3  GLU3        0.3649
      8  OE1        2.3690    2.2750   -9.4790 O.co2   3  GLU3       -0.2457
      9  OE2        1.2220    0.5630  -10.2860 O.co2   3  GLU3       -0.2457
     10  N          8.4650   -2.0940   -6.0900 N.3     5  TRP5       -0.1241
     11  CA         9.5940   -2.0830   -5.1700 C.3     5  TRP5        0.1605
     12  C         10.4340   -3.3280   -5.3590 C.2     5  TRP5        0.2264
     13  O          9.8840   -4.4140   -5.5180 O.2     5  TRP5       -0.2867
     14  CB         9.0790   -2.0110   -3.7130 C.3     5  TRP5        0.0550
     15  CG         8.3220   -0.7500   -3.4090 C.ar    5  TRP5        0.0003
     16  CD1        7.0210   -0.4780   -3.7200 C.ar    5  TRP5        0.0946
     17  CD2        8.8360    0.4240   -2.7630 C.ar    5  TRP5        0.0152
     18  NE1        6.7000    0.8030   -3.3310 N.ar    5  TRP5       -0.2442
     19  CE2        7.7980    1.3820   -2.7490 C.ar    5  TRP5        0.0810
     20  CE3       10.0900    0.7790   -2.2380 C.ar    5  TRP5        0.0012
     21  CZ2        7.9680    2.6600   -2.2020 C.ar    5  TRP5        0.0191
     22  CZ3       10.2630    2.0500   -1.7190 C.ar    5  TRP5        0.0001
     23  CH2        9.2060    2.9700   -1.6880 C.ar    5  TRP5        0.0015
     24  N         13.3550   -5.8970   -3.7500 N.3     7  LEU7       -0.1245
     25  CA        13.9430   -6.3200   -2.4850 C.3     7  LEU7        0.1561
     26  C         15.4310   -6.5070   -2.7220 C.2     7  LEU7        0.2260
     27  O         15.8240   -7.3240   -3.5500 O.2     7  LEU7       -0.2867
     28  CB        13.2370   -7.5830   -1.9490 C.3     7  LEU7        0.0270
     29  CG        11.7560   -7.3790   -1.5610 C.3     7  LEU7        0.0019
     30  CD1       11.0090   -8.6980   -1.5030 C.3     7  LEU7        0.0001
     31  CD2       11.6170   -6.6110   -0.2420 C.3     7  LEU7        0.0001
     32  N         13.9320   -2.4960    0.7150 N.3    22  ALA22      -0.1245
     33  CA        13.2120   -2.4070   -0.5460 C.3    22  ALA22       0.1562
     34  C         13.5370   -1.0720   -1.1560 C.2    22  ALA22       0.2260
     35  O         13.6530   -0.0850   -0.4390 O.2    22  ALA22      -0.2867
     36  CB        11.7220   -2.5410   -0.3290 C.3    22  ALA22       0.0290
     37  N         13.8330    5.4390   -3.9210 N.3    29  GLU29      -0.1231
     38  CA        13.5990    5.6710   -2.4950 C.3    29  GLU29       0.1699
     39  C         13.6700    4.3140   -1.8060 C.2    29  GLU29       0.2592
     40  O         13.1830    3.3210   -2.3500 O.2    29  GLU29      -0.2718
     41  CB        12.2120    6.2920   -2.2430 C.3    29  GLU29       0.0402
     42  CG        12.1210    7.7830   -2.5250 C.3    29  GLU29       0.1161
     43  CD        10.6970    8.3110   -2.5560 C.2    29  GLU29       0.3649
     44  OE1        9.8200    7.6360   -3.1450 O.co2  29  GLU29      -0.2457
     45  OE2       10.4600    9.4080   -2.0010 O.co2  29  GLU29      -0.2457
     46  N         14.3180    4.2690   -0.6460 N.am   30  ALA30      -0.1966
     47  CA        14.4760    3.0560    0.1470 C.3    30  ALA30       0.1728
     48  C         13.4850    3.0250    1.3130 C.2    30  ALA30       0.2616
     49  O         13.1270    4.0670    1.8620 O.2    30  ALA30      -0.2715
     50  CB        15.9020    2.9570    0.6660 C.3    30  ALA30       0.0334
     51  N         13.0080    1.8240    1.6490 N.am   31  VAL31      -0.1977
     52  CA        12.1050    1.5580    2.7690 C.3    31  VAL31       0.1596
     53  C         12.5520    0.2470    3.4110 C.2    31  VAL31       0.2287
     54  O         13.0390   -0.6520    2.7050 O.2    31  VAL31      -0.2864
     55  CB        10.5870    1.4860    2.3880 C.3    31  VAL31       0.0276
     56  CG1       10.0560    2.8100    1.8550 C.3    31  VAL31       0.0022
     57  CG2       10.2890    0.3520    1.4260 C.3    31  VAL31       0.0022
     58  N         11.1390   -3.0140    5.0060 N.3    33  VAL33      -0.1245
     59  CA         9.9050   -3.7900    5.0250 C.3    33  VAL33       0.1561
     60  C          9.9780   -4.8190    6.1390 C.2    33  VAL33       0.2260
     61  O         10.8470   -5.6930    6.1180 O.2    33  VAL33      -0.2867
     62  CB         9.5800   -4.4410    3.6440 C.3    33  VAL33       0.0252
     63  CG1        8.2980   -5.2590    3.7100 C.3    33  VAL33       0.0019
     64  CG2        9.4770   -3.3830    2.5500 C.3    33  VAL33       0.0019
     65  N          5.1210    4.2890    6.8040 N.3    58  TYR58      -0.1227
     66  CA         4.5920    4.6810    5.4940 C.3    58  TYR58       0.1736
     67  C          3.2740    3.9940    5.1630 C.2    58  TYR58       0.2596
     68  O          2.4750    4.5260    4.3960 O.2    58  TYR58      -0.2718
     69  CB         5.6310    4.4180    4.3950 C.3    58  TYR58       0.0548
     70  CG         6.9770    5.0680    4.6380 C.ar   58  TYR58      -0.0200
     71  CD1        7.1080    6.4560    4.6710 C.ar   58  TYR58      -0.0009
     72  CD2        8.1310    4.3010    4.7550 C.ar   58  TYR58      -0.0009
     73  CE1        8.3520    7.0620    4.8560 C.ar   58  TYR58       0.0417
     74  CE2        9.3760    4.8950    4.9510 C.ar   58  TYR58       0.0417
     75  CZ         9.4830    6.2770    5.0010 C.ar   58  TYR58       0.1957
     76  OH        10.7160    6.8720    5.1400 O.3    58  TYR58      -0.2866
     77  N          3.0660    2.8180    5.7380 N.am   59  GLY59      -0.1957
     78  CA         1.8620    2.0330    5.5040 C.3    59  GLY59       0.1869
     79  C          2.0690    0.5580    5.7420 C.2    59  GLY59       0.2309
     80  O          3.1180    0.1340    6.2380 O.2    59  GLY59      -0.2863
     81  N          0.4120   -3.6740    4.3260 N.3    61  ARG61      -0.1245
     82  CA        -0.3330   -4.5270    3.4050 C.3    61  ARG61       0.1563
     83  C         -0.3500   -5.9590    3.9240 C.2    61  ARG61       0.2260
     84  O          0.6820   -6.4670    4.3780 O.2    61  ARG61      -0.2867
     85  CB         0.2790   -4.4750    1.9980 C.3    61  ARG61       0.0307
     86  CG        -0.4540   -5.3130    0.9560 C.3    61  ARG61       0.0489
     87  CD         0.1450   -5.2700   -0.4450 C.3    61  ARG61       0.2205
     88  NE         1.6120   -5.2500   -0.4310 N.pl3  61  ARG61      -0.0865
     89  CZ         2.3240   -6.3420   -0.6210 C.cat  61  ARG61       0.5346
     90  NH1        1.7370   -7.4980   -0.8300 N.pl3  61  ARG61       0.1354
     91  NH2        3.6440   -6.3040   -0.5950 N.pl3  61  ARG61       0.1354
     92  N          5.6400   -1.1010    6.0850 N.3    70  PHE70      -0.1241
     93  CA         6.5530   -0.2310    5.3240 C.3    70  PHE70       0.1605
     94  C          7.0900    0.8680    6.2360 C.2    70  PHE70       0.2264
     95  O          6.3530    1.7570    6.6580 O.2    70  PHE70      -0.2867
     96  CB         5.8680    0.2940    4.0470 C.3    70  PHE70       0.0534
     97  CG         5.1740   -0.8030    3.2570 C.ar   70  PHE70      -0.0203
     98  CD1        5.8710   -1.9350    2.8380 C.ar   70  PHE70      -0.0042
     99  CD2        3.8140   -0.7290    2.9800 C.ar   70  PHE70      -0.0042
    100  CE1        5.2240   -2.9560    2.1210 C.ar   70  PHE70      -0.0003
    101  CE2        3.1690   -1.7470    2.2640 C.ar   70  PHE70      -0.0003
    102  CZ         3.8800   -2.8530    1.8350 C.ar   70  PHE70      -0.0000
@<TRIPOS>BOND
     1     9     7   ar
     2     8     7   ar
     3     7     6    1
     4     6     5    1
     5     1     2    1
     6     5     2    1
     7     2     3    1
     8     3     4    2
     9    10    11    1
    10    13    12    2
    11    12    11    1
    12    11    14    1
    13    37    38    1
    14    24    25    1
    15    16    15   ar
    16    16    18   ar
    17    14    15    1
    18    27    26    2
    19    15    17   ar
    20    18    19   ar
    21    44    43   ar
    22    17    19   ar
    23    17    20   ar
    24    19    21   ar
    25    26    25    1
    26    43    42    1
    27    43    45   ar
    28    42    41    1
    29    38    41    1
    30    38    39    1
    31    25    28    1
    32    40    39    2
    33    20    22   ar
    34    21    23   ar
    35    28    29    1
    36    39    46   am
    37    22    23   ar
    38    29    30    1
    39    29    31    1
    40    34    33    1
    41    34    35    2
    42    90    89    1
    43    46    47    1
    44    89    91    1
    45    89    88    2
    46    33    36    1
    47    33    32    1
    48    87    88    1
    49    87    86    1
    50    47    50    1
    51    47    48    1
    52    86    85    1
    53    48    51   am
    54    48    49    2
    55    57    55    1
    56    51    52    1
    57   102   100   ar
    58   102   101   ar
    59    56    55    1
    60    85    82    1
    61   100    98   ar
    62   101    99   ar
    63    55    52    1
    64    64    62    1
    65    54    53    2
    66    52    53    1
    67    98    97   ar
    68    99    97   ar
    69    97    96    1
    70    82    83    1
    71    82    81    1
    72    62    63    1
    73    62    59    1
    74    83    84    2
    75    96    93    1
    76    69    70    1
    77    69    66    1
    78    68    67    2
    79    70    71   ar
    80    70    72   ar
    81    71    73   ar
    82    72    74   ar
    83    73    75   ar
    84    74    75   ar
    85    75    76    1
    86    58    59    1
    87    59    60    1
    88    67    66    1
    89    67    77   am
    90    93    92    1
    91    93    94    1
    92    66    65    1
    93    78    77    1
    94    78    79    1
    95    79    80    2
    96    61    60    2
    97    94    95    2
