@<TRIPOS>MOLECULE
tmp/5f4nA00.pdb
 163 153 0 0 0
SMALL
GASTEIGER

@<TRIPOS>ATOM
      1  N         18.0820   -6.8590    5.8450 N.3    11  LEU11      -0.1231
      2  CA        18.6530   -5.9580    6.8420 C.3    11  LEU11       0.1693
      3  C         18.9120   -6.5500    8.2320 C.2    11  LEU11       0.2593
      4  O         19.8890   -6.2180    8.8930 O.2    11  LEU11      -0.2718
      5  CB        17.7890   -4.7010    6.9520 C.3    11  LEU11       0.0284
      6  CG        17.7180   -3.8800    5.6680 C.3    11  LEU11       0.0019
      7  CD1       16.6710   -2.7860    5.7710 C.3    11  LEU11       0.0001
      8  CD2       19.0830   -3.3030    5.3400 C.3    11  LEU11       0.0001
      9  N         18.0010   -7.4050    8.6700 N.am   12  GLY12      -0.1942
     10  CA        18.0500   -8.0040    9.9900 C.3    12  GLY12       0.2014
     11  C         16.9660   -9.0320   10.2040 C.2    12  GLY12       0.2638
     12  O         16.1080   -9.2480    9.3420 O.2    12  GLY12      -0.2714
     13  N         17.0160   -9.6700   11.3650 N.am   13  GLU13      -0.1977
     14  CA        16.0660  -10.6970   11.7530 C.3    13  GLU13       0.1602
     15  C         15.3480  -10.2930   13.0210 C.2    13  GLU13       0.2287
     16  O         15.9280   -9.6470   13.8990 O.2    13  GLU13      -0.2864
     17  CB        16.7680  -12.0550   11.9390 C.3    13  GLU13       0.0415
     18  CG        17.3840  -12.6310   10.6480 C.3    13  GLU13       0.1163
     19  CD        16.3530  -13.2450    9.6850 C.2    13  GLU13       0.3649
     20  OE1       15.1560  -13.3980   10.0390 O.co2  13  GLU13      -0.2457
     21  OE2       16.7530  -13.5870    8.5550 O.co2  13  GLU13      -0.2457
     22  N         13.3830   -8.2390    8.2680 N.3    19  VAL19      -0.1245
     23  CA        13.3340   -6.8310    7.9050 C.3    19  VAL19       0.1561
     24  C         14.1910   -6.7930    6.6400 C.2    19  VAL19       0.2260
     25  O         15.3640   -7.1850    6.6750 O.2    19  VAL19      -0.2867
     26  CB        13.8450   -5.8600    8.9990 C.3    19  VAL19       0.0252
     27  CG1       13.7600   -4.4160    8.5170 C.3    19  VAL19       0.0019
     28  CG2       13.0640   -6.0270   10.2990 C.3    19  VAL19       0.0019
     29  N         12.3630    0.1270    4.7300 N.3    32  ALA32      -0.1245
     30  CA        12.6270   -1.1130    5.4380 C.3    32  ALA32       0.1562
     31  C         11.2530   -1.8040    5.5610 C.2    32  ALA32       0.2260
     32  O         10.3010   -1.2150    6.0890 O.2    32  ALA32      -0.2867
     33  CB        13.2150   -0.8320    6.8130 C.3    32  ALA32       0.0290
     34  N          9.0770   -4.7040    7.1150 N.3    34  LYS34      -0.1245
     35  CA         8.9950   -5.6440    8.2360 C.3    34  LYS34       0.1561
     36  C          7.9710   -6.7090    7.8420 C.2    34  LYS34       0.2260
     37  O          6.8320   -6.3680    7.5080 O.2    34  LYS34      -0.2867
     38  CB         8.5870   -4.9310    9.5340 C.3    34  LYS34       0.0271
     39  CG         8.6020   -5.8510   10.7510 C.3    34  LYS34       0.0035
     40  CD         8.3260   -5.0800   12.0190 C.3    34  LYS34       0.0206
     41  CE         8.5320   -5.9440   13.2210 C.3    34  LYS34       0.1093
     42  NZ         8.4540   -5.1570   14.4680 N.3    34  LYS34      -0.1314
     43  N          0.6900   -2.9630   16.7330 N.3    42  GLU42      -0.1245
     44  CA         1.9060   -2.3230   16.2190 C.3    42  GLU42       0.1567
     45  C          1.5340   -1.3710   15.0750 C.2    42  GLU42       0.2260
     46  O          2.0530   -0.2660   15.0100 O.2    42  GLU42      -0.2867
     47  CB         2.9190   -3.3710   15.7260 C.3    42  GLU42       0.0388
     48  CG         4.2020   -2.7590   15.1650 C.3    42  GLU42       0.1160
     49  CD         5.3270   -3.7450   14.9260 C.2    42  GLU42       0.3649
     50  OE1        5.1720   -4.9200   15.3200 O.co2  42  GLU42      -0.2457
     51  OE2        6.3740   -3.3380   14.3740 O.co2  42  GLU42      -0.2457
     52  N          1.7300    2.6470   15.2530 N.3    46  ASN46      -0.1240
     53  CA         2.5520    3.2860   14.2090 C.3    46  ASN46       0.1653
     54  C          1.8360    4.4260   13.4650 C.2    46  ASN46       0.2266
     55  O          2.4650    5.4450   13.1610 O.2    46  ASN46      -0.2867
     56  CB         3.0850    2.2520   13.2290 C.3    46  ASN46       0.1155
     57  CG         4.5130    1.8750   13.5160 C.2    46  ASN46       0.2627
     58  OD1        5.4440    2.6560   13.3000 O.2    46  ASN46      -0.2716
     59  ND2        4.7130    0.6810   14.0320 N.am   46  ASN46      -0.0877
     60  N         11.0390    6.3510   14.0440 N.3    55  VAL55      -0.1245
     61  CA        11.0010    5.7320   12.7280 C.3    55  VAL55       0.1561
     62  C          9.6340    6.0190   12.0800 C.2    55  VAL55       0.2260
     63  O          8.5860    5.7930   12.7010 O.2    55  VAL55      -0.2867
     64  CB        11.3120    4.2020   12.8330 C.3    55  VAL55       0.0252
     65  CG1       10.8200    3.4350   11.5920 C.3    55  VAL55       0.0019
     66  CG2       12.8070    3.9670   13.0650 C.3    55  VAL55       0.0019
     67  N          8.3660    0.7440    6.6050 N.3    71  LEU71      -0.1231
     68  CA         9.0060    1.5930    7.6020 C.3    71  LEU71       0.1693
     69  C         10.2370    2.3270    7.1160 C.2    71  LEU71       0.2592
     70  O         10.7910    1.9970    6.0670 O.2    71  LEU71      -0.2718
     71  CB         9.3340    0.7500    8.8540 C.3    71  LEU71       0.0284
     72  CG         8.1220    0.1190    9.5690 C.3    71  LEU71       0.0019
     73  CD1        8.5290   -1.1530   10.3240 C.3    71  LEU71       0.0001
     74  CD2        7.4350    1.1320   10.4850 C.3    71  LEU71       0.0001
     75  N         10.6570    3.3340    7.8840 N.am   72  GLU72      -0.1966
     76  CA        11.8200    4.1370    7.5390 C.3    72  GLU72       0.1733
     77  C         13.1120    3.3170    7.4980 C.2    72  GLU72       0.2616
     78  O         13.4390    2.6110    8.4640 O.2    72  GLU72      -0.2715
     79  CB        11.9720    5.2950    8.5390 C.3    72  GLU72       0.0429
     80  CG        13.0530    6.2940    8.1670 C.3    72  GLU72       0.1163
     81  CD        13.0760    7.5370    9.0290 C.2    72  GLU72       0.3649
     82  OE1       13.9740    8.3820    8.8130 O.co2  72  GLU72      -0.2457
     83  OE2       12.2100    7.6660    9.9270 O.co2  72  GLU72      -0.2457
     84  N         13.8470    3.4500    6.3920 N.am   73  TYR73      -0.1960
     85  CA        15.1620    2.8640    6.2240 C.3    73  TYR73       0.1771
     86  C         16.1280    3.9030    6.7640 C.2    73  TYR73       0.2620
     87  O         16.2090    5.0250    6.2620 O.2    73  TYR73      -0.2715
     88  CB        15.4780    2.5270    4.7490 C.3    73  TYR73       0.0574
     89  CG        16.9190    2.1090    4.5440 C.ar   73  TYR73      -0.0198
     90  CD1       17.4120    0.9300    5.1010 C.ar   73  TYR73      -0.0009
     91  CD2       17.7920    2.8920    3.7940 C.ar   73  TYR73      -0.0009
     92  CE1       18.7440    0.5510    4.9300 C.ar   73  TYR73       0.0417
     93  CE2       19.1160    2.5040    3.5870 C.ar   73  TYR73       0.0417
     94  CZ        19.5950    1.3460    4.1800 C.ar   73  TYR73       0.1957
     95  OH        20.9000    0.9640    3.9830 O.3    73  TYR73      -0.2866
     96  N         16.8200    3.5280    7.8210 N.am   74  CYS74      -0.1954
     97  CA        17.7430    4.3600    8.5760 C.3    74  CYS74       0.1843
     98  C         19.1160    3.8300    8.2370 C.2    74  CYS74       0.2626
     99  O         19.6050    2.9010    8.8770 O.2    74  CYS74      -0.2714
    100  CB        17.4270    4.2320   10.0670 C.3    74  CYS74       0.0997
    101  SG        15.7490    4.7540   10.5120 S.3    74  CYS74      -0.0797
    102  N         19.7140    4.4070    7.1970 N.am   75  SER75      -0.1936
    103  CA        20.9680    3.9730    6.5580 C.3    75  SER75       0.2055
    104  C         22.1950    3.9200    7.4930 C.2    75  SER75       0.2644
    105  O         23.1430    3.2070    7.1890 O.2    75  SER75      -0.2714
    106  CB        21.2600    4.8160    5.3200 C.3    75  SER75       0.2130
    107  OG        21.6210    6.1460    5.6620 O.3    75  SER75      -0.2179
    108  N         22.1430    4.6210    8.6230 N.am   76  GLY76      -0.1939
    109  CA        23.2190    4.6070    9.6120 C.3    76  GLY76       0.2014
    110  C         23.2170    3.3630   10.4970 C.2    76  GLY76       0.2639
    111  O         24.1490    3.1550   11.2770 O.2    76  GLY76      -0.2714
    112  N         22.1750    2.5440   10.3810 N.am   77  GLY77      -0.1939
    113  CA        22.0250    1.3010   11.1270 C.3    77  GLY77       0.2014
    114  C         21.7010    1.4890   12.5990 C.2    77  GLY77       0.2638
    115  O         21.2110    2.5400   13.0170 O.2    77  GLY77      -0.2714
    116  N         22.0420    0.4930   13.4060 N.am   78  GLU78      -0.1977
    117  CA        21.7620    0.5190   14.8380 C.3    78  GLU78       0.1602
    118  C         22.7870    1.2910   15.6180 C.2    78  GLU78       0.2287
    119  O         23.9870    1.1910   15.3430 O.2    78  GLU78      -0.2864
    120  CB        21.7260   -0.9060   15.4150 C.3    78  GLU78       0.0415
    121  CG        20.7290   -1.8310   14.7560 C.3    78  GLU78       0.1163
    122  CD        20.7820   -3.2360   15.3090 C.2    78  GLU78       0.3649
    123  OE1       19.8570   -4.0180   15.0100 O.co2  78  GLU78      -0.2457
    124  OE2       21.7000   -3.5290   16.1060 O.co2  78  GLU78      -0.2457
    125  N         19.7970   -1.8090   19.9450 N.3   121  GLU121     -0.1231
    126  CA        19.3530   -2.5490   18.7670 C.3   121  GLU121      0.1699
    127  C         18.0950   -1.8930   18.1680 C.2   121  GLU121      0.2592
    128  O         17.8270   -2.0480   16.9770 O.2   121  GLU121     -0.2718
    129  CB        19.0540   -4.0330   19.1210 C.3   121  GLU121      0.0402
    130  CG        20.2670   -4.7730   19.6840 C.3   121  GLU121      0.1161
    131  CD        20.4280   -4.7730   21.1990 C.2   121  GLU121      0.3649
    132  OE1       20.1240   -3.7530   21.8590 O.co2 121  GLU121     -0.2457
    133  OE2       20.8770   -5.8100   21.7320 O.co2 121  GLU121     -0.2457
    134  N         17.3310   -1.1840   19.0080 N.am  122  ASN122     -0.1974
    135  CA        16.0660   -0.5340   18.6290 C.3   122  ASN122      0.1688
    136  C         16.1910    0.9560   18.3900 C.2   122  ASN122      0.2292
    137  O         15.1820    1.6210   18.1910 O.2   122  ASN122     -0.2864
    138  CB        14.9790   -0.8470   19.6880 C.3   122  ASN122      0.1181
    139  CG        14.4180   -2.2430   19.5150 C.2   122  ASN122      0.2629
    140  OD1       14.4560   -2.8300   18.4180 O.2   122  ASN122     -0.2716
    141  ND2       13.8700   -2.8050   20.5770 N.am  122  ASN122     -0.0877
    142  N         17.7960    3.4210   15.8550 N.3   124  LEU124     -0.1245
    143  CA        18.4190    3.4550   14.5300 C.3   124  LEU124      0.1561
    144  C         18.9090    4.8390   14.1990 C.2   124  LEU124      0.2260
    145  O         18.4970    5.8020   14.8400 O.2   124  LEU124     -0.2867
    146  CB        17.4750    2.9150   13.4480 C.3   124  LEU124      0.0270
    147  CG        16.7710    1.5740   13.7650 C.3   124  LEU124      0.0019
    148  CD1       15.8830    1.1470   12.5910 C.3   124  LEU124      0.0001
    149  CD2       17.7930    0.4460   14.1240 C.3   124  LEU124      0.0001
    150  N         12.7840    2.7750   17.1710 N.3   134  SER134     -0.1202
    151  CA        12.2240    1.7650   16.2790 C.3   134  SER134      0.2020
    152  C         11.5410    0.5740   16.9600 C.2   134  SER134      0.2618
    153  O         11.8040    0.2760   18.1130 O.2   134  SER134     -0.2717
    154  CB        13.3450    1.2570   15.3640 C.3   134  SER134      0.2103
    155  OG        13.0510    0.0060   14.7900 O.3   134  SER134     -0.2182
    156  N         10.6740   -0.0940   16.2020 N.am  135  ASP135     -0.1973
    157  CA         9.9200   -1.2730   16.6310 C.3   135  ASP135      0.1709
    158  C          8.9390   -1.0390   17.7790 C.2   135  ASP135      0.2293
    159  O          9.3300   -0.9390   18.9320 O.2   135  ASP135     -0.2864
    160  CB        10.8810   -2.4060   16.9810 C.3   135  ASP135      0.1436
    161  CG        10.2410   -3.7640   16.8510 C.2   135  ASP135      0.3671
    162  OD1        9.1590   -3.9620   17.4200 O.co2 135  ASP135     -0.2456
    163  OD2       10.8210   -4.6290   16.1720 O.co2 135  ASP135     -0.2456
@<TRIPOS>BOND
     1    93    91   ar
     2    93    94   ar
     3    91    89   ar
     4    95    94    1
     5    94    92   ar
     6    89    88    1
     7    89    90   ar
     8    29    30    1
     9    88    85    1
    10    92    90   ar
    11   106   107    1
    12   106   103    1
    13     8     6    1
    14    30    31    1
    15    30    33    1
    16    31    32    2
    17     6     7    1
    18     6     5    1
    19     1     2    1
    20    70    69    2
    21    85    84    1
    22    85    86    1
    23    87    86    2
    24    84    77   am
    25   103   102    1
    26   103   104    1
    27    67    68    1
    28    24    25    2
    29    24    23    1
    30    86    96   am
    31     2     5    1
    32     2     3    1
    33    34    35    1
    34    69    68    1
    35    69    75   am
    36   105   104    2
    37   102    98   am
    38   104   108   am
    39    77    76    1
    40    77    78    2
    41    37    36    2
    42    76    75    1
    43    76    79    1
    44    68    71    1
    45    96    97    1
    46    36    35    1
    47    23    22    1
    48    23    26    1
    49    80    79    1
    50    80    81    1
    51     3     9   am
    52     3     4    2
    53    35    38    1
    54    98    97    1
    55    98    99    2
    56    27    26    1
    57    21    19   ar
    58    97   100    1
    59   108   109    1
    60     9    10    1
    61    82    81   ar
    62    71    72    1
    63    26    28    1
    64    81    83   ar
    65    12    11    2
    66    38    39    1
    67    72    73    1
    68    72    74    1
    69   109   110    1
    70    19    20   ar
    71    19    18    1
    72    10    11    1
    73   100   101    1
    74    11    13   am
    75   112   110   am
    76   112   113    1
    77   110   111    2
    78    18    17    1
    79    39    40    1
    80   113   114    1
    81    13    14    1
    82    65    64    1
    83    14    17    1
    84    14    15    1
    85    40    41    1
    86    62    63    2
    87    62    61    1
    88   148   147    1
    89   114   115    2
    90   114   116   am
    91    61    64    1
    92    61    60    1
    93    64    66    1
    94    15    16    2
    95    55    54    2
    96    41    42    1
    97    56    57    1
    98    56    53    1
    99    58    57    2
   100   116   117    1
   101   146   147    1
   102   146   143    1
   103    54    53    1
   104    57    59   am
   105   147   149    1
   106   144   143    1
   107   144   145    2
   108    53    52    1
   109    51    49   ar
   110   143   142    1
   111   121   122    1
   112   121   120    1
   113   155   154    1
   114   117   120    1
   115   117   118    1
   116    49    48    1
   117    49    50   ar
   118   123   122   ar
   119    46    45    2
   120    45    44    1
   121    48    47    1
   122   122   124   ar
   123   119   118    2
   124   154   151    1
   125    47    44    1
   126   163   161   ar
   127   156   157    1
   128   156   152   am
   129    44    43    1
   130   151   152    1
   131   151   150    1
   132   157   160    1
   133   157   158    1
   134   161   160    1
   135   161   162   ar
   136   152   153    2
   137   128   127    2
   138   158   159    2
   139   127   126    1
   140   127   134   am
   141   137   136    2
   142   136   135    1
   143   140   139    2
   144   135   134    1
   145   135   138    1
   146   126   129    1
   147   126   125    1
   148   129   130    1
   149   139   138    1
   150   139   141   am
   151   130   131    1
   152   131   133   ar
   153   131   132   ar
