@<TRIPOS>MOLECULE
tmp/5f4rA05.pdb
 185 181 0 0 0
SMALL
GASTEIGER

@<TRIPOS>ATOM
      1  N        -13.5050  -50.9230    5.2010 N.3    64  TRP64      -0.1241
      2  CA       -12.3080  -51.4300    5.8640 C.3    64  TRP64       0.1605
      3  C        -11.5790  -52.4850    5.0370 C.2    64  TRP64       0.2264
      4  O        -10.3510  -52.4860    4.9650 O.2    64  TRP64      -0.2867
      5  CB       -12.6770  -52.0040    7.2360 C.3    64  TRP64       0.0550
      6  CG       -12.5890  -50.9960    8.3350 C.ar   64  TRP64       0.0003
      7  CD1      -13.2860  -49.8290    8.4310 C.ar   64  TRP64       0.0946
      8  CD2      -11.7510  -51.0610    9.4980 C.ar   64  TRP64       0.0152
      9  NE1      -12.9340  -49.1610    9.5800 N.ar   64  TRP64      -0.2442
     10  CE2      -11.9930  -49.8970   10.2530 C.ar   64  TRP64       0.0810
     11  CE3      -10.8220  -51.9900    9.9740 C.ar   64  TRP64       0.0012
     12  CZ2      -11.3370  -49.6370   11.4560 C.ar   64  TRP64       0.0191
     13  CZ3      -10.1740  -51.7300   11.1690 C.ar   64  TRP64       0.0001
     14  CH2      -10.4340  -50.5650   11.8950 C.ar   64  TRP64       0.0015
     15  N        -14.5580  -46.9660   14.6030 N.3   134  VAL134     -0.1231
     16  CA       -14.4540  -48.3080   15.1700 C.3   134  VAL134      0.1692
     17  C        -13.7190  -48.2650   16.5100 C.2   134  VAL134      0.2593
     18  O        -12.5280  -47.9490   16.5610 O.2   134  VAL134     -0.2718
     19  CB       -13.7260  -49.2710   14.2050 C.3   134  VAL134      0.0266
     20  CG1      -13.4920  -50.6260   14.8600 C.3   134  VAL134      0.0020
     21  CG2      -14.5210  -49.4310   12.9230 C.3   134  VAL134      0.0020
     22  N        -14.4320  -48.5710   17.5920 N.am  135  SER135     -0.1938
     23  CA       -13.8400  -48.5450   18.9280 C.3   135  SER135      0.2055
     24  C        -14.5460  -49.4880   19.8950 C.2   135  SER135      0.2643
     25  O        -15.6650  -49.9320   19.6460 O.2   135  SER135     -0.2714
     26  CB       -13.8640  -47.1240   19.4960 C.3   135  SER135      0.2130
     27  OG       -15.1920  -46.7060   19.7600 O.3   135  SER135     -0.2179
     28  N        -13.8750  -49.7920   21.0010 N.am  136  THR136     -0.1950
     29  CA       -14.4870  -50.5460   22.0860 C.3   136  THR136      0.1897
     30  C        -14.5150  -49.6660   23.3290 C.2   136  THR136      0.2313
     31  O        -13.8480  -48.6310   23.3700 O.2   136  THR136     -0.2863
     32  CB       -13.7360  -51.8590   22.3700 C.3   136  THR136      0.1794
     33  OG1      -12.3790  -51.5750   22.7320 O.3   136  THR136     -0.2208
     34  CG2      -13.7510  -52.7540   21.1360 C.3   136  THR136      0.0378
     35  N        -26.9350  -59.3730   30.3640 N.3   160  ALA160     -0.1245
     36  CA       -26.2590  -59.8420   29.1600 C.3   160  ALA160      0.1562
     37  C        -26.3800  -58.8470   28.0060 C.2   160  ALA160      0.2260
     38  O        -25.6950  -58.9820   26.9930 O.2   160  ALA160     -0.2867
     39  CB       -26.8140  -61.2000   28.7430 C.3   160  ALA160      0.0290
     40  N        -10.6670  -61.0540   24.9240 N.3   222  ASP222     -0.1239
     41  CA        -9.6160  -60.5750   24.0310 C.3   222  ASP222      0.1674
     42  C         -9.2130  -59.1390   24.3550 C.2   222  ASP222      0.2266
     43  O        -10.0010  -58.3870   24.9320 O.2   222  ASP222     -0.2867
     44  CB       -10.0720  -60.6770   22.5740 C.3   222  ASP222      0.1410
     45  CG       -10.2050  -62.1080   22.1040 C.2   222  ASP222      0.3668
     46  OD1       -9.4240  -62.9590   22.5710 O.co2 222  ASP222     -0.2456
     47  OD2      -11.0860  -62.3760   21.2630 O.co2 222  ASP222     -0.2456
     48  N         -9.0100  -56.6500   22.5660 N.3   224  GLU224     -0.1231
     49  CA        -9.8400  -55.6800   21.8680 C.3   224  GLU224      0.1699
     50  C        -10.9620  -55.1310   22.7500 C.2   224  GLU224      0.2592
     51  O        -11.2440  -53.9360   22.7160 O.2   224  GLU224     -0.2718
     52  CB       -10.4190  -56.3040   20.5930 C.3   224  GLU224      0.0402
     53  CG        -9.3930  -56.5230   19.4790 C.3   224  GLU224      0.1161
     54  CD        -8.4530  -57.6830   19.7420 C.2   224  GLU224      0.3649
     55  OE1       -8.8050  -58.5660   20.5470 O.co2 224  GLU224     -0.2457
     56  OE2       -7.3570  -57.7130   19.1480 O.co2 224  GLU224     -0.2457
     57  N        -11.5770  -55.9940   23.5570 N.am  225  ILE225     -0.1980
     58  CA       -12.7050  -55.5790   24.3940 C.3   225  ILE225      0.1595
     59  C        -12.3320  -55.3680   25.8650 C.2   225  ILE225      0.2287
     60  O        -13.0510  -54.6870   26.5960 O.2   225  ILE225     -0.2864
     61  CB       -13.8660  -56.5980   24.3240 C.3   225  ILE225      0.0276
     62  CG1      -13.5110  -57.8800   25.0770 C.3   225  ILE225      0.0022
     63  CG2      -14.2290  -56.8980   22.8760 C.3   225  ILE225      0.0022
     64  CD1      -14.7030  -58.7810   25.3350 C.3   225  ILE225      0.0001
     65  N         -9.8300  -50.2410   22.6100 N.3   229  SER229     -0.1202
     66  CA        -9.1400  -50.4230   21.3390 C.3   229  SER229      0.2020
     67  C         -9.7500  -49.5140   20.2830 C.2   229  SER229      0.2619
     68  O        -10.9700  -49.3360   20.2350 O.2   229  SER229     -0.2717
     69  CB        -9.2010  -51.8800   20.8840 C.3   229  SER229      0.2103
     70  OG       -10.5360  -52.3110   20.7040 O.3   229  SER229     -0.2182
     71  N         -8.8960  -48.9260   19.4520 N.am  230  PHE230     -0.1961
     72  CA        -9.3570  -48.0250   18.3990 C.3   230  PHE230      0.1771
     73  C         -8.2900  -47.8490   17.3250 C.2   230  PHE230      0.2619
     74  O         -7.1790  -48.3670   17.4510 O.2   230  PHE230     -0.2715
     75  CB        -9.7420  -46.6640   18.9850 C.3   230  PHE230      0.0574
     76  CG        -8.5930  -45.9210   19.5970 C.ar  230  PHE230     -0.0200
     77  CD1       -8.2030  -46.1760   20.9050 C.ar  230  PHE230     -0.0042
     78  CD2       -7.9050  -44.9620   18.8680 C.ar  230  PHE230     -0.0042
     79  CE1       -7.1450  -45.4930   21.4720 C.ar  230  PHE230     -0.0003
     80  CE2       -6.8450  -44.2770   19.4280 C.ar  230  PHE230     -0.0003
     81  CZ        -6.4660  -44.5410   20.7320 C.ar  230  PHE230     -0.0000
     82  N         -8.6270  -47.1120   16.2700 N.am  231  ASN231     -0.1972
     83  CA        -7.6790  -46.8930   15.1850 C.3   231  ASN231      0.1688
     84  C         -7.2670  -45.4280   15.0540 C.2   231  ASN231      0.2292
     85  O         -8.1140  -44.5350   14.9540 O.2   231  ASN231     -0.2864
     86  CB        -8.2590  -47.3910   13.8600 C.3   231  ASN231      0.1181
     87  CG        -7.1970  -47.5680   12.7920 C.2   231  ASN231      0.2629
     88  OD1       -6.6530  -46.5950   12.2780 O.2   231  ASN231     -0.2716
     89  ND2       -6.9040  -48.8150   12.4480 N.am  231  ASN231     -0.0877
     90  N         -3.2080  -49.4780   15.1660 N.3   236  PHE236     -0.1227
     91  CA        -4.1850  -50.0240   16.1040 C.3   236  PHE236      0.1736
     92  C         -3.7630  -49.8650   17.5650 C.2   236  PHE236      0.2595
     93  O         -2.8320  -50.5250   18.0350 O.2   236  PHE236     -0.2718
     94  CB        -4.4470  -51.4970   15.7820 C.3   236  PHE236      0.0547
     95  CG        -5.2410  -51.7020   14.5260 C.ar  236  PHE236     -0.0202
     96  CD1       -4.6070  -51.7950   13.2950 C.ar  236  PHE236     -0.0042
     97  CD2       -6.6250  -51.7870   14.5720 C.ar  236  PHE236     -0.0042
     98  CE1       -5.3380  -51.9760   12.1320 C.ar  236  PHE236     -0.0003
     99  CE2       -7.3630  -51.9690   13.4150 C.ar  236  PHE236     -0.0003
    100  CZ        -6.7170  -52.0630   12.1930 C.ar  236  PHE236     -0.0000
    101  N         -4.4670  -48.9890   18.2770 N.am  237  PHE237     -0.1976
    102  CA        -4.1650  -48.6980   19.6720 C.3   237  PHE237      0.1639
    103  C         -5.0080  -49.5390   20.6270 C.2   237  PHE237      0.2290
    104  O         -6.2390  -49.5460   20.5430 O.2   237  PHE237     -0.2864
    105  CB        -4.3900  -47.2100   19.9650 C.3   237  PHE237      0.0560
    106  CG        -3.2900  -46.3110   19.4680 C.ar  237  PHE237     -0.0200
    107  CD1       -2.9980  -46.2280   18.1140 C.ar  237  PHE237     -0.0042
    108  CD2       -2.5630  -45.5280   20.3550 C.ar  237  PHE237     -0.0042
    109  CE1       -1.9890  -45.3970   17.6550 C.ar  237  PHE237     -0.0003
    110  CE2       -1.5540  -44.6920   19.9020 C.ar  237  PHE237     -0.0003
    111  CZ        -1.2680  -44.6280   18.5490 C.ar  237  PHE237     -0.0000
    112  N         -4.5820  -58.4220   15.0840 N.3   275  ILE275     -0.1231
    113  CA        -5.5830  -58.4750   16.1430 C.3   275  ILE275      0.1692
    114  C         -6.8720  -59.0710   15.5990 C.2   275  ILE275      0.2592
    115  O         -7.1340  -58.9570   14.4080 O.2   275  ILE275     -0.2718
    116  CB        -5.8650  -57.0510   16.7580 C.3   275  ILE275      0.0266
    117  CG1       -6.3960  -56.0890   15.7140 C.3   275  ILE275      0.0019
    118  CG2       -4.6030  -56.5450   17.4530 C.3   275  ILE275      0.0020
    119  CD1       -6.8990  -54.7710   16.3150 C.3   275  ILE275      0.0001
    120  N         -7.6680  -59.6230   16.5230 N.am  276  ASN276     -0.1960
    121  CA        -8.9390  -60.2610   16.2210 C.3   276  ASN276      0.1819
    122  C         -9.8570  -59.2000   15.6230 C.2   276  ASN276      0.2621
    123  O        -10.1390  -58.1660   16.2570 O.2   276  ASN276     -0.2715
    124  CB        -9.4940  -60.8250   17.5230 C.3   276  ASN276      0.1195
    125  CG        -8.5110  -61.7160   18.2550 C.2   276  ASN276      0.2630
    126  OD1       -7.8830  -61.3290   19.2350 O.2   276  ASN276     -0.2716
    127  ND2       -8.3690  -62.9520   17.7730 N.am  276  ASN276     -0.0877
    128  N        -10.3240  -59.4370   14.4000 N.am  277  MET277     -0.1963
    129  CA       -10.9700  -58.3930   13.6090 C.3   277  MET277      0.1736
    130  C        -12.3390  -58.0980   14.2130 C.2   277  MET277      0.2616
    131  O        -12.7830  -58.8230   15.0920 O.2   277  MET277     -0.2715
    132  CB       -11.0920  -58.8240   12.1440 C.3   277  MET277      0.0427
    133  CG        -9.7590  -59.1710   11.4930 C.3   277  MET277      0.0599
    134  SD        -9.9070  -59.9320    9.8630 S.3   277  MET277     -0.1393
    135  CE       -10.5500  -61.5430   10.2960 C.3   277  MET277      0.0692
    136  N        -12.9970  -57.0320   13.7720 N.am  278  TRP278     -0.1974
    137  CA       -14.3520  -56.7460   14.2340 C.3   278  TRP278      0.1640
    138  C        -15.3560  -57.1200   13.1500 C.2   278  TRP278      0.2290
    139  O        -16.5270  -57.3750   13.4300 O.2   278  TRP278     -0.2864
    140  CB       -14.5040  -55.2740   14.6140 C.3   278  TRP278      0.0576
    141  CG       -14.2150  -54.3380   13.4910 C.ar  278  TRP278      0.0006
    142  CD1      -13.0200  -53.7490   13.2060 C.ar  278  TRP278      0.0946
    143  CD2      -15.1380  -53.8750   12.4970 C.ar  278  TRP278      0.0152
    144  NE1      -13.1410  -52.9510   12.0950 N.ar  278  TRP278     -0.2442
    145  CE2      -14.4340  -53.0120   11.6410 C.ar  278  TRP278      0.0810
    146  CE3      -16.4930  -54.1110   12.2470 C.ar  278  TRP278      0.0012
    147  CZ2      -15.0380  -52.3810   10.5530 C.ar  278  TRP278      0.0191
    148  CZ3      -17.0900  -53.4830   11.1670 C.ar  278  TRP278      0.0001
    149  CH2      -16.3640  -52.6310   10.3360 C.ar  278  TRP278      0.0015
    150  N        -15.2680  -59.8980   10.8460 N.3   280  GLU280     -0.1231
    151  CA       -15.5960  -61.3150   10.9810 C.3   280  GLU280      0.1699
    152  C        -14.7200  -61.9740   12.0410 C.2   280  GLU280      0.2592
    153  O        -13.7950  -61.3510   12.5650 O.2   280  GLU280     -0.2718
    154  CB       -15.4240  -62.0350    9.6430 C.3   280  GLU280      0.0402
    155  CG       -13.9970  -61.9960    9.1090 C.3   280  GLU280      0.1161
    156  CD       -13.8610  -62.6460    7.7510 C.2   280  GLU280      0.3649
    157  OE1      -13.2240  -62.0430    6.8640 O.co2 280  GLU280     -0.2457
    158  OE2      -14.3830  -63.7640    7.5700 O.co2 280  GLU280     -0.2457
    159  N        -15.0090  -63.2350   12.3540 N.am  281  VAL281     -0.1966
    160  CA       -14.1750  -63.9990   13.2780 C.3   281  VAL281      0.1727
    161  C        -12.9010  -64.4520   12.5690 C.2   281  VAL281      0.2616
    162  O        -12.9460  -65.2970   11.6710 O.2   281  VAL281     -0.2715
    163  CB       -14.9190  -65.2290   13.8460 C.3   281  VAL281      0.0290
    164  CG1      -14.0300  -65.9870   14.8210 C.3   281  VAL281      0.0023
    165  CG2      -16.2100  -64.8040   14.5340 C.3   281  VAL281      0.0023
    166  N        -11.7700  -63.8790   12.9720 N.am  282  GLY282     -0.1955
    167  CA       -10.4880  -64.1770   12.3570 C.3   282  GLY282      0.1869
    168  C         -9.4230  -63.1940   12.8060 C.2   282  GLY282      0.2309
    169  O         -9.7400  -62.0810   13.2170 O.2   282  GLY282     -0.2863
    170  N        -18.8740  -54.2860   24.6990 N.3   317  GLY317     -0.1210
    171  CA       -18.6830  -54.1240   23.2710 C.3   317  GLY317      0.1956
    172  C        -17.7770  -55.0910   22.5400 C.2   317  GLY317      0.2612
    173  O        -17.3940  -56.1340   23.0580 O.2   317  GLY317     -0.2717
    174  N        -17.4120  -54.7290   21.3160 N.am  318  GLY318     -0.1956
    175  CA       -16.6850  -55.6280   20.4440 C.3   318  GLY318      0.1869
    176  C        -17.5380  -55.8960   19.2200 C.2   318  GLY318      0.2309
    177  O        -17.0560  -56.4190   18.2160 O.2   318  GLY318     -0.2863
    178  N        -21.5900  -57.4390   18.4720 N.3   319  ASP319     -0.1239
    179  CA       -22.9330  -57.5440   17.9130 C.3   319  ASP319      0.1674
    180  C        -22.9970  -56.7660   16.5940 C.2   319  ASP319      0.2266
    181  O        -21.9760  -56.2200   16.1540 O.2   319  ASP319     -0.2867
    182  CB       -24.0020  -57.0560   18.9110 C.3   319  ASP319      0.1410
    183  CG       -23.7610  -55.6310   19.4070 C.2   319  ASP319      0.3668
    184  OD1      -23.2370  -54.8060   18.6370 O.co2 319  ASP319     -0.2456
    185  OD2      -24.1350  -55.3290   20.5700 O.co2 319  ASP319     -0.2456
@<TRIPOS>BOND
     1     4     3    2
     2     3     2    1
     3     1     2    1
     4     2     5    1
     5   157   156   ar
     6     5     6    1
     7   158   156   ar
     8   156   155    1
     9     6     7   ar
    10     6     8   ar
    11     7     9   ar
    12   155   154    1
    13     8    11   ar
    14     8    10   ar
    15     9    10   ar
    16   154   151    1
    17   134   135    1
    18   134   133    1
    19    11    13   ar
    20    10    12   ar
    21   149   147   ar
    22   149   148   ar
    23   147   145   ar
    24   150   151    1
    25   151   152    1
    26   148   146   ar
    27    13    14   ar
    28    12    14   ar
    29   133   132    1
    30   145   144   ar
    31   145   143   ar
    32   162   161    2
    33   152   159   am
    34   152   153    2
    35   144   142   ar
    36    98   100   ar
    37    98    96   ar
    38   132   129    1
    39   100    99   ar
    40   146   143   ar
    41    88    87    2
    42   159   160    1
    43   167   168    1
    44   167   166    1
    45    89    87   am
    46   143   141   ar
    47   161   166   am
    48   161   160    1
    49    87    86    1
    50   168   169    2
    51    21    19    1
    52   138   139    2
    53   138   137    1
    54   142   141   ar
    55   160   163    1
    56    96    95   ar
    57    99    97   ar
    58   141   140    1
    59   129   130    1
    60   129   128    1
    61   136   130   am
    62   136   137    1
    63   163   165    1
    64   163   164    1
    65    86    83    1
    66    19    20    1
    67    19    16    1
    68   130   131    2
    69   137   140    1
    70   128   122   am
    71   115   114    2
    72    95    97   ar
    73    95    94    1
    74    15    16    1
    75    85    84    2
    76    84    83    1
    77   112   113    1
    78    90    91    1
    79    16    17    1
    80    83    82    1
    81   114   113    1
    82   114   120   am
    83   122   121    1
    84   122   123    2
    85   117   119    1
    86   117   116    1
    87    94    91    1
    88    91    92    1
    89   113   116    1
    90   181   180    2
    91   121   120    1
    92   121   124    1
    93    82    73   am
    94    17    18    2
    95    17    22   am
    96   180   179    1
    97   116   118    1
    98    73    74    2
    99    73    72    1
   100   124   125    1
   101    92    93    2
   102    92   101   am
   103    22    23    1
   104   109   107   ar
   105   109   111   ar
   106   127   125   am
   107   179   178    1
   108   179   182    1
   109   107   106   ar
   110   177   176    2
   111   125   126    2
   112   101   102    1
   113    72    75    1
   114    72    71    1
   115   111   110   ar
   116   184   183   ar
   117    78    80   ar
   118    78    76   ar
   119   182   183    1
   120    23    26    1
   121    23    24    1
   122    75    76    1
   123    56    54   ar
   124   176   175    1
   125   183   185   ar
   126    80    81   ar
   127    71    67   am
   128   106   105    1
   129   106   108   ar
   130    53    54    1
   131    53    52    1
   132    26    27    1
   133    76    77   ar
   134    25    24    2
   135   102   105    1
   136   102   103    1
   137    54    55   ar
   138    24    28   am
   139   110   108   ar
   140    68    67    2
   141    67    66    1
   142   175   174    1
   143   104   103    2
   144    52    49    1
   145    70    69    1
   146    81    79   ar
   147    69    66    1
   148    77    79   ar
   149    28    29    1
   150    34    32    1
   151    47    45   ar
   152   174   172   am
   153    66    65    1
   154    49    48    1
   155    49    50    1
   156    29    32    1
   157    29    30    1
   158    45    46   ar
   159    45    44    1
   160    32    33    1
   161   172   173    2
   162   172   171    1
   163    44    41    1
   164    51    50    2
   165    50    57   am
   166    63    61    1
   167   171   170    1
   168    30    31    2
   169    57    58    1
   170    41    42    1
   171    41    40    1
   172    61    58    1
   173    61    62    1
   174    42    43    2
   175    58    59    1
   176    62    64    1
   177    59    60    2
   178    38    37    2
   179    37    36    1
   180    39    36    1
   181    36    35    1
