@<TRIPOS>MOLECULE
tmp/5f4uA05.pdb
 185 181 0 0 0
SMALL
GASTEIGER

@<TRIPOS>ATOM
      1  N        -13.5110  -51.0920    5.2630 N.3    64  TRP64      -0.1241
      2  CA       -12.3130  -51.6160    5.9140 C.3    64  TRP64       0.1605
      3  C        -11.5920  -52.6380    5.0410 C.2    64  TRP64       0.2264
      4  O        -10.3650  -52.6180    4.9330 O.2    64  TRP64      -0.2867
      5  CB       -12.6750  -52.2510    7.2580 C.3    64  TRP64       0.0550
      6  CG       -12.6160  -51.2960    8.4100 C.ar   64  TRP64       0.0003
      7  CD1      -13.4290  -50.2220    8.6290 C.ar   64  TRP64       0.0946
      8  CD2      -11.6980  -51.3340    9.5090 C.ar   64  TRP64       0.0152
      9  NE1      -13.0710  -49.5860    9.7940 N.ar   64  TRP64      -0.2442
     10  CE2      -12.0110  -50.2500   10.3540 C.ar   64  TRP64       0.0810
     11  CE3      -10.6420  -52.1800    9.8610 C.ar   64  TRP64       0.0012
     12  CZ2      -11.3040  -49.9880   11.5260 C.ar   64  TRP64       0.0191
     13  CZ3       -9.9420  -51.9190   11.0230 C.ar   64  TRP64       0.0001
     14  CH2      -10.2760  -50.8320   11.8420 C.ar   64  TRP64       0.0015
     15  N        -14.4990  -47.2050   14.6850 N.3   134  VAL134     -0.1231
     16  CA       -14.4610  -48.5540   15.2350 C.3   134  VAL134      0.1692
     17  C        -13.6960  -48.5410   16.5550 C.2   134  VAL134      0.2593
     18  O        -12.5090  -48.2170   16.5870 O.2   134  VAL134     -0.2718
     19  CB       -13.7990  -49.5440   14.2520 C.3   134  VAL134      0.0266
     20  CG1      -13.7160  -50.9440   14.8560 C.3   134  VAL134      0.0020
     21  CG2      -14.5680  -49.5750   12.9360 C.3   134  VAL134      0.0020
     22  N        -14.3790  -48.8910   17.6410 N.am  135  SER135     -0.1938
     23  CA       -13.7720  -48.8570   18.9680 C.3   135  SER135      0.2055
     24  C        -14.5240  -49.7400   19.9610 C.2   135  SER135      0.2643
     25  O        -15.6680  -50.1270   19.7230 O.2   135  SER135     -0.2714
     26  CB       -13.7250  -47.4200   19.4940 C.3   135  SER135      0.2130
     27  OG       -15.0270  -46.8640   19.5780 O.3   135  SER135     -0.2179
     28  N        -13.8630  -50.0580   21.0700 N.am  136  THR136     -0.1950
     29  CA       -14.4870  -50.7880   22.1680 C.3   136  THR136      0.1897
     30  C        -14.5000  -49.9210   23.4180 C.2   136  THR136      0.2313
     31  O        -13.8410  -48.8850   23.4640 O.2   136  THR136     -0.2863
     32  CB       -13.7500  -52.1020   22.4730 C.3   136  THR136      0.1794
     33  OG1      -12.3680  -51.8300   22.7410 O.3   136  THR136     -0.2208
     34  CG2      -13.8510  -53.0650   21.2960 C.3   136  THR136      0.0378
     35  N        -10.5460  -61.2330   25.3340 N.3   222  ASP222     -0.1239
     36  CA        -9.5810  -60.7740   24.3420 C.3   222  ASP222      0.1674
     37  C         -9.1650  -59.3320   24.6150 C.2   222  ASP222      0.2266
     38  O         -9.9540  -58.5410   25.1310 O.2   222  ASP222     -0.2867
     39  CB       -10.1640  -60.9010   22.9330 C.3   222  ASP222      0.1410
     40  CG       -10.2990  -62.3460   22.4800 C.2   222  ASP222      0.3668
     41  OD1       -9.5840  -63.2160   23.0240 O.co2 222  ASP222     -0.2456
     42  OD2      -11.1130  -62.6090   21.5690 O.co2 222  ASP222     -0.2456
     43  N         -8.9720  -56.9580   22.8160 N.3   224  GLU224     -0.1231
     44  CA        -9.7810  -56.0050   22.0720 C.3   224  GLU224      0.1699
     45  C        -10.9320  -55.4810   22.9310 C.2   224  GLU224      0.2592
     46  O        -11.2830  -54.3030   22.8510 O.2   224  GLU224     -0.2718
     47  CB       -10.3210  -56.6430   20.7890 C.3   224  GLU224      0.0402
     48  CG        -9.2610  -56.8720   19.7120 C.3   224  GLU224      0.1161
     49  CD        -8.3100  -58.0110   20.0300 C.2   224  GLU224      0.3649
     50  OE1       -8.6930  -58.9100   20.7990 O.co2 224  GLU224     -0.2457
     51  OE2       -7.1770  -58.0140   19.5030 O.co2 224  GLU224     -0.2457
     52  N        -11.5050  -56.3530   23.7600 N.am  225  ILE225     -0.1980
     53  CA       -12.6600  -55.9840   24.5790 C.3   225  ILE225      0.1595
     54  C        -12.2730  -55.6070   26.0120 C.2   225  ILE225      0.2287
     55  O        -12.9830  -54.8430   26.6670 O.2   225  ILE225     -0.2864
     56  CB       -13.7090  -57.1280   24.6190 C.3   225  ILE225      0.0276
     57  CG1      -13.2100  -58.3250   25.4400 C.3   225  ILE225      0.0022
     58  CG2      -14.0640  -57.5650   23.1960 C.3   225  ILE225      0.0022
     59  CD1      -14.2810  -59.3530   25.7280 C.3   225  ILE225      0.0001
     60  N         -9.6230  -50.4550   22.7290 N.3   229  SER229     -0.1202
     61  CA        -8.9060  -50.7050   21.4810 C.3   229  SER229      0.2020
     62  C         -9.5140  -49.8730   20.3650 C.2   229  SER229      0.2619
     63  O        -10.7360  -49.7860   20.2420 O.2   229  SER229     -0.2717
     64  CB        -8.9350  -52.1910   21.1030 C.3   229  SER229      0.2103
     65  OG       -10.2410  -52.7190   21.2130 O.3   229  SER229     -0.2182
     66  N         -8.6600  -49.2610   19.5520 N.am  230  PHE230     -0.1961
     67  CA        -9.1370  -48.4060   18.4690 C.3   230  PHE230      0.1771
     68  C         -8.0640  -48.2040   17.4050 C.2   230  PHE230      0.2619
     69  O         -6.8880  -48.5020   17.6290 O.2   230  PHE230     -0.2715
     70  CB        -9.5800  -47.0500   19.0190 C.3   230  PHE230      0.0574
     71  CG        -8.4490  -46.2270   19.5640 C.ar  230  PHE230     -0.0200
     72  CD1       -7.9230  -46.4970   20.8150 C.ar  230  PHE230     -0.0042
     73  CD2       -7.8990  -45.1940   18.8200 C.ar  230  PHE230     -0.0042
     74  CE1       -6.8770  -45.7490   21.3190 C.ar  230  PHE230     -0.0003
     75  CE2       -6.8510  -44.4430   19.3200 C.ar  230  PHE230     -0.0003
     76  CZ        -6.3400  -44.7220   20.5700 C.ar  230  PHE230     -0.0000
     77  N         -8.4790  -47.6910   16.2500 N.am  231  ASN231     -0.1972
     78  CA        -7.5550  -47.4070   15.1600 C.3   231  ASN231      0.1688
     79  C         -7.2120  -45.9220   15.1120 C.2   231  ASN231      0.2292
     80  O         -8.0760  -45.0650   15.3010 O.2   231  ASN231     -0.2864
     81  CB        -8.1460  -47.8610   13.8230 C.3   231  ASN231      0.1181
     82  CG        -7.1000  -47.9560   12.7260 C.2   231  ASN231      0.2629
     83  OD1       -6.3450  -47.0130   12.4890 O.2   231  ASN231     -0.2716
     84  ND2       -7.0380  -49.1070   12.0640 N.am  231  ASN231     -0.0877
     85  N         -3.1750  -49.7720   15.2410 N.3   236  PHE236     -0.1241
     86  CA        -4.1340  -50.3260   16.1910 C.3   236  PHE236      0.1605
     87  C         -3.6640  -50.1430   17.6280 C.2   236  PHE236      0.2264
     88  O         -2.7440  -50.8230   18.0830 O.2   236  PHE236     -0.2867
     89  CB        -4.3780  -51.8080   15.9000 C.3   236  PHE236      0.0534
     90  CG        -5.2660  -52.0440   14.7150 C.ar  236  PHE236     -0.0203
     91  CD1       -4.7270  -52.1970   13.4490 C.ar  236  PHE236     -0.0042
     92  CD2       -6.6420  -52.0930   14.8640 C.ar  236  PHE236     -0.0042
     93  CE1       -5.5440  -52.4070   12.3540 C.ar  236  PHE236     -0.0003
     94  CE2       -7.4630  -52.3020   13.7730 C.ar  236  PHE236     -0.0003
     95  CZ        -6.9120  -52.4590   12.5160 C.ar  236  PHE236     -0.0000
     96  N         -4.3590  -58.6400   15.3170 N.3   275  ILE275     -0.1231
     97  CA        -5.6690  -58.2060   15.7910 C.3   275  ILE275      0.1692
     98  C         -6.7130  -59.2840   15.5330 C.2   275  ILE275      0.2592
     99  O         -6.6830  -59.9540   14.5040 O.2   275  ILE275     -0.2718
    100  CB        -6.1160  -56.8850   15.1030 C.3   275  ILE275      0.0266
    101  CG1       -5.2650  -55.7040   15.5850 C.3   275  ILE275      0.0019
    102  CG2       -7.5920  -56.5850   15.3830 C.3   275  ILE275      0.0020
    103  CD1       -3.9570  -55.5150   14.8490 C.3   275  ILE275      0.0001
    104  N         -7.6280  -59.4550   16.4810 N.am  276  ASN276     -0.1960
    105  CA        -8.8170  -60.2610   16.2470 C.3   276  ASN276      0.1819
    106  C         -9.8560  -59.3710   15.5830 C.2   276  ASN276      0.2621
    107  O        -10.4000  -58.4670   16.2140 O.2   276  ASN276     -0.2715
    108  CB        -9.3530  -60.8550   17.5500 C.3   276  ASN276      0.1195
    109  CG        -8.3050  -61.6480   18.3000 C.2   276  ASN276      0.2630
    110  OD1       -7.5530  -62.4220   17.7060 O.2   276  ASN276     -0.2716
    111  ND2       -8.2410  -61.4530   19.6110 N.am  276  ASN276     -0.0877
    112  N        -10.1070  -59.6230   14.3030 N.am  277  MET277     -0.1963
    113  CA       -10.9330  -58.7470   13.4770 C.3   277  MET277      0.1736
    114  C        -12.3260  -58.5730   14.0690 C.2   277  MET277      0.2616
    115  O        -12.8660  -59.5060   14.6290 O.2   277  MET277     -0.2715
    116  CB       -11.0340  -59.3190   12.0630 C.3   277  MET277      0.0427
    117  CG        -9.6880  -59.5750   11.4180 C.3   277  MET277      0.0599
    118  SD        -9.8170  -60.1290    9.7100 S.3   277  MET277     -0.1393
    119  CE       -10.3410  -61.8240    9.9440 C.3   277  MET277      0.0692
    120  N        -12.8970  -57.3790   13.9570 N.am  278  TRP278     -0.1974
    121  CA       -14.2730  -57.1590   14.4030 C.3   278  TRP278      0.1640
    122  C        -15.2670  -57.5750   13.3180 C.2   278  TRP278      0.2290
    123  O        -16.4530  -57.7590   13.5930 O.2   278  TRP278     -0.2864
    124  CB       -14.5130  -55.6930   14.7720 C.3   278  TRP278      0.0576
    125  CG       -14.1590  -54.7600   13.6700 C.ar  278  TRP278      0.0006
    126  CD1      -12.9360  -54.2090   13.4330 C.ar  278  TRP278      0.0946
    127  CD2      -15.0250  -54.2770   12.6360 C.ar  278  TRP278      0.0152
    128  NE1      -12.9830  -53.4110   12.3180 N.ar  278  TRP278     -0.2442
    129  CE2      -14.2560  -53.4340   11.8100 C.ar  278  TRP278      0.0810
    130  CE3      -16.3760  -54.4710   12.3280 C.ar  278  TRP278      0.0012
    131  CZ2      -14.7890  -52.7870   10.7000 C.ar  278  TRP278      0.0191
    132  CZ3      -16.9040  -53.8260   11.2220 C.ar  278  TRP278      0.0001
    133  CH2      -16.1110  -52.9950   10.4220 C.ar  278  TRP278      0.0015
    134  N        -15.2390  -60.3430   11.2470 N.3   280  GLU280     -0.1231
    135  CA       -15.5500  -61.7660   11.2650 C.3   280  GLU280      0.1699
    136  C        -14.7810  -62.4290   12.4030 C.2   280  GLU280      0.2592
    137  O        -14.1860  -61.7400   13.2310 O.2   280  GLU280     -0.2718
    138  CB       -15.2040  -62.4060    9.9190 C.3   280  GLU280      0.0402
    139  CG       -13.7600  -62.1980    9.4860 C.3   280  GLU280      0.1161
    140  CD       -13.4710  -62.7660    8.1100 C.2   280  GLU280      0.3649
    141  OE1      -13.4350  -61.9830    7.1370 O.co2 280  GLU280     -0.2457
    142  OE2      -13.2750  -63.9950    8.0020 O.co2 280  GLU280     -0.2457
    143  N        -14.7870  -63.7580   12.4440 N.am  281  VAL281     -0.1966
    144  CA       -14.1870  -64.4810   13.5610 C.3   281  VAL281      0.1727
    145  C        -12.8080  -65.0430   13.1910 C.2   281  VAL281      0.2616
    146  O        -12.5010  -66.2040   13.4660 O.2   281  VAL281     -0.2715
    147  CB       -15.1010  -65.6210   14.0490 C.3   281  VAL281      0.0290
    148  CG1      -14.7370  -66.0100   15.4820 C.3   281  VAL281      0.0023
    149  CG2      -16.5610  -65.1920   13.9860 C.3   281  VAL281      0.0023
    150  N        -11.9870  -64.2030   12.5660 N.am  282  GLY282     -0.1955
    151  CA       -10.6160  -64.5520   12.2330 C.3   282  GLY282      0.1869
    152  C         -9.6560  -63.5600   12.8610 C.2   282  GLY282      0.2309
    153  O        -10.0360  -62.8280   13.7750 O.2   282  GLY282     -0.2863
    154  N        -21.3290  -53.2450   30.8390 N.3   306  LEU306     -0.1245
    155  CA       -21.8310  -54.5980   31.0510 C.3   306  LEU306      0.1561
    156  C        -21.9760  -54.8300   32.5480 C.2   306  LEU306      0.2260
    157  O        -21.0130  -54.6690   33.3020 O.2   306  LEU306     -0.2867
    158  CB       -20.8920  -55.6450   30.4420 C.3   306  LEU306      0.0270
    159  CG       -20.9570  -55.8700   28.9300 C.3   306  LEU306      0.0019
    160  CD1      -19.8360  -56.8040   28.4900 C.3   306  LEU306      0.0001
    161  CD2      -22.3160  -56.4310   28.5170 C.3   306  LEU306      0.0001
    162  N        -18.0990  -53.8680   24.7650 N.3   317  GLY317     -0.1210
    163  CA       -17.6690  -53.5670   23.4110 C.3   317  GLY317      0.1956
    164  C        -17.7480  -54.7870   22.5210 C.2   317  GLY317      0.2612
    165  O        -18.7420  -55.5130   22.5300 O.2   317  GLY317     -0.2717
    166  N        -16.6960  -55.0170   21.7480 N.am  318  GLY318     -0.1942
    167  CA       -16.6580  -56.1560   20.8530 C.3   318  GLY318      0.2014
    168  C        -17.5190  -55.9900   19.6140 C.2   318  GLY318      0.2639
    169  O        -17.0180  -56.0340   18.4910 O.2   318  GLY318     -0.2714
    170  N        -18.8190  -55.7980   19.8240 N.am  319  ASP319     -0.1957
    171  CA       -19.7830  -55.6820   18.7300 C.3   319  ASP319      0.1840
    172  C        -19.8660  -54.2350   18.2310 C.2   319  ASP319      0.2621
    173  O        -20.2750  -53.3400   18.9720 O.2   319  ASP319     -0.2715
    174  CB       -21.1660  -56.1690   19.1900 C.3   319  ASP319      0.1450
    175  CG       -22.1040  -56.4580   18.0330 C.2   319  ASP319      0.3671
    176  OD1      -21.7760  -56.0910   16.8860 O.co2 319  ASP319     -0.2456
    177  OD2      -23.1770  -57.0510   18.2770 O.co2 319  ASP319     -0.2456
    178  N        -19.4760  -54.0130   16.9760 N.am  320  MET320     -0.1977
    179  CA       -19.4700  -52.6720   16.3860 C.3   320  MET320      0.1605
    180  C        -20.8690  -52.2470   15.9310 C.2   320  MET320      0.2287
    181  O        -21.1550  -51.0510   15.7520 O.2   320  MET320     -0.2864
    182  CB       -18.4860  -52.6250   15.2120 C.3   320  MET320      0.0413
    183  CG       -17.0610  -52.9950   15.6070 C.3   320  MET320      0.0598
    184  SD       -16.4510  -51.9750   16.9630 S.3   320  MET320     -0.1393
    185  CE       -15.0490  -52.9340   17.5290 C.3   320  MET320      0.0692
@<TRIPOS>BOND
     1     4     3    2
     2     3     2    1
     3     1     2    1
     4     2     5    1
     5   141   140   ar
     6     5     6    1
     7   142   140   ar
     8   140   139    1
     9     6     7   ar
    10     6     8   ar
    11     7     9   ar
    12   139   138    1
    13     8    11   ar
    14     8    10   ar
    15   118   119    1
    16   118   117    1
    17     9    10   ar
    18    11    13   ar
    19   138   135    1
    20    10    12   ar
    21   133   131   ar
    22   133   132   ar
    23   131   129   ar
    24    13    14   ar
    25   132   130   ar
    26   134   135    1
    27   135   136    1
    28   117   116    1
    29    12    14   ar
    30   129   128   ar
    31   129   127   ar
    32   116   113    1
    33    84    82   am
    34   151   150    1
    35   151   152    1
    36   128   126   ar
    37   130   127   ar
    38    93    95   ar
    39    93    91   ar
    40   136   143   am
    41   136   137    2
    42   143   144    1
    43    83    82    2
    44    95    94   ar
    45   150   145   am
    46   127   125   ar
    47    82    81    1
    48   152   153    2
    49    21    19    1
    50   145   146    2
    51   145   144    1
    52   122   123    2
    53   122   121    1
    54   126   125   ar
    55    91    90   ar
    56   113   114    1
    57   113   112    1
    58   144   147    1
    59   125   124    1
    60    94    92   ar
    61    81    78    1
    62   120   114   am
    63   120   121    1
    64   149   147    1
    65   147   148    1
    66   114   115    2
    67    19    20    1
    68    19    16    1
    69   112   106   am
    70   121   124    1
    71    99    98    2
    72    15    16    1
    73    90    92   ar
    74    90    89    1
    75   103   101    1
    76   100   102    1
    77   100   101    1
    78   100    97    1
    79    79    78    1
    80    79    80    2
    81    78    77    1
    82   182   183    1
    83   182   179    1
    84    16    17    1
    85    85    86    1
    86    96    97    1
    87    98    97    1
    88    98   104   am
    89   106   107    2
    90   106   105    1
    91   183   184    1
    92   181   180    2
    93    89    86    1
    94   180   179    1
    95    86    87    1
    96   105   104    1
    97   105   108    1
    98    77    68   am
    99   179   178    1
   100    17    18    2
   101    17    22   am
   102   176   175   ar
   103   184   185    1
   104   178   172   am
   105    68    69    2
   106    68    67    1
   107   108   109    1
   108    87    88    2
   109    22    23    1
   110   110   109    2
   111   175   177   ar
   112   175   174    1
   113   172   171    1
   114   172   173    2
   115   109   111   am
   116    67    70    1
   117    67    66    1
   118   169   168    2
   119   171   174    1
   120   171   170    1
   121    73    75   ar
   122    73    71   ar
   123    23    26    1
   124    23    24    1
   125    70    71    1
   126    75    76   ar
   127    26    27    1
   128    51    49   ar
   129    66    62   am
   130    71    72   ar
   131   168   170   am
   132   168   167    1
   133    48    49    1
   134    48    47    1
   135    25    24    2
   136    24    28   am
   137    49    50   ar
   138    63    62    2
   139    62    61    1
   140    76    74   ar
   141    47    44    1
   142    72    74   ar
   143   167   166    1
   144    28    29    1
   145    64    65    1
   146    64    61    1
   147    34    32    1
   148    61    60    1
   149    42    40   ar
   150   166   164   am
   151    44    43    1
   152    44    45    1
   153    29    32    1
   154    29    30    1
   155    32    33    1
   156    40    39    1
   157    40    41   ar
   158   164   165    2
   159   164   163    1
   160    46    45    2
   161    45    52   am
   162    39    36    1
   163    58    56    1
   164   163   162    1
   165    30    31    2
   166    52    53    1
   167    36    37    1
   168    36    35    1
   169    53    56    1
   170    53    54    1
   171    37    38    2
   172    56    57    1
   173    57    59    1
   174    54    55    2
   175   160   159    1
   176   161   159    1
   177   159   158    1
   178   158   155    1
   179   154   155    1
   180   155   156    1
   181   156   157    2
