@<TRIPOS>MOLECULE
tmp/5f4zD00.pdb
 156 155 0 0 0
SMALL
GASTEIGER

@<TRIPOS>ATOM
      1  N         39.0230   48.7910   38.4640 N.3    96  TRP96      -0.1241
      2  CA        39.6240   48.6690   37.1400 C.3    96  TRP96       0.1605
      3  C         38.5030   48.5400   36.1040 C.2    96  TRP96       0.2264
      4  O         37.5360   47.8180   36.3490 O.2    96  TRP96      -0.2867
      5  CB        40.5580   47.4450   37.0930 C.3    96  TRP96       0.0550
      6  CG        41.3820   47.4140   35.8500 C.ar   96  TRP96       0.0003
      7  CD1       42.6610   47.8720   35.7060 C.ar   96  TRP96       0.0946
      8  CD2       40.9690   46.9600   34.5580 C.ar   96  TRP96       0.0152
      9  NE1       43.0790   47.7070   34.4050 N.ar   96  TRP96      -0.2442
     10  CE2       42.0540   47.1540   33.6790 C.ar   96  TRP96       0.0810
     11  CE3       39.7890   46.3950   34.0580 C.ar   96  TRP96       0.0012
     12  CZ2       41.9930   46.8180   32.3300 C.ar   96  TRP96       0.0191
     13  CZ3       39.7290   46.0630   32.7110 C.ar   96  TRP96       0.0001
     14  CH2       40.8290   46.2690   31.8650 C.ar   96  TRP96       0.0015
     15  N         33.2960   47.7770   41.8310 N.3   171  ASP171     -0.1225
     16  CA        34.3620   46.9550   41.2200 C.3   171  ASP171      0.1805
     17  C         35.3380   46.4770   42.3020 C.2   171  ASP171      0.2597
     18  O         34.9110   46.1640   43.4120 O.2   171  ASP171     -0.2718
     19  CB        35.0900   47.7530   40.1230 C.3   171  ASP171      0.1424
     20  CG        35.9090   46.8700   39.1880 C.2   171  ASP171      0.3668
     21  OD1       35.3240   46.2660   38.2580 O.co2 171  ASP171     -0.2456
     22  OD2       37.1400   46.7770   39.4000 O.co2 171  ASP171     -0.2456
     23  N         36.6370   46.4540   41.9950 N.am  172  LEU172     -0.1979
     24  CA        37.6740   46.0970   42.9690 C.3   172  LEU172      0.1596
     25  C         37.6600   47.0050   44.1960 C.2   172  LEU172      0.2287
     26  O         38.1350   46.6180   45.2610 O.2   172  LEU172     -0.2864
     27  CB        39.0690   46.1430   42.3220 C.3   172  LEU172      0.0297
     28  CG        39.3570   45.2040   41.1430 C.3   172  LEU172      0.0022
     29  CD1       40.7190   45.4900   40.5370 C.3   172  LEU172      0.0001
     30  CD2       39.2750   43.7580   41.5770 C.3   172  LEU172      0.0001
     31  N         35.4740   45.4190   46.7760 N.3   175  TRP175     -0.1241
     32  CA        36.1800   44.3340   47.4370 C.3   175  TRP175      0.1605
     33  C         37.1450   44.8560   48.4700 C.2   175  TRP175      0.2264
     34  O         37.2870   44.2960   49.5510 O.2   175  TRP175     -0.2867
     35  CB        36.9460   43.5190   46.4230 C.3   175  TRP175      0.0550
     36  CG        36.0830   42.7570   45.5370 C.ar  175  TRP175      0.0003
     37  CD1       34.7190   42.6660   45.5790 C.ar  175  TRP175      0.0946
     38  CD2       36.5110   41.9490   44.4550 C.ar  175  TRP175      0.0152
     39  NE1       34.2750   41.8410   44.5780 N.ar  175  TRP175     -0.2442
     40  CE2       35.3610   41.3900   43.8710 C.ar  175  TRP175      0.0810
     41  CE3       37.7640   41.6400   43.9200 C.ar  175  TRP175      0.0012
     42  CZ2       35.4300   40.5350   42.7870 C.ar  175  TRP175      0.0191
     43  CZ3       37.8270   40.8060   42.8470 C.ar  175  TRP175      0.0001
     44  CH2       36.6730   40.2510   42.2930 C.ar  175  TRP175      0.0015
     45  N         28.5400   47.4090   44.0770 N.3   195  PHE195     -0.1241
     46  CA        28.8850   46.2130   43.3190 C.3   195  PHE195      0.1605
     47  C         28.9940   45.0470   44.2860 C.2   195  PHE195      0.2264
     48  O         29.7840   45.0880   45.2260 O.2   195  PHE195     -0.2867
     49  CB        30.1900   46.4320   42.5600 C.3   195  PHE195      0.0534
     50  CG        30.5800   45.2860   41.6650 C.ar  195  PHE195     -0.0203
     51  CD1       29.9120   45.0720   40.4680 C.ar  195  PHE195     -0.0042
     52  CD2       31.6360   44.4600   41.9970 C.ar  195  PHE195     -0.0042
     53  CE1       30.2630   44.0380   39.6370 C.ar  195  PHE195     -0.0003
     54  CE2       32.0040   43.4260   41.1640 C.ar  195  PHE195     -0.0003
     55  CZ        31.3190   43.2150   39.9770 C.ar  195  PHE195     -0.0000
     56  N         28.8780   40.6580   44.3450 N.3   197  ILE197     -0.1245
     57  CA        28.7580   39.3230   43.7840 C.3   197  ILE197      0.1561
     58  C         28.2420   38.3720   44.8360 C.2   197  ILE197      0.2260
     59  O         28.7550   38.3680   45.9520 O.2   197  ILE197     -0.2867
     60  CB        30.1120   38.7740   43.2980 C.3   197  ILE197      0.0252
     61  CG1       30.9070   39.8470   42.5740 C.3   197  ILE197      0.0019
     62  CG2       29.9110   37.5370   42.4320 C.3   197  ILE197      0.0019
     63  CD1       30.2740   40.2570   41.3170 C.3   197  ILE197      0.0001
     64  N         26.4570   35.8320   36.3030 N.3   221  LEU221     -0.1245
     65  CA        27.7690   35.4180   36.7920 C.3   221  LEU221      0.1561
     66  C         28.4070   34.3650   35.8940 C.2   221  LEU221      0.2260
     67  O         29.5910   34.4630   35.5530 O.2   221  LEU221     -0.2867
     68  CB        27.6690   34.8680   38.2130 C.3   221  LEU221      0.0270
     69  CG        28.2250   35.7180   39.3490 C.3   221  LEU221      0.0019
     70  CD1       28.2920   34.8760   40.6150 C.3   221  LEU221      0.0001
     71  CD2       29.5940   36.2720   38.9780 C.3   221  LEU221      0.0001
     72  N         29.3860   35.9630   32.6570 N.3   224  PHE224     -0.1241
     73  CA        30.6330   36.6760   32.8410 C.3   224  PHE224      0.1605
     74  C         31.8100   35.7090   32.8060 C.2   224  PHE224      0.2264
     75  O         32.7860   35.9440   32.0980 O.2   224  PHE224     -0.2867
     76  CB        30.6530   37.4630   34.1510 C.3   224  PHE224      0.0534
     77  CG        31.9740   38.1490   34.4010 C.ar  224  PHE224     -0.0203
     78  CD1       32.2950   39.3200   33.7310 C.ar  224  PHE224     -0.0042
     79  CD2       32.9130   37.5940   35.2620 C.ar  224  PHE224     -0.0042
     80  CE1       33.5190   39.9500   33.9370 C.ar  224  PHE224     -0.0003
     81  CE2       34.1440   38.2140   35.4710 C.ar  224  PHE224     -0.0003
     82  CZ        34.4450   39.3970   34.8080 C.ar  224  PHE224     -0.0000
     83  N         39.7330   39.5370   29.9490 N.3   231  TYR231     -0.1241
     84  CA        40.6550   40.5560   30.4560 C.3   231  TYR231      0.1605
     85  C         41.1800   40.1510   31.8310 C.2   231  TYR231      0.2264
     86  O         42.3490   40.3860   32.1710 O.2   231  TYR231     -0.2867
     87  CB        39.9610   41.9290   30.5460 C.3   231  TYR231      0.0534
     88  CG        39.0180   42.0250   31.7360 C.ar  231  TYR231     -0.0201
     89  CD1       37.8020   41.3510   31.7420 C.ar  231  TYR231     -0.0009
     90  CD2       39.3630   42.7730   32.8610 C.ar  231  TYR231     -0.0009
     91  CE1       36.9460   41.4260   32.8450 C.ar  231  TYR231      0.0417
     92  CE2       38.5320   42.8480   33.9520 C.ar  231  TYR231      0.0417
     93  CZ        37.3230   42.1740   33.9400 C.ar  231  TYR231      0.1957
     94  OH        36.4900   42.2560   35.0310 O.3   231  TYR231     -0.2866
     95  N         29.9270   47.2050   30.3210 N.3   262  TRP262     -0.1241
     96  CA        29.4810   47.2990   31.7080 C.3   262  TRP262      0.1605
     97  C         28.6550   48.5510   32.0060 C.2   262  TRP262      0.2264
     98  O         28.0880   48.6570   33.0830 O.2   262  TRP262     -0.2867
     99  CB        30.6690   47.2780   32.6640 C.3   262  TRP262      0.0550
    100  CG        31.6120   46.1010   32.5410 C.ar  262  TRP262      0.0003
    101  CD1       31.3910   44.9150   31.8990 C.ar  262  TRP262      0.0946
    102  CD2       32.9230   46.0180   33.1060 C.ar  262  TRP262      0.0152
    103  NE1       32.5060   44.0940   32.0170 N.ar  262  TRP262     -0.2442
    104  CE2       33.4550   44.7520   32.7590 C.ar  262  TRP262      0.0810
    105  CE3       33.7080   46.9000   33.8640 C.ar  262  TRP262      0.0012
    106  CZ2       34.7350   44.3500   33.1450 C.ar  262  TRP262      0.0191
    107  CZ3       34.9810   46.4960   34.2500 C.ar  262  TRP262      0.0001
    108  CH2       35.4760   45.2260   33.8930 C.ar  262  TRP262      0.0015
    109  N         45.4440   42.2360   39.7020 N.3   297  TYR297     -0.1241
    110  CA        44.6790   40.9980   39.4620 C.3   297  TYR297      0.1605
    111  C         45.5000   39.7510   39.7610 C.2   297  TYR297      0.2264
    112  O         44.9820   38.7540   40.2650 O.2   297  TYR297     -0.2867
    113  CB        44.1860   40.9340   38.0140 C.3   297  TYR297      0.0534
    114  CG        43.0050   41.8350   37.7420 C.ar  297  TYR297     -0.0201
    115  CD1       43.1890   43.1600   37.3770 C.ar  297  TYR297     -0.0009
    116  CD2       41.7060   41.3660   37.8740 C.ar  297  TYR297     -0.0009
    117  CE1       42.1110   43.9860   37.1310 C.ar  297  TYR297      0.0417
    118  CE2       40.6200   42.1940   37.6390 C.ar  297  TYR297      0.0417
    119  CZ        40.8310   43.4920   37.2670 C.ar  297  TYR297      0.1957
    120  OH        39.7580   44.3140   37.0250 O.3   297  TYR297     -0.2866
    121  N         39.4040   35.7860   42.8740 N.3   304  LEU304     -0.1231
    122  CA        38.6330   36.2240   41.7130 C.3   304  LEU304      0.1678
    123  C         37.6420   35.1530   41.2580 C.2   304  LEU304      0.2434
    124  O         37.7890   33.9840   41.6050 O.2   304  LEU304     -0.2733
    125  CB        39.5680   36.5610   40.5470 C.3   304  LEU304      0.0284
    126  CG        40.5270   37.7370   40.6960 C.3   304  LEU304      0.0019
    127  CD1       41.5010   37.7520   39.5230 C.3   304  LEU304      0.0001
    128  CD2       39.7400   39.0070   40.7390 C.3   304  LEU304      0.0001
    129  N         36.6330   35.5450   40.4660 N.am  305  PRO305     -0.2729
    130  CA        35.8110   34.5430   39.7710 C.3   305  PRO305      0.1401
    131  C         36.6280   33.6290   38.8430 C.2   305  PRO305      0.2269
    132  O         36.2590   32.4720   38.6520 O.2   305  PRO305     -0.2865
    133  CB        34.8340   35.4000   38.9610 C.3   305  PRO305      0.0296
    134  CG        34.7120   36.6560   39.7330 C.3   305  PRO305      0.0237
    135  CD        36.0660   36.9000   40.3540 C.3   305  PRO305      0.0939
    136  N         27.5000   44.5600   35.4170 N.3   330  SER330     -0.1202
    137  CA        28.0020   43.2790   34.9120 C.3   330  SER330      0.2020
    138  C         27.6600   42.0970   35.8210 C.2   330  SER330      0.2618
    139  O         27.6850   40.9390   35.3980 O.2   330  SER330     -0.2717
    140  CB        29.5070   43.3530   34.7370 C.3   330  SER330      0.2103
    141  OG        30.0790   43.8630   35.9250 O.3   330  SER330     -0.2182
    142  N         27.3720   42.4030   37.0790 N.am  331  ALA331     -0.1979
    143  CA        26.9480   41.4000   38.0500 C.3   331  ALA331      0.1597
    144  C         26.0790   42.0520   39.1150 C.2   331  ALA331      0.2287
    145  O         26.2750   43.2220   39.4410 O.2   331  ALA331     -0.2864
    146  CB        28.1420   40.7310   38.6830 C.3   331  ALA331      0.0319
    147  N         27.8010   49.8880   35.6750 N.3   356  HIS356     -0.1241
    148  CA        28.9310   49.5860   36.5440 C.3   356  HIS356      0.1621
    149  C         29.6720   50.8060   37.1010 C.2   356  HIS356      0.2264
    150  O         30.2870   50.7220   38.1600 O.2   356  HIS356     -0.2867
    151  CB        29.8940   48.7020   35.7400 C.3   356  HIS356      0.0745
    152  CG        31.0350   48.1420   36.5220 C.ar  356  HIS356      0.0817
    153  ND1       30.9160   47.0240   37.3150 N.ar  356  HIS356     -0.2268
    154  CD2       32.3360   48.5120   36.5840 C.ar  356  HIS356      0.1154
    155  CE1       32.0870   46.7430   37.8550 C.ar  356  HIS356      0.1986
    156  NE2       32.9660   47.6300   37.4260 N.ar  356  HIS356     -0.2212
@<TRIPOS>BOND
     1    83    84    1
     2    95    96    1
     3    84    87    1
     4    84    85    1
     5    87    88    1
     6    96    97    1
     7    96    99    1
     8    88    89   ar
     9    88    90   ar
    10    89    91   ar
    11    85    86    2
    12    14    12   ar
    13    14    13   ar
    14   101   103   ar
    15   101   100   ar
    16    97    98    2
    17   103   104   ar
    18    75    74    2
    19    12    10   ar
    20   100    99    1
    21   100   102   ar
    22    72    73    1
    23    13    11   ar
    24   104   102   ar
    25   104   106   ar
    26    74    73    1
    27    73    76    1
    28    91    93   ar
    29    90    92   ar
    30   102   105   ar
    31   106   108   ar
    32    10     9   ar
    33    10     8   ar
    34    78    80   ar
    35    78    77   ar
    36   105   107   ar
    37   108   107   ar
    38    80    82   ar
    39    93    92   ar
    40    93    94    1
    41    11     8   ar
    42    76    77    1
    43    77    79   ar
    44     9     7   ar
    45     8     6   ar
    46   140   137    1
    47   140   141    1
    48    82    81   ar
    49   137   136    1
    50   137   138    1
    51    79    81   ar
    52   139   138    2
    53    67    66    2
    54   147   148    1
    55     7     6   ar
    56   151   152    1
    57   151   148    1
    58   138   142   am
    59     6     5    1
    60    66    65    1
    61     3     4    2
    62     3     2    1
    63    64    65    1
    64   152   154   ar
    65   152   153   ar
    66   148   149    1
    67   154   156   ar
    68    65    68    1
    69   120   119    1
    70   142   143    1
    71     5     2    1
    72   149   150    2
    73   117   119   ar
    74   117   115   ar
    75     2     1    1
    76   119   118   ar
    77   153   155   ar
    78   115   114   ar
    79   156   155   ar
    80   118   116   ar
    81   114   116   ar
    82   114   113    1
    83   113   110    1
    84   143   146    1
    85   143   144    1
    86    68    69    1
    87    21    20   ar
    88   132   131    2
    89   131   130    1
    90   133   134    1
    91   133   130    1
    92    71    69    1
    93   144   145    2
    94    20    22   ar
    95    20    19    1
    96    69    70    1
    97   110   109    1
    98   110   111    1
    99   127   126    1
   100    53    55   ar
   101    53    51   ar
   102   134   135    1
   103   111   112    2
   104   130   129    1
   105    55    54   ar
   106    19    16    1
   107   135   129    1
   108   129   123   am
   109    51    50   ar
   110    29    28    1
   111   125   126    1
   112   125   122    1
   113   126   128    1
   114    28    30    1
   115    28    27    1
   116    54    52   ar
   117    16    15    1
   118    16    17    1
   119   123   124    2
   120   123   122    1
   121    63    61    1
   122    50    52   ar
   123    50    49    1
   124   122   121    1
   125    23    17   am
   126    23    24    1
   127    44    42   ar
   128    44    43   ar
   129    17    18    2
   130    27    24    1
   131    62    60    1
   132    49    46    1
   133    61    60    1
   134    42    40   ar
   135    43    41   ar
   136    24    25    1
   137    60    57    1
   138    46    45    1
   139    46    47    1
   140    57    56    1
   141    57    58    1
   142    40    38   ar
   143    40    39   ar
   144    41    38   ar
   145    25    26    2
   146    47    48    2
   147    38    36   ar
   148    39    37   ar
   149    58    59    2
   150    36    37   ar
   151    36    35    1
   152    35    32    1
   153    31    32    1
   154    32    33    1
   155    33    34    2
