@<TRIPOS>MOLECULE
tmp/5f4zB00.pdb
 89 88 0 0 0
SMALL
GASTEIGER

@<TRIPOS>ATOM
      1  N        -24.8970   30.3180   30.0580 N.3     6  VAL6       -0.1231
      2  CA       -25.6360   29.5680   31.0770 C.3     6  VAL6        0.1692
      3  C        -25.0680   28.1570   31.1750 C.2     6  VAL6        0.2592
      4  O        -25.4400   27.2680   30.4140 O.2     6  VAL6       -0.2718
      5  CB       -27.1440   29.4780   30.7740 C.3     6  VAL6        0.0266
      6  CG1      -27.8830   28.8010   31.9420 C.3     6  VAL6        0.0020
      7  CG2      -27.7330   30.8650   30.5070 C.3     6  VAL6        0.0020
      8  N        -24.1630   27.9600   32.1190 N.am    7  ILE7       -0.1966
      9  CA       -23.5070   26.6750   32.2890 C.3     7  ILE7        0.1712
     10  C        -24.3360   25.7520   33.1920 C.2     7  ILE7        0.2458
     11  O        -24.6010   26.0800   34.3490 O.2     7  ILE7       -0.2730
     12  CB       -22.1200   26.8660   32.8790 C.3     7  ILE7        0.0289
     13  CG1      -21.2780   27.7520   31.9600 C.3     7  ILE7        0.0022
     14  CG2      -21.4230   25.5260   33.0840 C.3     7  ILE7        0.0023
     15  CD1      -21.0810   27.1740   30.5680 C.3     7  ILE7        0.0001
     16  N        -24.7400   24.5870   32.6690 N.am    8  PRO8       -0.2727
     17  CA       -25.4810   23.6300   33.4980 C.3     8  PRO8        0.1402
     18  C        -24.6960   23.2260   34.7410 C.2     8  PRO8        0.2269
     19  O        -23.4830   22.9740   34.6430 O.2     8  PRO8       -0.2865
     20  CB       -25.6760   22.4290   32.5640 C.3     8  PRO8        0.0296
     21  CG       -25.5590   22.9920   31.1860 C.3     8  PRO8        0.0237
     22  CD       -24.5550   24.1020   31.2910 C.3     8  PRO8        0.0939
     23  N        -22.3220   20.3470   34.4840 N.3    11  ASP11      -0.1239
     24  CA       -20.9790   20.5400   33.9320 C.3    11  ASP11       0.1674
     25  C        -19.9740   20.8450   35.0380 C.2    11  ASP11       0.2266
     26  O        -18.8230   20.3910   35.0030 O.2    11  ASP11      -0.2867
     27  CB       -20.9720   21.6790   32.9130 C.3    11  ASP11       0.1410
     28  CG       -21.7270   21.3370   31.6500 C.2    11  ASP11       0.3668
     29  OD1      -22.3540   20.2600   31.6000 O.co2  11  ASP11      -0.2456
     30  OD2      -21.6760   22.1400   30.6980 O.co2  11  ASP11      -0.2456
     31  N        -16.8960   30.6380   23.0290 N.3   136  PHE136     -0.1241
     32  CA       -18.3250   30.5170   22.7700 C.3   136  PHE136      0.1605
     33  C        -18.6680   30.6160   21.2900 C.2   136  PHE136      0.2264
     34  O        -19.8170   30.4380   20.9220 O.2   136  PHE136     -0.2867
     35  CB       -19.0890   31.5530   23.6070 C.3   136  PHE136      0.0534
     36  CG       -18.9330   31.3150   25.0740 C.ar  136  PHE136     -0.0203
     37  CD1      -19.5960   30.2590   25.6830 C.ar  136  PHE136     -0.0042
     38  CD2      -18.0650   32.0860   25.8270 C.ar  136  PHE136     -0.0042
     39  CE1      -19.4250   29.9950   27.0250 C.ar  136  PHE136     -0.0003
     40  CE2      -17.8880   31.8250   27.1700 C.ar  136  PHE136     -0.0003
     41  CZ       -18.5750   30.7840   27.7680 C.ar  136  PHE136     -0.0000
     42  N        -16.4180   25.1390   17.8140 N.3   139  PRO139     -0.2116
     43  CA       -15.7690   24.4750   16.6720 C.3   139  PRO139      0.1372
     44  C        -16.2880   24.9700   15.3220 C.2   139  PRO139      0.2244
     45  O        -17.4650   25.2690   15.1880 O.2   139  PRO139     -0.2868
     46  CB       -16.1250   23.0000   16.8830 C.3   139  PRO139      0.0268
     47  CG       -16.2840   22.8770   18.3750 C.3   139  PRO139      0.0207
     48  CD       -16.9360   24.1730   18.7970 C.3   139  PRO139      0.0892
     49  N         -9.2190   17.6600   26.3050 N.3   246  THR246     -0.1218
     50  CA       -10.6670   17.7240   26.4840 C.3   246  THR246      0.1862
     51  C        -11.1230   16.8370   27.6470 C.2   246  THR246      0.2287
     52  O        -12.1520   17.1170   28.2980 O.2   246  THR246     -0.2866
     53  CB       -11.3790   17.3210   25.1890 C.3   246  THR246      0.1770
     54  OG1      -10.8950   18.1560   24.1330 O.3   246  THR246     -0.2211
     55  CG2      -12.9090   17.4830   25.3050 C.3   246  THR246      0.0375
     56  N        -12.2210   24.9580   28.9340 N.3   285  TRP285     -0.1227
     57  CA       -12.7270   23.6860   29.4470 C.3   285  TRP285      0.1737
     58  C        -14.2170   23.5140   29.1760 C.2   285  TRP285      0.2595
     59  O        -14.6500   22.4920   28.6440 O.2   285  TRP285     -0.2718
     60  CB       -12.4730   23.5480   30.9570 C.3   285  TRP285      0.0564
     61  CG       -13.1520   22.3140   31.4610 C.ar  285  TRP285      0.0003
     62  CD1      -14.3610   22.2440   32.0880 C.ar  285  TRP285      0.0946
     63  CD2      -12.7100   20.9620   31.2930 C.ar  285  TRP285      0.0152
     64  NE1      -14.6890   20.9350   32.3460 N.ar  285  TRP285     -0.2442
     65  CE2      -13.6900   20.1280   31.8730 C.ar  285  TRP285      0.0810
     66  CE3      -11.5770   20.3770   30.7400 C.ar  285  TRP285      0.0012
     67  CZ2      -13.5650   18.7420   31.9120 C.ar  285  TRP285      0.0191
     68  CZ3      -11.4510   19.0000   30.7780 C.ar  285  TRP285      0.0001
     69  CH2      -12.4460   18.1940   31.3540 C.ar  285  TRP285      0.0015
     70  N        -15.0200   24.5160   29.5510 N.am  286  LEU286     -0.1966
     71  CA       -16.4640   24.3400   29.5160 C.3   286  LEU286      0.1728
     72  C        -16.9920   24.2350   28.0900 C.2   286  LEU286      0.2617
     73  O        -17.9780   23.5600   27.8450 O.2   286  LEU286     -0.2715
     74  CB       -17.1600   25.4950   30.2600 C.3   286  LEU286      0.0311
     75  CG       -16.9220   25.5200   31.7760 C.3   286  LEU286      0.0022
     76  CD1      -17.3660   26.8740   32.3660 C.3   286  LEU286      0.0001
     77  CD2      -17.6620   24.3710   32.4830 C.3   286  LEU286      0.0001
     78  N        -16.3310   24.8980   27.1530 N.am  287  THR287     -0.1937
     79  CA       -16.7790   24.8880   25.7650 C.3   287  THR287      0.2028
     80  C        -16.0990   23.7540   25.0210 C.2   287  THR287      0.2642
     81  O        -16.4340   23.4650   23.8710 O.2   287  THR287     -0.2714
     82  CB       -16.4700   26.2350   25.0520 C.3   287  THR287      0.1808
     83  OG1      -15.0530   26.4560   25.0390 O.3   287  THR287     -0.2208
     84  CG2      -17.1540   27.4000   25.7730 C.3   287  THR287      0.0379
     85  N        -15.1480   23.1120   25.7000 N.am  288  ALA288     -0.1977
     86  CA       -14.3970   21.9880   25.1400 C.3   288  ALA288      0.1597
     87  C        -13.7710   22.3760   23.8060 C.2   288  ALA288      0.2287
     88  O        -13.9270   21.6800   22.8000 O.2   288  ALA288     -0.2864
     89  CB       -15.2920   20.7490   24.9880 C.3   288  ALA288      0.0319
@<TRIPOS>BOND
     1    45    44    2
     2    44    43    1
     3    43    46    1
     4    43    42    1
     5    46    47    1
     6    42    48    1
     7    47    48    1
     8    34    33    2
     9    33    32    1
    10    32    31    1
    11    32    35    1
    12    88    87    2
    13    35    36    1
    14    87    86    1
    15    81    80    2
    16    54    53    1
    17    89    86    1
    18    80    85   am
    19    80    79    1
    20    83    82    1
    21    82    79    1
    22    82    84    1
    23    36    37   ar
    24    36    38   ar
    25    86    85    1
    26    53    55    1
    27    53    50    1
    28    37    39   ar
    29    79    78    1
    30    38    40   ar
    31    49    50    1
    32    50    51    1
    33    39    41   ar
    34    78    72   am
    35    40    41   ar
    36    51    52    2
    37    73    72    2
    38    72    71    1
    39    59    58    2
    40    56    57    1
    41    58    57    1
    42    58    70   am
    43    57    60    1
    44    71    70    1
    45    71    74    1
    46     1     2    1
    47    74    75    1
    48     4     3    2
    49     7     5    1
    50    15    13    1
    51    30    28   ar
    52    66    68   ar
    53    66    63   ar
    54     5     2    1
    55     5     6    1
    56    68    69   ar
    57    60    61    1
    58     2     3    1
    59     3     8   am
    60    21    22    1
    61    21    20    1
    62    22    16    1
    63    63    61   ar
    64    63    65   ar
    65    69    67   ar
    66    61    62   ar
    67    29    28   ar
    68    28    27    1
    69    75    76    1
    70    75    77    1
    71    65    67   ar
    72    65    64   ar
    73    13    12    1
    74    62    64   ar
    75     8     9    1
    76     9    12    1
    77     9    10    1
    78    20    17    1
    79    16    10   am
    80    16    17    1
    81    12    14    1
    82    27    24    1
    83    10    11    2
    84    17    18    1
    85    24    23    1
    86    24    25    1
    87    19    18    2
    88    26    25    2
