@<TRIPOS>MOLECULE
tmp/5f5aA00.pdb
 150 144 0 0 0
SMALL
GASTEIGER

@<TRIPOS>ATOM
      1  N         21.8280   -1.9820   22.5160 N.3   126  TYR126     -0.1241
      2  CA        20.4120   -1.6470   22.7590 C.3   126  TYR126      0.1605
      3  C         20.1370   -1.7650   24.2590 C.2   126  TYR126      0.2264
      4  O         20.5910   -2.6970   24.9290 O.2   126  TYR126     -0.2867
      5  CB        19.4360   -2.5620   21.9570 C.3   126  TYR126      0.0534
      6  CG        18.0460   -1.9680   21.5760 C.ar  126  TYR126     -0.0201
      7  CD1       17.7140   -0.6480   21.8380 C.ar  126  TYR126     -0.0009
      8  CD2       17.1470   -2.6920   20.8240 C.ar  126  TYR126     -0.0009
      9  CE1       16.4900   -0.0830   21.4650 C.ar  126  TYR126      0.0417
     10  CE2       15.8890   -2.1530   20.4720 C.ar  126  TYR126      0.0417
     11  CZ        15.5730   -0.8180   20.7740 C.ar  126  TYR126      0.1957
     12  OH        14.3260   -0.1890   20.3940 O.3   126  TYR126     -0.2866
     13  N          7.4790   -0.8450   29.7040 N.3   169  TYR169     -0.1241
     14  CA         8.9160   -1.0070   29.5250 C.3   169  TYR169      0.1605
     15  C          9.4990    0.1430   28.7010 C.2   169  TYR169      0.2264
     16  O          8.8400    0.6700   27.8190 O.2   169  TYR169     -0.2867
     17  CB         9.2180   -2.3280   28.7890 C.3   169  TYR169      0.0534
     18  CG         8.8600   -3.5780   29.5520 C.ar  169  TYR169     -0.0201
     19  CD1        9.7730   -4.1740   30.4010 C.ar  169  TYR169     -0.0009
     20  CD2        7.5900   -4.1280   29.4450 C.ar  169  TYR169     -0.0009
     21  CE1        9.4560   -5.3380   31.1050 C.ar  169  TYR169      0.0417
     22  CE2        7.2510   -5.2890   30.1440 C.ar  169  TYR169      0.0417
     23  CZ         8.1810   -5.8770   30.9820 C.ar  169  TYR169      0.1957
     24  OH         7.8380   -7.0110   31.6770 O.3   169  TYR169     -0.2866
     25  N         12.8120    1.4870   26.2770 N.3   171  TYR171     -0.1241
     26  CA        13.7480    1.0520   25.2220 C.3   171  TYR171      0.1605
     27  C         14.6190    2.2410   24.8530 C.2   171  TYR171      0.2264
     28  O         14.1170    3.1980   24.3090 O.2   171  TYR171     -0.2867
     29  CB        12.9790    0.5520   23.9690 C.3   171  TYR171      0.0534
     30  CG        12.1260   -0.6430   24.2880 C.ar  171  TYR171     -0.0201
     31  CD1       10.8820   -0.4860   24.9030 C.ar  171  TYR171     -0.0009
     32  CD2       12.6160   -1.9330   24.1070 C.ar  171  TYR171     -0.0009
     33  CE1       10.1380   -1.5800   25.2960 C.ar  171  TYR171      0.0417
     34  CE2       11.8750   -3.0380   24.4940 C.ar  171  TYR171      0.0417
     35  CZ        10.6620   -2.8580   25.1100 C.ar  171  TYR171      0.1957
     36  OH         9.9360   -3.9350   25.5190 O.3   171  TYR171     -0.2866
     37  N         14.6790   -4.2590   16.1050 N.3   179  PHE179     -0.1241
     38  CA        13.6770   -5.2010   16.6170 C.3   179  PHE179      0.1605
     39  C         13.3090   -6.1940   15.5130 C.2   179  PHE179      0.2264
     40  O         12.9150   -5.8070   14.4140 O.2   179  PHE179     -0.2867
     41  CB        12.4500   -4.5260   17.3310 C.3   179  PHE179      0.0534
     42  CG        11.7540   -3.4560   16.5560 C.ar  179  PHE179     -0.0203
     43  CD1       12.2680   -2.1600   16.4990 C.ar  179  PHE179     -0.0042
     44  CD2       10.4950   -3.6960   15.9880 C.ar  179  PHE179     -0.0042
     45  CE1       11.5790   -1.1580   15.7920 C.ar  179  PHE179     -0.0003
     46  CE2        9.7950   -2.7150   15.3350 C.ar  179  PHE179     -0.0003
     47  CZ        10.3370   -1.4420   15.2330 C.ar  179  PHE179     -0.0000
     48  N          8.3480  -10.1990   14.6960 N.3   182  HIS182     -0.1241
     49  CA         7.5980  -10.8660   15.7590 C.3   182  HIS182      0.1621
     50  C          6.1710  -10.3640   15.8190 C.2   182  HIS182      0.2264
     51  O          5.8800   -9.2560   15.3520 O.2   182  HIS182     -0.2867
     52  CB         8.2730  -10.6390   17.1350 C.3   182  HIS182      0.0745
     53  CG         8.1800   -9.2170   17.6510 C.ar  182  HIS182      0.0817
     54  ND1        8.9130   -8.1750   17.1270 N.ar  182  HIS182     -0.2268
     55  CD2        7.4420   -8.6790   18.6520 C.ar  182  HIS182      0.1154
     56  CE1        8.6300   -7.0570   17.7780 C.ar  182  HIS182      0.1986
     57  NE2        7.7170   -7.3320   18.6860 N.ar  182  HIS182     -0.2212
     58  N          3.3030   -9.8930   19.1840 N.3   184  GLU184     -0.1245
     59  CA         3.3810   -9.7450   20.6270 C.3   184  GLU184      0.1567
     60  C          3.1240  -11.0670   21.3110 C.2   184  GLU184      0.2260
     61  O          2.4900  -11.9530   20.7500 O.2   184  GLU184     -0.2867
     62  CB         2.3800   -8.7080   21.1010 C.3   184  GLU184      0.0388
     63  CG         2.5990   -7.3360   20.4890 C.3   184  GLU184      0.1160
     64  CD         3.9770   -6.7640   20.7200 C.2   184  GLU184      0.3649
     65  OE1        4.4480   -6.7750   21.8670 O.co2 184  GLU184     -0.2457
     66  OE2        4.5920   -6.2850   19.7580 O.co2 184  GLU184     -0.2457
     67  N          0.0360   -3.9720   21.1240 N.3   190  SER190     -0.1217
     68  CA         0.9860   -3.1430   21.8330 C.3   190  SER190      0.1889
     69  C          0.7180   -1.6820   21.5180 C.2   190  SER190      0.2288
     70  O          0.1440   -1.3250   20.4750 O.2   190  SER190     -0.2866
     71  CB         2.4420   -3.5030   21.5210 C.3   190  SER190      0.2089
     72  OG         2.8080   -3.2320   20.1750 O.3   190  SER190     -0.2183
     73  N          3.1840    1.9510   21.6880 N.3   192  ASN192     -0.1240
     74  CA         4.5780    2.3960   21.7450 C.3   192  ASN192      0.1653
     75  C          4.5710    3.8830   21.5790 C.2   192  ASN192      0.2266
     76  O          4.0100    4.4070   20.6050 O.2   192  ASN192     -0.2867
     77  CB         5.3860    1.7000   20.6150 C.3   192  ASN192      0.1155
     78  CG         6.9360    2.0370   20.5790 C.2   192  ASN192      0.2627
     79  OD1        7.3570    3.2430   20.4190 O.2   192  ASN192     -0.2716
     80  ND2        7.8080    0.9470   20.6450 N.am  192  ASN192     -0.0877
     81  N         12.2050    6.0270   14.5420 N.3   200  LYS200     -0.1245
     82  CA        12.1520    4.5660   14.4940 C.3   200  LYS200      0.1561
     83  C         11.3710    4.1910   13.2480 C.2   200  LYS200      0.2260
     84  O         10.2350    4.6440   13.0670 O.2   200  LYS200     -0.2867
     85  CB        11.4770    4.0230   15.7520 C.3   200  LYS200      0.0271
     86  CG        11.3810    2.5110   15.8440 C.3   200  LYS200      0.0035
     87  CD        10.5880    2.0470   17.0570 C.3   200  LYS200      0.0206
     88  CE        10.9770    2.7120   18.4030 C.3   200  LYS200      0.1093
     89  NZ        12.1830    2.2600   19.1270 N.3   200  LYS200     -0.1314
     90  N          9.4620    1.3010   11.0760 N.3   202  TRP202     -0.1241
     91  CA         8.6810    0.0930   11.2600 C.3   202  TRP202      0.1605
     92  C          8.3280   -0.5680    9.9190 C.2   202  TRP202      0.2264
     93  O          7.9910    0.1310    8.9510 O.2   202  TRP202     -0.2867
     94  CB         7.3460    0.4140   11.9230 C.3   202  TRP202      0.0550
     95  CG         7.3980    1.0090   13.3130 C.ar  202  TRP202      0.0003
     96  CD1        7.8170    2.2570   13.6660 C.ar  202  TRP202      0.0946
     97  CD2        7.0210    0.3570   14.5440 C.ar  202  TRP202      0.0152
     98  NE1        7.7320    2.4310   15.0360 N.ar  202  TRP202     -0.2442
     99  CE2        7.2220    1.2880   15.5900 C.ar  202  TRP202      0.0810
    100  CE3        6.4590   -0.8930   14.8590 C.ar  202  TRP202      0.0012
    101  CZ2        6.9130    0.9960   16.9270 C.ar  202  TRP202      0.0191
    102  CZ3        6.1540   -1.1640   16.1780 C.ar  202  TRP202      0.0001
    103  CH2        6.3910   -0.2260   17.1820 C.ar  202  TRP202      0.0015
    104  N         12.6160  -13.7850   18.6160 N.3   235  LYS235     -0.1245
    105  CA        12.9000  -12.3820   18.3370 C.3   235  LYS235      0.1561
    106  C         14.3340  -12.2000   17.8750 C.2   235  LYS235      0.2260
    107  O         15.0580  -11.3310   18.3520 O.2   235  LYS235     -0.2867
    108  CB        12.5170  -11.4920   19.5360 C.3   235  LYS235      0.0271
    109  CG        10.9900  -11.5020   19.6930 C.3   235  LYS235      0.0035
    110  CD        10.4480  -10.9460   21.0010 C.3   235  LYS235      0.0206
    111  CE        11.1100   -9.6450   21.3840 C.3   235  LYS235      0.1093
    112  NZ        10.2530   -8.8380   22.2930 N.3   235  LYS235     -0.1314
    113  N          0.3240   -1.5700   17.6020 N.3   264  THR264     -0.1218
    114  CA         0.3250   -2.8260   16.8580 C.3   264  THR264      0.1862
    115  C         -0.9010   -3.6460   17.2590 C.2   264  THR264      0.2287
    116  O         -1.3280   -3.6180   18.4150 O.2   264  THR264     -0.2866
    117  CB         1.6100   -3.6650   16.9750 C.3   264  THR264      0.1770
    118  OG1        1.6450   -4.3610   18.2080 O.3   264  THR264     -0.2211
    119  CG2        2.8580   -2.8780   16.8160 C.3   264  THR264      0.0375
    120  N          5.7590   -7.5240   13.0010 N.3   270  HIS270     -0.1241
    121  CA         6.4580   -6.2750   12.7860 C.3   270  HIS270      0.1621
    122  C          7.9360   -6.3830   13.1290 C.2   270  HIS270      0.2264
    123  O          8.3450   -7.2760   13.8810 O.2   270  HIS270     -0.2867
    124  CB         5.7890   -5.1060   13.5220 C.3   270  HIS270      0.0745
    125  CG         5.6570   -5.3160   14.9940 C.ar  270  HIS270      0.0817
    126  ND1        4.6700   -6.1000   15.5470 N.ar  270  HIS270     -0.2268
    127  CD2        6.3740   -4.8270   16.0340 C.ar  270  HIS270      0.1154
    128  CE1        4.8140   -6.1190   16.8560 C.ar  270  HIS270      0.1986
    129  NE2        5.8240   -5.3410   17.1800 N.ar  270  HIS270     -0.2212
    130  N          6.7870    1.1890   25.8680 N.3   282  ALA282     -0.1231
    131  CA         5.7760    0.3150   25.2700 C.3   282  ALA282      0.1694
    132  C          5.1450   -0.5630   26.3300 C.2   282  ALA282      0.2592
    133  O          5.7600   -0.8690   27.3750 O.2   282  ALA282     -0.2718
    134  CB         6.4060   -0.5310   24.1730 C.3   282  ALA282      0.0304
    135  N          3.9230   -1.0030   26.0290 N.am  283  ILE283     -0.1966
    136  CA         3.2090   -1.9290   26.8900 C.3   283  ILE283      0.1727
    137  C          2.2460   -2.7190   26.0150 C.2   283  ILE283      0.2616
    138  O          1.7380   -2.2210   25.0000 O.2   283  ILE283     -0.2715
    139  CB         2.4790   -1.2040   28.0510 C.3   283  ILE283      0.0290
    140  CG1        2.0530   -2.1700   29.1550 C.3   283  ILE283      0.0022
    141  CG2        1.3430   -0.3290   27.5210 C.3   283  ILE283      0.0023
    142  CD1        1.4260   -1.4660   30.3550 C.3   283  ILE283      0.0001
    143  N          1.9800   -3.9520   26.4250 N.am  284  ASN284     -0.1972
    144  CA         0.8940   -4.7210   25.8310 C.3   284  ASN284      0.1688
    145  C         -0.4600   -4.3430   26.4160 C.2   284  ASN284      0.2292
    146  O         -0.5630   -3.9780   27.5970 O.2   284  ASN284     -0.2864
    147  CB         1.1290   -6.2570   25.9590 C.3   284  ASN284      0.1181
    148  CG         2.3510   -6.7220   25.1940 C.2   284  ASN284      0.2629
    149  OD1        3.2950   -7.2330   25.7640 O.2   284  ASN284     -0.2716
    150  ND2        2.3450   -6.5110   23.9190 N.am  284  ASN284     -0.0877
@<TRIPOS>BOND
     1    93    92    2
     2    92    91    1
     3    90    91    1
     4    91    94    1
     5    94    95    1
     6   121   120    1
     7   121   122    1
     8   121   124    1
     9    84    83    2
    10   122   123    2
    11    83    82    1
    12    95    96   ar
    13    95    97   ar
    14   124   125    1
    15    96    98   ar
    16    40    39    2
    17    82    81    1
    18    82    85    1
    19    97   100   ar
    20    97    99   ar
    21    48    49    1
    22   100   102   ar
    23   125   126   ar
    24   125   127   ar
    25    98    99   ar
    26    47    46   ar
    27    47    45   ar
    28    46    44   ar
    29    51    50    2
    30    39    38    1
    31   126   128   ar
    32    99   101   ar
    33    85    86    1
    34    49    50    1
    35    49    52    1
    36    45    43   ar
    37    86    87    1
    38    44    42   ar
    39   127   129   ar
    40    37    38    1
    41   102   103   ar
    42    43    42   ar
    43    42    41    1
    44    38    41    1
    45   119   117    1
    46   128   129   ar
    47   114   117    1
    48   114   115    1
    49   114   113    1
    50   101   103   ar
    51   117   118    1
    52    87    88    1
    53    54    53   ar
    54    54    56   ar
    55    52    53    1
    56   115   116    2
    57    53    55   ar
    58    56    57   ar
    59   106   105    1
    60   106   107    2
    61   105   104    1
    62   105   108    1
    63    88    89    1
    64    55    57   ar
    65    58    59    1
    66   108   109    1
    67   109   110    1
    68    66    64   ar
    69    72    71    1
    70    12    11    1
    71    79    78    2
    72    10    11   ar
    73    10     8   ar
    74    70    69    2
    75    63    64    1
    76    63    62    1
    77    78    77    1
    78    78    80   am
    79    76    75    2
    80    77    74    1
    81    59    62    1
    82    59    60    1
    83    64    65   ar
    84    61    60    2
    85    11     9   ar
    86     8     6   ar
    87   110   111    1
    88    67    68    1
    89   111   112    1
    90     9     7   ar
    91    69    68    1
    92    71    68    1
    93     6     7   ar
    94     6     5    1
    95    75    74    1
    96    73    74    1
    97     5     2    1
    98     1     2    1
    99     2     3    1
   100   150   148   am
   101    29    30    1
   102    29    26    1
   103    32    30   ar
   104    32    34   ar
   105   134   131    1
   106     3     4    2
   107    30    31   ar
   108    28    27    2
   109    34    35   ar
   110    27    26    1
   111    31    33   ar
   112   138   137    2
   113    35    33   ar
   114    35    36    1
   115   148   149    2
   116   148   147    1
   117    26    25    1
   118   131   130    1
   119   131   132    1
   120   144   147    1
   121   144   145    1
   122   144   143    1
   123   137   143   am
   124   137   136    1
   125   135   132   am
   126   135   136    1
   127   132   133    2
   128   145   146    2
   129   136   139    1
   130   141   139    1
   131    16    15    2
   132   139   140    1
   133    15    14    1
   134    17    14    1
   135    17    18    1
   136   140   142    1
   137    20    18   ar
   138    20    22   ar
   139    14    13    1
   140    18    19   ar
   141    22    23   ar
   142    19    21   ar
   143    23    21   ar
   144    23    24    1
