@<TRIPOS>MOLECULE
tmp/5f5bA00.pdb
 187 181 0 0 0
SMALL
GASTEIGER

@<TRIPOS>ATOM
      1  N        -19.8200    5.5900   -4.1090 N.3    26  ASP26      -0.1225
      2  CA       -20.0920    4.2510   -4.6460 C.3    26  ASP26       0.1805
      3  C        -21.4930    3.6890   -4.2490 C.2    26  ASP26       0.2597
      4  O        -22.2370    3.2210   -5.1340 O.2    26  ASP26      -0.2718
      5  CB       -19.0070    3.2550   -4.1880 C.3    26  ASP26       0.1424
      6  CG       -17.6660    3.3820   -4.9670 C.2    26  ASP26       0.3668
      7  OD1      -17.4950    4.2150   -5.9420 O.co2  26  ASP26      -0.2456
      8  OD2      -16.7690    2.5900   -4.5660 O.co2  26  ASP26      -0.2456
      9  N        -21.7960    3.7140   -2.9330 N.am   27  GLN27      -0.1979
     10  CA       -23.0750    3.2210   -2.3360 C.3    27  GLN27       0.1601
     11  C        -24.2620    3.9090   -2.9410 C.2    27  GLN27       0.2287
     12  O        -25.2520    3.2800   -3.2340 O.2    27  GLN27      -0.2864
     13  CB       -23.1260    3.4480   -0.8480 C.3    27  GLN27       0.0394
     14  CG       -22.4890    2.3430   -0.0480 C.3    27  GLN27       0.0908
     15  CD       -20.9580    2.4340   -0.0020 C.2    27  GLN27       0.2608
     16  OE1      -20.3650    3.4970   -0.2820 O.2    27  GLN27      -0.2717
     17  NE2      -20.3030    1.2980    0.3470 N.am   27  GLN27      -0.0878
     18  N        -24.4900    2.3940   -6.4750 N.3    30  MET30      -0.1245
     19  CA       -24.9210    1.0130   -6.3010 C.3    30  MET30       0.1570
     20  C        -26.4180    0.9070   -6.0260 C.2    30  MET30       0.2261
     21  O        -27.1480    0.1300   -6.6930 O.2    30  MET30      -0.2867
     22  CB       -24.1440    0.3550   -5.1990 C.3    30  MET30       0.0387
     23  CG       -22.7330    0.0570   -5.6660 C.3    30  MET30       0.0595
     24  SD       -22.1150   -1.4010   -4.8420 S.3    30  MET30      -0.1393
     25  CE       -21.5610   -0.5610   -3.3520 C.3    30  MET30       0.0692
     26  N        -15.1760    0.4350   -9.4050 N.3    56  PHE56      -0.1227
     27  CA       -14.7630    0.7460   -8.0420 C.3    56  PHE56       0.1736
     28  C        -13.3300    1.2400   -7.8400 C.2    56  PHE56       0.2596
     29  O        -12.9850    1.7380   -6.7830 O.2    56  PHE56      -0.2718
     30  CB       -15.0150   -0.5000   -7.1820 C.3    56  PHE56       0.0547
     31  CG       -16.4720   -0.9050   -7.2240 C.ar   56  PHE56      -0.0202
     32  CD1      -16.8850   -2.0160   -7.9900 C.ar   56  PHE56      -0.0042
     33  CD2      -17.4660   -0.0540   -6.6460 C.ar   56  PHE56      -0.0042
     34  CE1      -18.2450   -2.3280   -8.0840 C.ar   56  PHE56      -0.0003
     35  CE2      -18.8180   -0.3730   -6.7410 C.ar   56  PHE56      -0.0003
     36  CZ       -19.2100   -1.5050   -7.4760 C.ar   56  PHE56      -0.0000
     37  N        -12.5100    1.1120   -8.8490 N.am   57  SER57      -0.1952
     38  CA       -11.1390    1.6000   -8.7900 C.3    57  SER57       0.1924
     39  C        -10.6710    1.9540  -10.1980 C.2    57  SER57       0.2314
     40  O        -11.1310    1.3810  -11.1930 O.2    57  SER57      -0.2863
     41  CB       -10.2250    0.5910   -8.0340 C.3    57  SER57       0.2116
     42  OG        -9.6100   -0.3990   -8.8430 O.3    57  SER57      -0.2180
     43  N         -9.4290   -0.9140  -12.4170 N.3    60  HIS60      -0.1241
     44  CA       -10.7010   -1.5480  -12.8320 C.3    60  HIS60       0.1621
     45  C        -11.3460   -0.9070  -14.0800 C.2    60  HIS60       0.2264
     46  O        -11.4490   -1.5560  -15.1080 O.2    60  HIS60      -0.2867
     47  CB       -11.6860   -1.4290  -11.6750 C.3    60  HIS60       0.0745
     48  CG       -12.8700   -2.3420  -11.7680 C.ar   60  HIS60       0.0817
     49  ND1      -13.9670   -2.2020  -10.9440 N.ar   60  HIS60      -0.2268
     50  CD2      -13.1110   -3.4340  -12.5420 C.ar   60  HIS60       0.1154
     51  CE1      -14.8310   -3.1590  -11.2190 C.ar   60  HIS60       0.1986
     52  NE2      -14.3210   -3.9340  -12.1640 N.ar   60  HIS60      -0.2212
     53  N        -10.6560   -2.7230  -17.9230 N.3    64  ASN64      -0.1240
     54  CA       -11.9680   -3.1410  -18.4950 C.3    64  ASN64       0.1653
     55  C        -12.1570   -2.4210  -19.8420 C.2    64  ASN64       0.2266
     56  O        -12.2940   -3.0800  -20.8880 O.2    64  ASN64      -0.2867
     57  CB       -13.1440   -2.9110  -17.4710 C.3    64  ASN64       0.1155
     58  CG       -13.3290   -4.0810  -16.4830 C.2    64  ASN64       0.2627
     59  OD1      -12.4960   -4.9670  -16.3690 O.2    64  ASN64      -0.2716
     60  ND2      -14.4700   -4.1010  -15.8030 N.am   64  ASN64      -0.0877
     61  N        -22.5800  -14.3650  -10.2200 N.3    99  GLN99      -0.1245
     62  CA       -22.0080  -13.5780   -9.1710 C.3    99  GLN99       0.1566
     63  C        -22.9370  -13.4620   -8.0070 C.2    99  GLN99       0.2260
     64  O        -22.5230  -13.7370   -6.8980 O.2    99  GLN99      -0.2867
     65  CB       -21.5510  -12.2060   -9.6380 C.3    99  GLN99       0.0367
     66  CG       -20.7780  -11.4410   -8.5600 C.3    99  GLN99       0.0905
     67  CD       -19.6360  -12.2810   -8.0040 C.2    99  GLN99       0.2608
     68  OE1      -18.9720  -12.9870   -8.7740 O.2    99  GLN99      -0.2717
     69  NE2      -19.4330  -12.2610   -6.6660 N.am   99  GLN99      -0.0878
     70  N        -22.1200  -14.9110   -4.2220 N.3   103  SER103     -0.1217
     71  CA       -21.7010  -13.8700   -3.3000 C.3   103  SER103      0.1889
     72  C        -22.6750  -12.7420   -3.0030 C.2   103  SER103      0.2288
     73  O        -22.3110  -11.8340   -2.2610 O.2   103  SER103     -0.2866
     74  CB       -20.3760  -13.2720   -3.7840 C.3   103  SER103      0.2089
     75  OG       -19.4310  -14.2880   -4.0200 O.3   103  SER103     -0.2183
     76  N        -23.8100   -7.3470   -4.3020 N.3   106  TRP106     -0.1227
     77  CA       -22.9650   -6.0980   -4.2210 C.3   106  TRP106      0.1737
     78  C        -21.7200   -6.2640   -5.0430 C.2   106  TRP106      0.2595
     79  O        -20.7240   -6.7460   -4.5610 O.2   106  TRP106     -0.2718
     80  CB       -22.6460   -5.7040   -2.7590 C.3   106  TRP106      0.0564
     81  CG       -23.8780   -5.5140   -1.9670 C.ar  106  TRP106      0.0003
     82  CD1      -24.4040   -6.3790   -0.9860 C.ar  106  TRP106      0.0946
     83  CD2      -24.8300   -4.4560   -2.1210 C.ar  106  TRP106      0.0152
     84  NE1      -25.5980   -5.8610   -0.5140 N.ar  106  TRP106     -0.2442
     85  CE2      -25.8870   -4.7010   -1.1990 C.ar  106  TRP106      0.0810
     86  CE3      -24.8910   -3.3200   -2.9430 C.ar  106  TRP106      0.0012
     87  CZ2      -26.9760   -3.8520   -1.0770 C.ar  106  TRP106      0.0191
     88  CZ3      -25.9870   -2.4710   -2.8350 C.ar  106  TRP106      0.0001
     89  CH2      -27.0160   -2.7400   -1.8920 C.ar  106  TRP106      0.0015
     90  N        -21.8020   -5.9230   -6.3150 N.am  107  PHE107     -0.1962
     91  CA       -20.7220   -6.2430   -7.2870 C.3   107  PHE107      0.1771
     92  C        -21.0060   -5.3690   -8.4700 C.2   107  PHE107      0.2620
     93  O        -22.1230   -4.7830   -8.5780 O.2   107  PHE107     -0.2715
     94  CB       -20.6750   -7.7470   -7.6780 C.3   107  PHE107      0.0574
     95  CG       -21.8780   -8.2030   -8.5070 C.ar  107  PHE107     -0.0200
     96  CD1      -21.9000   -8.0280   -9.8920 C.ar  107  PHE107     -0.0042
     97  CD2      -23.0020   -8.7880   -7.8760 C.ar  107  PHE107     -0.0042
     98  CE1      -23.0290   -8.4150  -10.5980 C.ar  107  PHE107     -0.0003
     99  CE2      -24.1430   -9.1810   -8.5950 C.ar  107  PHE107     -0.0003
    100  CZ       -24.1510   -8.9840   -9.9390 C.ar  107  PHE107     -0.0000
    101  N        -19.9940   -5.1830   -9.3080 N.am  108  GLY108     -0.1940
    102  CA       -20.1160   -4.2900  -10.4800 C.3   108  GLY108      0.2014
    103  C        -18.8650   -4.3770  -11.3250 C.2   108  GLY108      0.2639
    104  O        -17.8740   -4.8480  -10.8650 O.2   108  GLY108     -0.2714
    105  N        -18.9320   -3.9280  -12.5610 N.am  109  GLY109     -0.1954
    106  CA       -17.8160   -3.9860  -13.4930 C.3   109  GLY109      0.1869
    107  C        -18.1900   -4.6540  -14.8170 C.2   109  GLY109      0.2309
    108  O        -18.9800   -5.5980  -14.8440 O.2   109  GLY109     -0.2863
    109  N        -16.1740   -6.5220  -16.3820 N.3   111  SER111     -0.1202
    110  CA       -15.2390   -7.5840  -16.6630 C.3   111  SER111      0.2020
    111  C        -15.8900   -8.9510  -16.9010 C.2   111  SER111      0.2619
    112  O        -15.1950   -9.8590  -17.4250 O.2   111  SER111     -0.2717
    113  CB       -14.1720   -7.6980  -15.5850 C.3   111  SER111      0.2103
    114  OG       -14.7580   -8.3120  -14.4200 O.3   111  SER111     -0.2182
    115  N        -17.1610   -9.1340  -16.4990 N.am  112  GLY112     -0.1956
    116  CA       -17.8980  -10.3650  -16.9240 C.3   112  GLY112      0.1869
    117  C        -17.9620  -10.3720  -18.4280 C.2   112  GLY112      0.2309
    118  O        -17.6980  -11.3720  -19.0320 O.2   112  GLY112     -0.2863
    119  N         -6.6310  -13.8680   -6.9150 N.3   153  ASP153     -0.1239
    120  CA        -6.8790  -12.5550   -6.2560 C.3   153  ASP153      0.1674
    121  C         -5.6470  -11.6740   -6.1250 C.2   153  ASP153      0.2266
    122  O         -5.3940  -11.1530   -5.0500 O.2   153  ASP153     -0.2867
    123  CB        -7.5890  -12.6680   -4.8700 C.3   153  ASP153      0.1410
    124  CG        -9.0230  -13.2690   -4.9430 C.2   153  ASP153      0.3668
    125  OD1       -9.7830  -13.1030   -5.9460 O.co2 153  ASP153     -0.2456
    126  OD2       -9.3970  -13.9170   -3.9440 O.co2 153  ASP153     -0.2456
    127  N         -4.8690   -8.7000   -7.0820 N.3   155  PHE155     -0.1241
    128  CA        -5.0670   -7.2520   -7.3260 C.3   155  PHE155      0.1605
    129  C         -5.1550   -6.4370   -6.0350 C.2   155  PHE155      0.2264
    130  O         -4.7080   -5.2900   -5.9930 O.2   155  PHE155     -0.2867
    131  CB        -6.3350   -6.9720   -8.1430 C.3   155  PHE155      0.0534
    132  CG        -6.2610   -7.3460   -9.6080 C.ar  155  PHE155     -0.0203
    133  CD1       -5.4620   -6.6160  -10.5180 C.ar  155  PHE155     -0.0042
    134  CD2       -7.0830   -8.3870  -10.1130 C.ar  155  PHE155     -0.0042
    135  CE1       -5.4650   -6.9720  -11.8880 C.ar  155  PHE155     -0.0003
    136  CE2       -7.0930   -8.7310  -11.4680 C.ar  155  PHE155     -0.0003
    137  CZ        -6.2680   -8.0350  -12.3530 C.ar  155  PHE155     -0.0000
    138  N         -8.1230   -5.8220   -4.2000 N.3   157  MET157     -0.1230
    139  CA        -9.5070   -5.5070   -3.8730 C.3   157  MET157      0.1702
    140  C        -10.1190   -6.7450   -4.4820 C.2   157  MET157      0.2593
    141  O         -9.5900   -7.2350   -5.4640 O.2   157  MET157     -0.2718
    142  CB        -9.9600   -4.1930   -4.5300 C.3   157  MET157      0.0401
    143  CG        -9.0750   -2.9690   -4.1910 C.3   157  MET157      0.0596
    144  SD        -9.3880   -1.7970   -2.8230 S.3   157  MET157     -0.1393
    145  CE        -9.2750   -2.7270   -1.2750 C.3   157  MET157      0.0692
    146  N        -11.1380   -7.3230   -3.8610 N.am  158  SER158     -0.1938
    147  CA       -11.5350   -8.6730   -4.2610 C.3   158  SER158      0.2055
    148  C        -12.6020   -8.7810   -5.4190 C.2   158  SER158      0.2643
    149  O        -13.2410   -7.7950   -5.8270 O.2   158  SER158     -0.2714
    150  CB       -11.7610   -9.6030   -3.0730 C.3   158  SER158      0.2130
    151  OG       -12.8320   -9.1260   -2.3100 O.3   158  SER158     -0.2179
    152  N        -12.6790   -9.9750   -5.9880 N.am  159  MET159     -0.1962
    153  CA       -13.0290  -10.1280   -7.3990 C.3   159  MET159      0.1736
    154  C        -14.2810  -10.9160   -7.4930 C.2   159  MET159      0.2616
    155  O        -14.5500  -11.8250   -6.6680 O.2   159  MET159     -0.2715
    156  CB       -11.8990  -10.8070   -8.2170 C.3   159  MET159      0.0427
    157  CG       -10.5780  -10.0350   -8.2710 C.3   159  MET159      0.0599
    158  SD       -10.6580   -8.3160   -8.8540 S.3   159  MET159     -0.1393
    159  CE       -10.7540   -8.7040  -10.6040 C.3   159  MET159      0.0692
    160  N        -15.0410  -10.5580   -8.5130 N.am  160  ALA160     -0.1963
    161  CA       -16.2980  -11.2210   -8.8100 C.3   160  ALA160      0.1728
    162  C        -16.0050  -12.5410   -9.5470 C.2   160  ALA160      0.2616
    163  O        -16.0790  -12.6090  -10.8030 O.2   160  ALA160     -0.2715
    164  CB       -17.2100  -10.2810   -9.6180 C.3   160  ALA160      0.0334
    165  N        -15.6520  -13.5870   -8.7880 N.am  161  ASN161     -0.1972
    166  CA       -15.1640  -14.7880   -9.5000 C.3   161  ASN161      0.1688
    167  C        -16.2840  -15.4870  -10.2750 C.2   161  ASN161      0.2292
    168  O        -16.0010  -16.0790  -11.2710 O.2   161  ASN161     -0.2864
    169  CB       -14.3720  -15.8250   -8.6530 C.3   161  ASN161      0.1181
    170  CG       -13.4040  -15.2010   -7.6490 C.2   161  ASN161      0.2629
    171  OD1      -13.7440  -15.0630   -6.4600 O.2   161  ASN161     -0.2716
    172  ND2      -12.1920  -14.8570   -8.0980 N.am  161  ASN161     -0.0877
    173  N        -18.9390  -14.0910  -11.7940 N.3   163  ALA163     -0.1231
    174  CA       -19.0390  -13.2550  -12.9770 C.3   163  ALA163      0.1694
    175  C        -17.9260  -13.5130  -14.0040 C.2   163  ALA163      0.2592
    176  O        -18.1520  -13.4190  -15.1930 O.2   163  ALA163     -0.2718
    177  CB       -19.0740  -11.7770  -12.5700 C.3   163  ALA163      0.0304
    178  N        -16.7250  -13.8020  -13.5470 N.am  164  HIS164     -0.1976
    179  CA       -15.6140  -14.1500  -14.4450 C.3   164  HIS164      0.1656
    180  C        -15.8020  -15.4850  -15.1340 C.2   164  HIS164      0.2291
    181  O        -15.6400  -15.5410  -16.3310 O.2   164  HIS164     -0.2864
    182  CB       -14.3020  -14.1880  -13.6380 C.3   164  HIS164      0.0771
    183  CG       -13.8950  -12.8480  -13.1390 C.ar  164  HIS164      0.0820
    184  ND1      -13.0940  -12.6700  -12.0340 N.ar  164  HIS164     -0.2267
    185  CD2      -14.2290  -11.6080  -13.5740 C.ar  164  HIS164      0.1154
    186  CE1      -12.9190  -11.3790  -11.8340 C.ar  164  HIS164      0.1986
    187  NE2      -13.6090  -10.7150  -12.7470 N.ar  164  HIS164     -0.2212
@<TRIPOS>BOND
     1    56    55    2
     2    55    54    1
     3   118   117    2
     4    54    53    1
     5    54    57    1
     6   117   116    1
     7    57    58    1
     8   112   111    2
     9   116   115    1
    10   111   110    1
    11   111   115   am
    12   110   109    1
    13   110   113    1
    14    58    59    2
    15    58    60   am
    16   181   180    2
    17   113   114    1
    18   176   175    2
    19   180   179    1
    20    46    45    2
    21   108   107    2
    22   107   106    1
    23   179   182    1
    24   179   178    1
    25    45    44    1
    26   175   178   am
    27   175   174    1
    28   182   183    1
    29   185   183   ar
    30   185   187   ar
    31   106   105    1
    32   183   184   ar
    33   174   177    1
    34   174   173    1
    35    44    43    1
    36    44    47    1
    37   187   186   ar
    38   105   103   am
    39    50    52   ar
    40    50    48   ar
    41   137   135   ar
    42   137   136   ar
    43    52    51   ar
    44   184   186   ar
    45   135   133   ar
    46    48    47    1
    47    48    49   ar
    48   136   134   ar
    49   103   104    2
    50   103   102    1
    51   168   167    2
    52    51    49   ar
    53    40    39    2
    54   163   162    2
    55   159   158    1
    56    98   100   ar
    57    98    96   ar
    58   133   132   ar
    59   102   101    1
    60   167   166    1
    61    61    62    1
    62    39    38    1
    63   134   132   ar
    64   100    99   ar
    65    96    95   ar
    66    65    62    1
    67    65    66    1
    68   164   161    1
    69   132   131    1
    70   162   161    1
    71   162   165   am
    72   166   165    1
    73   166   169    1
    74    26    27    1
    75   101    92   am
    76    62    63    1
    77   158   157    1
    78    37    38    1
    79    37    28   am
    80    42    41    1
    81   161   160    1
    82    38    41    1
    83    68    67    2
    84   169   170    1
    85    99    97   ar
    86    93    92    2
    87    66    67    1
    88   160   154   am
    89    95    97   ar
    90    95    94    1
    91    92    91    1
    92   157   156    1
    93   156   153    1
    94   131   128    1
    95   172   170   am
    96    34    32   ar
    97    34    36   ar
    98    27    28    1
    99    27    30    1
   100    63    64    2
   101    67    69   am
   102    32    31   ar
   103    28    29    2
   104    94    91    1
   105   170   171    2
   106   154   153    1
   107   154   155    2
   108    36    35   ar
   109   153   152    1
   110   128   127    1
   111   128   129    1
   112    91    90    1
   113    31    30    1
   114    31    33   ar
   115   119   120    1
   116    35    33   ar
   117    21    20    2
   118    18    19    1
   119    90    78   am
   120    19    20    1
   121    19    22    1
   122   120   121    1
   123   120   123    1
   124   121   122    2
   125   129   130    2
   126   152   148   am
   127   125   124   ar
   128     7     6   ar
   129   149   148    2
   130    23    22    1
   131    23    24    1
   132   141   140    2
   133   148   147    1
   134     4     3    2
   135    78    79    2
   136    78    77    1
   137     6     8   ar
   138     6     5    1
   139   124   123    1
   140   124   126   ar
   141    24    25    1
   142     2     3    1
   143     2     5    1
   144     2     1    1
   145   142   143    1
   146   142   139    1
   147   140   139    1
   148   140   146   am
   149    76    77    1
   150   147   146    1
   151   147   150    1
   152     3     9   am
   153    70    71    1
   154    77    80    1
   155   138   139    1
   156   143   144    1
   157    75    74    1
   158    74    71    1
   159    71    72    1
   160    12    11    2
   161   150   151    1
   162    72    73    2
   163    86    88   ar
   164    86    83   ar
   165    11    10    1
   166     9    10    1
   167    88    89   ar
   168   144   145    1
   169    80    81    1
   170    10    13    1
   171    83    81   ar
   172    83    85   ar
   173    81    82   ar
   174    89    87   ar
   175    85    87   ar
   176    85    84   ar
   177    82    84   ar
   178    13    14    1
   179    16    15    2
   180    14    15    1
   181    15    17   am
