@<TRIPOS>MOLECULE
tmp/5f5cA00.pdb
 163 156 0 0 0
SMALL
GASTEIGER

@<TRIPOS>ATOM
      1  N         21.7670   -1.8670   22.6940 N.3   126  TYR126     -0.1241
      2  CA        20.3480   -1.4820   22.9270 C.3   126  TYR126      0.1605
      3  C         20.0730   -1.5790   24.4280 C.2   126  TYR126      0.2264
      4  O         20.3450   -2.6050   25.0480 O.2   126  TYR126     -0.2867
      5  CB        19.3610   -2.4940   22.1990 C.3   126  TYR126      0.0534
      6  CG        17.9710   -1.9660   21.8830 C.ar  126  TYR126     -0.0201
      7  CD1       17.5920   -0.6360   22.1490 C.ar  126  TYR126     -0.0009
      8  CD2       17.0530   -2.7660   21.1700 C.ar  126  TYR126     -0.0009
      9  CE1       16.3450   -0.1280   21.7590 C.ar  126  TYR126      0.0417
     10  CE2       15.7930   -2.2720   20.7810 C.ar  126  TYR126      0.0417
     11  CZ        15.4380   -0.9600   21.0830 C.ar  126  TYR126      0.1957
     12  OH        14.2310   -0.4450   20.6100 O.3   126  TYR126     -0.2866
     13  N         17.3760   -2.1820   26.2600 N.3   128  ALA128     -0.1231
     14  CA        16.0050   -2.6890   26.0440 C.3   128  ALA128      0.1694
     15  C         15.4290   -3.2430   27.3030 C.2   128  ALA128      0.2592
     16  O         16.1810   -3.7150   28.1850 O.2   128  ALA128     -0.2718
     17  CB        16.0090   -3.8040   25.0010 C.3   128  ALA128      0.0304
     18  N         14.0920   -3.2270   27.3710 N.am  129  ASP129     -0.1974
     19  CA        13.3070   -4.0080   28.3120 C.3   129  ASP129      0.1709
     20  C         13.6010   -3.6180   29.7630 C.2   129  ASP129      0.2293
     21  O         13.8150   -4.4810   30.6410 O.2   129  ASP129     -0.2864
     22  CB        13.5090   -5.5230   28.0950 C.3   129  ASP129      0.1436
     23  CG        13.1460   -5.9580   26.6780 C.2   129  ASP129      0.3671
     24  OD1       11.9660   -5.8760   26.2930 O.co2 129  ASP129     -0.2456
     25  OD2       14.0690   -6.3730   25.9470 O.co2 129  ASP129     -0.2456
     26  N          3.1190   -4.1950   33.3160 N.3   167  THR167     -0.1218
     27  CA         3.6810   -2.8440   33.4840 C.3   167  THR167      0.1862
     28  C          4.5080   -2.4280   32.2600 C.2   167  THR167      0.2287
     29  O          4.9020   -3.2800   31.4680 O.2   167  THR167     -0.2866
     30  CB         4.5050   -2.7070   34.7600 C.3   167  THR167      0.1770
     31  OG1        5.4590   -3.7420   34.7680 O.3   167  THR167     -0.2211
     32  CG2        3.6100   -2.8520   35.9540 C.3   167  THR167      0.0375
     33  N          7.5490   -0.8740   29.7800 N.3   169  TYR169     -0.1241
     34  CA         8.9870   -1.0260   29.6130 C.3   169  TYR169      0.1605
     35  C          9.5500    0.1410   28.8150 C.2   169  TYR169      0.2264
     36  O          8.8760    0.6330   27.9160 O.2   169  TYR169     -0.2867
     37  CB         9.3190   -2.3080   28.8430 C.3   169  TYR169      0.0534
     38  CG         9.1960   -3.5640   29.6820 C.ar  169  TYR169     -0.0201
     39  CD1       10.2650   -4.0340   30.4470 C.ar  169  TYR169     -0.0009
     40  CD2        8.0050   -4.2800   29.7160 C.ar  169  TYR169     -0.0009
     41  CE1       10.1570   -5.2140   31.1980 C.ar  169  TYR169      0.0417
     42  CE2        7.8920   -5.4490   30.4880 C.ar  169  TYR169      0.0417
     43  CZ         8.9820   -5.9060   31.1970 C.ar  169  TYR169      0.1957
     44  OH         8.8430   -7.0720   31.9470 O.3   169  TYR169     -0.2866
     45  N         12.7660    1.5410   26.4350 N.3   171  TYR171     -0.1241
     46  CA        13.7880    1.1260   25.4320 C.3   171  TYR171      0.1605
     47  C         14.6370    2.3350   25.1180 C.2   171  TYR171      0.2264
     48  O         14.1040    3.3110   24.6090 O.2   171  TYR171     -0.2867
     49  CB        13.1180    0.6520   24.1500 C.3   171  TYR171      0.0534
     50  CG        12.3380   -0.5530   24.4150 C.ar  171  TYR171     -0.0201
     51  CD1       11.0780   -0.4770   25.0020 C.ar  171  TYR171     -0.0009
     52  CD2       12.9130   -1.7890   24.2480 C.ar  171  TYR171     -0.0009
     53  CE1       10.4010   -1.6340   25.3880 C.ar  171  TYR171      0.0417
     54  CE2       12.2350   -2.9420   24.6300 C.ar  171  TYR171      0.0417
     55  CZ        10.9990   -2.8460   25.1920 C.ar  171  TYR171      0.1957
     56  OH        10.3820   -4.0240   25.6000 O.3   171  TYR171     -0.2866
     57  N         14.6700   -4.2720   16.2100 N.3   179  PHE179     -0.1241
     58  CA        13.7030   -5.2350   16.7120 C.3   179  PHE179      0.1605
     59  C         13.3310   -6.2460   15.6380 C.2   179  PHE179      0.2264
     60  O         12.9240   -5.8750   14.5410 O.2   179  PHE179     -0.2867
     61  CB        12.4870   -4.6300   17.4090 C.3   179  PHE179      0.0534
     62  CG        11.7540   -3.6110   16.6660 C.ar  179  PHE179     -0.0203
     63  CD1       12.2270   -2.3040   16.6030 C.ar  179  PHE179     -0.0042
     64  CD2       10.4510   -3.8980   16.1660 C.ar  179  PHE179     -0.0042
     65  CE1       11.4640   -1.3300   15.9210 C.ar  179  PHE179     -0.0003
     66  CE2        9.6690   -2.9400   15.5690 C.ar  179  PHE179     -0.0003
     67  CZ        10.1890   -1.6500   15.4270 C.ar  179  PHE179     -0.0000
     68  N          8.2850  -10.0990   14.7800 N.3   182  HIS182     -0.1241
     69  CA         7.5220  -10.8230   15.7790 C.3   182  HIS182      0.1621
     70  C          6.0870  -10.3090   15.8410 C.2   182  HIS182      0.2264
     71  O          5.8320   -9.1680   15.4120 O.2   182  HIS182     -0.2867
     72  CB         8.1650  -10.6320   17.1570 C.3   182  HIS182      0.0745
     73  CG         8.0870   -9.2330   17.6670 C.ar  182  HIS182      0.0817
     74  ND1        8.8700   -8.2060   17.1770 N.ar  182  HIS182     -0.2268
     75  CD2        7.2600   -8.6670   18.5760 C.ar  182  HIS182      0.1154
     76  CE1        8.5690   -7.0780   17.8100 C.ar  182  HIS182      0.1986
     77  NE2        7.5740   -7.3240   18.6480 N.ar  182  HIS182     -0.2212
     78  N          3.1930   -9.9660   19.2020 N.3   184  GLU184     -0.1245
     79  CA         3.3310   -9.9180   20.6530 C.3   184  GLU184      0.1567
     80  C          3.0060  -11.2540   21.3150 C.2   184  GLU184      0.2260
     81  O          2.3600  -12.1090   20.7260 O.2   184  GLU184     -0.2867
     82  CB         2.4220   -8.8420   21.2700 C.3   184  GLU184      0.0388
     83  CG         2.5890   -7.5040   20.6500 C.3   184  GLU184      0.1160
     84  CD         3.9950   -7.0060   20.7880 C.2   184  GLU184      0.3649
     85  OE1        4.6040   -7.2170   21.8260 O.co2 184  GLU184     -0.2457
     86  OE2        4.4820   -6.3730   19.8860 O.co2 184  GLU184     -0.2457
     87  N         -0.0370   -4.0480   21.1660 N.3   190  SER190     -0.1217
     88  CA         0.9640   -3.2590   21.9010 C.3   190  SER190      0.1889
     89  C          0.7550   -1.7950   21.5470 C.2   190  SER190      0.2288
     90  O          0.1590   -1.4250   20.4980 O.2   190  SER190     -0.2866
     91  CB         2.3940   -3.7470   21.6340 C.3   190  SER190      0.2089
     92  OG         2.7810   -3.4240   20.2850 O.3   190  SER190     -0.2183
     93  N          3.2080    1.8190   21.7200 N.3   192  ASN192     -0.1240
     94  CA         4.6110    2.2820   21.7610 C.3   192  ASN192      0.1653
     95  C          4.5330    3.7820   21.6200 C.2   192  ASN192      0.2266
     96  O          3.9340    4.2920   20.6560 O.2   192  ASN192     -0.2867
     97  CB         5.4910    1.6540   20.6190 C.3   192  ASN192      0.1155
     98  CG         6.9850    2.1230   20.6290 C.2   192  ASN192      0.2627
     99  OD1        7.3040    3.3310   20.4440 O.2   192  ASN192     -0.2716
    100  ND2        7.9370    1.1270   20.7450 N.am  192  ASN192     -0.0877
    101  N         12.1330    6.0310   14.7150 N.3   200  LYS200     -0.1245
    102  CA        12.0810    4.5920   14.6600 C.3   200  LYS200      0.1561
    103  C         11.2770    4.1790   13.4350 C.2   200  LYS200      0.2260
    104  O         10.1260    4.6020   13.2780 O.2   200  LYS200     -0.2867
    105  CB        11.4390    4.0930   15.9420 C.3   200  LYS200      0.0271
    106  CG        11.2920    2.5960   16.0330 C.3   200  LYS200      0.0035
    107  CD        10.5630    2.0290   17.2190 C.3   200  LYS200      0.0206
    108  CE        10.8520    2.6490   18.6050 C.3   200  LYS200      0.1093
    109  NZ        12.0910    2.1900   19.2440 N.3   200  LYS200     -0.1314
    110  N          9.4620    1.3140   11.1710 N.3   202  TRP202     -0.1241
    111  CA         8.7160    0.1170   11.3680 C.3   202  TRP202      0.1605
    112  C          8.3310   -0.5410   10.0220 C.2   202  TRP202      0.2264
    113  O          8.0330    0.1590    9.0800 O.2   202  TRP202     -0.2867
    114  CB         7.3650    0.4550   12.0180 C.3   202  TRP202      0.0550
    115  CG         7.4190    1.0230   13.4010 C.ar  202  TRP202      0.0003
    116  CD1        7.8690    2.2550   13.7640 C.ar  202  TRP202      0.0946
    117  CD2        6.9580    0.4010   14.6050 C.ar  202  TRP202      0.0152
    118  NE1        7.7580    2.4260   15.1030 N.ar  202  TRP202     -0.2442
    119  CE2        7.1980    1.3100   15.6570 C.ar  202  TRP202      0.0810
    120  CE3        6.3280   -0.8200   14.8940 C.ar  202  TRP202      0.0012
    121  CZ2        6.8470    1.0280   17.0180 C.ar  202  TRP202      0.0191
    122  CZ3        5.9990   -1.1220   16.2070 C.ar  202  TRP202      0.0001
    123  CH2        6.2690   -0.1740   17.2850 C.ar  202  TRP202      0.0015
    124  N         12.3710  -13.9190   18.5550 N.3   235  LYS235     -0.1245
    125  CA        12.6450  -12.5500   18.2390 C.3   235  LYS235      0.1561
    126  C         14.0690  -12.3290   17.8680 C.2   235  LYS235      0.2260
    127  O         14.7250  -11.4860   18.4540 O.2   235  LYS235     -0.2867
    128  CB        12.2130  -11.6280   19.4110 C.3   235  LYS235      0.0271
    129  CG        10.7700  -11.8970   19.7730 C.3   235  LYS235      0.0035
    130  CD        10.0820  -10.7400   20.4940 C.3   235  LYS235      0.0206
    131  CE        10.4850  -10.7050   21.9460 C.3   235  LYS235      0.1093
    132  NZ        10.1900   -9.3230   22.4860 N.3   235  LYS235     -0.1314
    133  N          5.6480   -7.3770   13.1210 N.3   270  HIS270     -0.1241
    134  CA         6.3760   -6.1880   12.8710 C.3   270  HIS270      0.1621
    135  C          7.8480   -6.3320   13.2410 C.2   270  HIS270      0.2264
    136  O          8.2440   -7.2360   13.9800 O.2   270  HIS270     -0.2867
    137  CB         5.7560   -5.0530   13.6320 C.3   270  HIS270      0.0745
    138  CG         5.5910   -5.3310   15.0860 C.ar  270  HIS270      0.0817
    139  ND1        4.5930   -6.1480   15.5720 N.ar  270  HIS270     -0.2268
    140  CD2        6.2630   -4.8590   16.1660 C.ar  270  HIS270      0.1154
    141  CE1        4.6900   -6.1970   16.8940 C.ar  270  HIS270      0.1986
    142  NE2        5.6760   -5.3950   17.2770 N.ar  270  HIS270     -0.2212
    143  N          6.8110    1.1340   25.9490 N.3   282  ALA282     -0.1231
    144  CA         5.8550    0.2400   25.3570 C.3   282  ALA282      0.1694
    145  C          5.1830   -0.6900   26.3960 C.2   282  ALA282      0.2592
    146  O          5.7730   -1.0440   27.4080 O.2   282  ALA282     -0.2718
    147  CB         6.5060   -0.6210   24.2960 C.3   282  ALA282      0.0304
    148  N          3.9750   -1.1210   26.0720 N.am  283  ILE283     -0.1966
    149  CA         3.2540   -2.1070   26.8830 C.3   283  ILE283      0.1727
    150  C          2.2720   -2.9020   26.0040 C.2   283  ILE283      0.2616
    151  O          1.8160   -2.3670   25.0140 O.2   283  ILE283     -0.2715
    152  CB         2.5190   -1.4360   28.0670 C.3   283  ILE283      0.0290
    153  CG1        2.1560   -2.4620   29.1150 C.3   283  ILE283      0.0022
    154  CG2        1.3040   -0.6580   27.5750 C.3   283  ILE283      0.0023
    155  CD1        1.6230   -1.8800   30.4040 C.3   283  ILE283      0.0001
    156  N          1.9080   -4.1170   26.4190 N.am  284  ASN284     -0.1972
    157  CA         0.8260   -4.8570   25.7270 C.3   284  ASN284      0.1688
    158  C         -0.4810   -4.4730   26.3310 C.2   284  ASN284      0.2292
    159  O         -0.5130   -4.0600   27.4830 O.2   284  ASN284     -0.2864
    160  CB         1.0150   -6.3770   25.8320 C.3   284  ASN284      0.1181
    161  CG         2.2190   -6.8690   25.0980 C.2   284  ASN284      0.2629
    162  OD1        3.0120   -7.6400   25.6520 O.2   284  ASN284     -0.2716
    163  ND2        2.3140   -6.5830   23.8830 N.am  284  ASN284     -0.0877
@<TRIPOS>BOND
     1   113   112    2
     2   112   111    1
     3   110   111    1
     4   111   114    1
     5   114   115    1
     6   134   133    1
     7   134   135    1
     8   134   137    1
     9   135   136    2
    10   104   103    2
    11   115   116   ar
    12   115   117   ar
    13   103   102    1
    14   137   138    1
    15   116   118   ar
    16    60    59    2
    17   117   120   ar
    18   117   119   ar
    19   102   101    1
    20   102   105    1
    21    68    69    1
    22   120   122   ar
    23   138   139   ar
    24   138   140   ar
    25   118   119   ar
    26    71    70    2
    27    67    66   ar
    28    67    65   ar
    29    66    64   ar
    30   139   141   ar
    31    59    58    1
    32   119   121   ar
    33    69    70    1
    34    69    72    1
    35    65    63   ar
    36   105   106    1
    37   106   107    1
    38    64    62   ar
    39   140   142   ar
    40   122   123   ar
    41    57    58    1
    42    63    62   ar
    43    62    61    1
    44    58    61    1
    45   141   142   ar
    46   121   123   ar
    47    72    73    1
    48    74    73   ar
    49    74    76   ar
    50   107   108    1
    51    73    75   ar
    52    76    77   ar
    53   126   125    1
    54   126   127    2
    55   125   124    1
    56   125   128    1
    57    75    77   ar
    58   108   109    1
    59    78    79    1
    60   128   129    1
    61   129   130    1
    62    86    84   ar
    63    92    91    1
    64    99    98    2
    65   130   131    1
    66    90    89    2
    67    12    11    1
    68    97    98    1
    69    97    94    1
    70    98   100   am
    71    83    84    1
    72    83    82    1
    73    79    82    1
    74    79    80    1
    75    96    95    2
    76    81    80    2
    77    10    11   ar
    78    10     8   ar
    79    84    85   ar
    80    11     9   ar
    81    87    88    1
    82     8     6   ar
    83    89    88    1
    84    95    94    1
    85    91    88    1
    86    93    94    1
    87     9     7   ar
    88     6     7   ar
    89     6     5    1
    90   131   132    1
    91     5     2    1
    92     1     2    1
    93     2     3    1
    94   163   161   am
    95    49    50    1
    96    49    46    1
    97    52    50   ar
    98    52    54   ar
    99   147   144    1
   100    50    51   ar
   101     3     4    2
   102    48    47    2
   103    54    55   ar
   104    17    14    1
   105    51    53   ar
   106   151   150    2
   107   161   162    2
   108   161   160    1
   109    47    46    1
   110    55    53   ar
   111    55    56    1
   112   144   143    1
   113   144   145    1
   114    46    45    1
   115   157   160    1
   116   157   158    1
   117   157   156    1
   118    25    23   ar
   119   150   156   am
   120   150   149    1
   121    14    13    1
   122    14    15    1
   123   148   145   am
   124   148   149    1
   125    24    23   ar
   126   158   159    2
   127   145   146    2
   128    23    22    1
   129   149   152    1
   130    15    18   am
   131    15    16    2
   132    18    19    1
   133   154   152    1
   134    36    35    2
   135   152   153    1
   136    22    19    1
   137    19    20    1
   138    35    34    1
   139    37    34    1
   140    37    38    1
   141   153   155    1
   142    34    33    1
   143    38    40   ar
   144    38    39   ar
   145    40    42   ar
   146    20    21    2
   147    39    41   ar
   148    42    43   ar
   149    43    41   ar
   150    43    44    1
   151    29    28    2
   152    28    27    1
   153    26    27    1
   154    27    30    1
   155    30    31    1
   156    30    32    1
