@<TRIPOS>MOLECULE
tmp/5f5gA00.pdb
 151 147 0 0 0
SMALL
GASTEIGER

@<TRIPOS>ATOM
      1  N         -4.8150   -6.4360    4.6050 N.3    29  MET29      -0.1245
      2  CA        -4.3220   -6.5680    3.1990 C.3    29  MET29       0.1570
      3  C         -3.0830   -5.7250    2.8940 C.2    29  MET29       0.2261
      4  O         -2.1420   -6.2160    2.2900 O.2    29  MET29      -0.2867
      5  CB        -5.4040   -6.2420    2.1900 C.3    29  MET29       0.0387
      6  CG        -6.2670   -7.4190    1.7720 C.3    29  MET29       0.0595
      7  SD        -7.3820   -6.9590    0.4200 S.3    29  MET29      -0.1393
      8  CE        -8.5720   -5.9780    1.3350 C.3    29  MET29       0.0692
      9  N        -11.6260  -13.4980    3.1270 N.3    55  PHE55      -0.1227
     10  CA       -12.4990  -12.3570    2.9820 C.3    55  PHE55       0.1736
     11  C        -13.9500  -12.6170    3.3750 C.2    55  PHE55       0.2596
     12  O        -14.7820  -11.7140    3.2560 O.2    55  PHE55      -0.2718
     13  CB       -12.3850  -11.7940    1.5580 C.3    55  PHE55       0.0547
     14  CG       -10.9830  -11.4160    1.1820 C.ar   55  PHE55      -0.0202
     15  CD1      -10.2520  -12.2070    0.3410 C.ar   55  PHE55      -0.0042
     16  CD2      -10.3750  -10.2770    1.7200 C.ar   55  PHE55      -0.0042
     17  CE1       -8.9540  -11.8660    0.0250 C.ar   55  PHE55      -0.0003
     18  CE2       -9.0770   -9.9360    1.4040 C.ar   55  PHE55      -0.0003
     19  CZ        -8.3670  -10.7300    0.5500 C.ar   55  PHE55      -0.0000
     20  N        -14.2540  -13.8340    3.8370 N.am   56  SER56      -0.1952
     21  CA       -15.5690  -14.1490    4.4010 C.3    56  SER56       0.1924
     22  C        -15.5190  -15.4430    5.1870 C.2    56  SER56       0.2314
     23  O        -14.6990  -16.3130    4.9210 O.2    56  SER56      -0.2863
     24  CB       -16.6150  -14.2630    3.3010 C.3    56  SER56       0.2116
     25  OG       -16.4730  -15.4960    2.6260 O.3    56  SER56      -0.2180
     26  N        -15.5340  -18.4100    2.9670 N.3    59  HIS59      -0.1241
     27  CA       -14.2210  -18.5090    2.3190 C.3    59  HIS59       0.1621
     28  C        -13.2800  -19.2930    3.2150 C.2    59  HIS59       0.2264
     29  O        -12.6860  -20.3000    2.7720 O.2    59  HIS59      -0.2867
     30  CB       -13.6750  -17.0920    2.0140 C.3    59  HIS59       0.0745
     31  CG       -12.4080  -17.0460    1.1930 C.ar   59  HIS59       0.0817
     32  ND1      -11.6870  -15.8750    1.0230 N.ar   59  HIS59      -0.2268
     33  CD2      -11.7420  -18.0020    0.4890 C.ar   59  HIS59       0.1154
     34  CE1      -10.6300  -16.1170    0.2650 C.ar   59  HIS59       0.1986
     35  NE2      -10.6400  -17.3980   -0.0740 N.ar   59  HIS59      -0.2212
     36  N        -12.1970  -23.3300    2.7210 N.3    63  ASN63      -0.1240
     37  CA       -10.7490  -23.5530    2.5850 C.3    63  ASN63       0.1653
     38  C        -10.1180  -24.4220    3.6570 C.2    63  ASN63       0.2266
     39  O         -9.3450  -25.3270    3.3190 O.2    63  ASN63      -0.2867
     40  CB        -9.9920  -22.2430    2.4790 C.3    63  ASN63       0.1155
     41  CG       -10.1620  -21.5800    1.1120 C.2    63  ASN63       0.2627
     42  OD1      -10.8210  -22.0980    0.2220 O.2    63  ASN63      -0.2716
     43  ND2       -9.5640  -20.4170    0.9550 N.am   63  ASN63      -0.0877
     44  N         -0.9530  -15.4000   -9.8720 N.3    98  GLN98      -0.1245
     45  CA        -2.1580  -14.6270   -9.6390 C.3    98  GLN98       0.1566
     46  C         -1.8720  -13.1430   -9.7110 C.2    98  GLN98       0.2260
     47  O         -2.7260  -12.3690  -10.1830 O.2    98  GLN98      -0.2867
     48  CB        -2.7630  -14.9250   -8.2830 C.3    98  GLN98       0.0367
     49  CG        -4.0220  -14.1470   -7.9830 C.3    98  GLN98       0.0905
     50  CD        -5.0670  -14.3700   -9.0330 C.2    98  GLN98       0.2608
     51  OE1       -5.2980  -15.5200   -9.4520 O.2    98  GLN98      -0.2717
     52  NE2       -5.7060  -13.2760   -9.4750 N.am   98  GLN98      -0.0878
     53  N         -3.9660  -10.6920  -12.3910 N.3   102  SER102     -0.1217
     54  CA        -4.9380   -9.7130  -11.9080 C.3   102  SER102      0.1889
     55  C         -4.3870   -8.7340  -10.8750 C.2   102  SER102      0.2288
     56  O         -5.1500   -7.9930  -10.2750 O.2   102  SER102     -0.2866
     57  CB        -6.2010  -10.4110  -11.3590 C.3   102  SER102      0.2089
     58  OG        -6.9030  -11.1110  -12.3800 O.3   102  SER102     -0.2183
     59  N         -3.9750   -7.7560   -5.2330 N.3   105  TRP105     -0.1227
     60  CA        -5.0380   -7.7790   -4.2270 C.3   105  TRP105      0.1737
     61  C         -5.8630   -9.0470   -4.3120 C.2   105  TRP105      0.2595
     62  O         -6.9070   -9.1100   -4.9860 O.2   105  TRP105     -0.2718
     63  CB        -5.9250   -6.5180   -4.2700 C.3   105  TRP105      0.0564
     64  CG        -5.1150   -5.2920   -4.2390 C.ar  105  TRP105      0.0003
     65  CD1       -5.0090   -4.3760   -5.2190 C.ar  105  TRP105      0.0946
     66  CD2       -4.1940   -4.8900   -3.1980 C.ar  105  TRP105      0.0152
     67  NE1       -4.1120   -3.3940   -4.8570 N.ar  105  TRP105     -0.2442
     68  CE2       -3.5890   -3.6830   -3.6270 C.ar  105  TRP105      0.0810
     69  CE3       -3.8470   -5.4180   -1.9380 C.ar  105  TRP105      0.0012
     70  CZ2       -2.6410   -2.9790   -2.8410 C.ar  105  TRP105      0.0191
     71  CZ3       -2.9060   -4.7180   -1.1410 C.ar  105  TRP105      0.0001
     72  CH2       -2.3100   -3.5070   -1.6040 C.ar  105  TRP105      0.0015
     73  N         -5.3670  -10.0580   -3.6130 N.am  106  PHE106     -0.1962
     74  CA        -5.9880  -11.3560   -3.4880 C.3   106  PHE106      0.1771
     75  C         -5.5330  -12.0240   -2.1720 C.2   106  PHE106      0.2620
     76  O         -4.4850  -11.6690   -1.5940 O.2   106  PHE106     -0.2715
     77  CB        -5.6140  -12.2450   -4.6910 C.3   106  PHE106      0.0574
     78  CG        -4.1380  -12.4980   -4.8250 C.ar  106  PHE106     -0.0200
     79  CD1       -3.5640  -13.6230   -4.2510 C.ar  106  PHE106     -0.0042
     80  CD2       -3.3390  -11.6170   -5.5390 C.ar  106  PHE106     -0.0042
     81  CE1       -2.2020  -13.8210   -4.3550 C.ar  106  PHE106     -0.0003
     82  CE2       -1.9900  -11.8300   -5.6700 C.ar  106  PHE106     -0.0003
     83  CZ        -1.4190  -12.9310   -5.0700 C.ar  106  PHE106     -0.0000
     84  N         -6.2890  -13.0210   -1.7420 N.am  107  GLY107     -0.1940
     85  CA        -5.9600  -13.7720   -0.5600 C.3   107  GLY107      0.2014
     86  C         -6.7760  -15.0320   -0.4970 C.2   107  GLY107      0.2639
     87  O         -7.7760  -15.1670   -1.2080 O.2   107  GLY107     -0.2714
     88  N         -6.3400  -15.9520    0.3650 N.am  108  GLY108     -0.1954
     89  CA        -7.0260  -17.2190    0.5440 C.3   108  GLY108      0.1869
     90  C         -6.0730  -18.3700    0.4160 C.2   108  GLY108      0.2309
     91  O         -5.0300  -18.2590   -0.2230 O.2   108  GLY108     -0.2863
     92  N         -6.8940  -21.3280   -1.0840 N.3   110  SER110     -0.1202
     93  CA        -7.3870  -21.9150   -2.2800 C.3   110  SER110      0.2020
     94  C         -6.3230  -22.3980   -3.2640 C.2   110  SER110      0.2619
     95  O         -6.4940  -23.4660   -3.8160 O.2   110  SER110     -0.2717
     96  CB        -8.3890  -21.0880   -3.0520 C.3   110  SER110      0.2103
     97  OG        -7.9310  -19.8920   -3.5910 O.3   110  SER110     -0.2182
     98  N         -5.2930  -21.6320   -3.4100 N.am  111  GLY111     -0.1956
     99  CA        -4.1540  -21.9420   -4.2000 C.3   111  GLY111      0.1869
    100  C         -3.3560  -23.0950   -3.5720 C.2   111  GLY111      0.2309
    101  O         -3.0550  -24.0020   -4.3030 O.2   111  GLY111     -0.2863
    102  N        -18.9640  -14.0370   -8.0490 N.3   156  MET156     -0.1230
    103  CA       -17.7350  -14.3690   -7.3520 C.3   156  MET156      0.1702
    104  C        -16.5080  -13.8700   -8.0810 C.2   156  MET156      0.2593
    105  O        -16.4910  -13.7770   -9.3150 O.2   156  MET156     -0.2718
    106  CB       -17.6500  -15.8710   -7.1210 C.3   156  MET156      0.0401
    107  CG       -17.0840  -16.2500   -5.7700 C.3   156  MET156      0.0596
    108  SD       -18.0030  -17.6620   -5.0990 S.3   156  MET156     -0.1393
    109  CE       -19.6120  -16.9400   -4.7560 C.3   156  MET156      0.0692
    110  N        -15.5000  -13.5320   -7.2860 N.am  157  SER157     -0.1938
    111  CA       -14.3160  -12.8510   -7.7570 C.3   157  SER157      0.2055
    112  C        -13.1350  -13.7390   -7.4390 C.2   157  SER157      0.2643
    113  O        -12.3330  -13.4910   -6.5520 O.2   157  SER157     -0.2714
    114  CB       -14.2090  -11.5010   -7.0850 C.3   157  SER157      0.2130
    115  OG       -13.2380  -10.7570   -7.7580 O.3   157  SER157     -0.2179
    116  N        -13.0730  -14.8330   -8.1590 N.am  158  MET158     -0.1962
    117  CA       -12.1240  -15.8620   -7.8100 C.3   158  MET158      0.1736
    118  C        -10.7370  -15.5640   -8.3430 C.2   158  MET158      0.2616
    119  O        -10.5830  -15.0670   -9.4560 O.2   158  MET158     -0.2715
    120  CB       -12.6040  -17.2150   -8.3020 C.3   158  MET158      0.0427
    121  CG       -13.7020  -17.7890   -7.4250 C.3   158  MET158      0.0599
    122  SD       -13.9420  -19.5270   -7.7960 S.3   158  MET158     -0.1393
    123  CE       -15.1100  -19.8730   -6.4700 C.3   158  MET158      0.0692
    124  N         -9.7350  -15.8400   -7.5210 N.am  159  ALA159     -0.1963
    125  CA        -8.3480  -15.8080   -7.9380 C.3   159  ALA159      0.1728
    126  C         -8.0290  -17.0030   -8.8890 C.2   159  ALA159      0.2616
    127  O         -7.5950  -18.1030   -8.4620 O.2   159  ALA159     -0.2715
    128  CB        -7.4470  -15.7690   -6.7320 C.3   159  ALA159      0.0334
    129  N         -8.2620  -16.7770  -10.1890 N.am  160  ASN160     -0.1972
    130  CA        -8.1430  -17.8470  -11.1880 C.3   160  ASN160      0.1688
    131  C         -6.7040  -18.3020  -11.4870 C.2   160  ASN160      0.2292
    132  O         -6.4510  -19.4810  -11.6840 O.2   160  ASN160     -0.2864
    133  CB        -8.9300  -17.5070  -12.4620 C.3   160  ASN160      0.1181
    134  CG       -10.4300  -17.3710  -12.2080 C.2   160  ASN160      0.2629
    135  OD1      -11.0590  -18.2970  -11.7280 O.2   160  ASN160     -0.2716
    136  ND2      -11.0010  -16.2120  -12.5210 N.am  160  ASN160     -0.0877
    137  N         -4.3150  -18.2660   -9.3110 N.3   162  ALA162     -0.1231
    138  CA        -3.9370  -19.0210   -8.1280 C.3   162  ALA162      0.1694
    139  C         -4.4280  -20.4570   -8.2510 C.2   162  ALA162      0.2592
    140  O         -3.6690  -21.3760   -8.0080 O.2   162  ALA162     -0.2718
    141  CB        -4.4930  -18.3650   -6.8650 C.3   162  ALA162      0.0304
    142  N         -5.6890  -20.6400   -8.6320 N.am  163  HIS163     -0.1976
    143  CA        -6.2710  -21.9850   -8.8110 C.3   163  HIS163      0.1656
    144  C         -5.4780  -22.8900   -9.7810 C.2   163  HIS163      0.2291
    145  O         -5.0570  -24.0000   -9.4440 O.2   163  HIS163     -0.2864
    146  CB        -7.7620  -21.9030   -9.2080 C.3   163  HIS163      0.0771
    147  CG        -8.6750  -21.3770   -8.1250 C.ar  163  HIS163      0.0820
    148  ND1      -10.0280  -21.1750   -8.3310 N.ar  163  HIS163     -0.2267
    149  CD2       -8.4300  -20.9890   -6.8450 C.ar  163  HIS163      0.1154
    150  CE1      -10.5760  -20.7050   -7.2220 C.ar  163  HIS163      0.1986
    151  NE2       -9.6310  -20.5940   -6.3000 N.ar  163  HIS163     -0.2212
@<TRIPOS>BOND
     1   136   134   am
     2   133   134    1
     3   133   130    1
     4    53    54    1
     5    58    57    1
     6   134   135    2
     7    54    57    1
     8    54    55    1
     9   132   131    2
    10   131   130    1
    11   130   129    1
    12    55    56    2
    13   129   126   am
    14    47    46    2
    15    44    45    1
    16   144   145    2
    17   144   143    1
    18    46    45    1
    19    45    48    1
    20    52    50   am
    21   119   118    2
    22    51    50    2
    23   105   104    2
    24   137   138    1
    25   146   143    1
    26   146   147    1
    27    50    49    1
    28   126   127    2
    29   126   125    1
    30   143   142    1
    31   142   139   am
    32   118   117    1
    33   118   124   am
    34   148   147   ar
    35   148   150   ar
    36   120   117    1
    37   120   121    1
    38    48    49    1
    39   139   138    1
    40   139   140    2
    41   116   117    1
    42   116   112   am
    43   138   141    1
    44   147   149   ar
    45   104   103    1
    46   104   110   am
    47   102   103    1
    48   125   124    1
    49   125   128    1
    50   122   121    1
    51   122   123    1
    52   115   114    1
    53   111   112    1
    54   111   110    1
    55   111   114    1
    56   112   113    2
    57   103   106    1
    58   150   151   ar
    59   106   107    1
    60   149   151   ar
    61   107   108    1
    62    82    80   ar
    63    82    83   ar
    64    80    78   ar
    65    59    60    1
    66    65    67   ar
    67    65    64   ar
    68   108   109    1
    69    83    81   ar
    70    62    61    2
    71    67    68   ar
    72    78    77    1
    73    78    79   ar
    74    77    74    1
    75    81    79   ar
    76    61    60    1
    77    61    73   am
    78   101   100    2
    79    63    64    1
    80    63    60    1
    81    64    66   ar
    82    99   100    1
    83    99    98    1
    84    95    94    2
    85    68    66   ar
    86    68    70   ar
    87    73    74    1
    88    97    96    1
    89    74    75    1
    90    98    94   am
    91    94    93    1
    92    66    69   ar
    93    96    93    1
    94    70    72   ar
    95    93    92    1
    96    75    84   am
    97    75    76    2
    98    69    71   ar
    99    84    85    1
   100    72    71   ar
   101    87    86    2
   102    85    86    1
   103    86    88   am
   104    91    90    2
   105    35    34   ar
   106    35    33   ar
   107    17    15   ar
   108    17    19   ar
   109    42    41    2
   110    34    32   ar
   111    15    14   ar
   112    88    89    1
   113    90    89    1
   114     7     8    1
   115     7     6    1
   116    33    31   ar
   117    19    18   ar
   118    43    41   am
   119    32    31   ar
   120    41    40    1
   121    14    13    1
   122    14    16   ar
   123    31    30    1
   124    18    16   ar
   125    13    10    1
   126     6     5    1
   127    30    27    1
   128     5     2    1
   129     4     3    2
   130    27    26    1
   131    27    28    1
   132    40    37    1
   133    37    36    1
   134    37    38    1
   135    25    24    1
   136    29    28    2
   137     3     2    1
   138    10     9    1
   139    10    11    1
   140     2     1    1
   141    12    11    2
   142    24    21    1
   143    39    38    2
   144    11    20   am
   145    20    21    1
   146    21    22    1
   147    23    22    2
