@<TRIPOS>MOLECULE
tmp/5f5iA00.pdb
 169 162 0 0 0
SMALL
GASTEIGER

@<TRIPOS>ATOM
      1  N        -13.9400  -20.3110  -24.6060 N.3   129  TYR129     -0.1241
      2  CA       -15.2900  -20.1150  -25.1170 C.3   129  TYR129      0.1605
      3  C        -15.4960  -18.6440  -25.4120 C.2   129  TYR129      0.2264
      4  O        -15.3050  -17.8030  -24.5300 O.2   129  TYR129     -0.2867
      5  CB       -16.3210  -20.5870  -24.0730 C.3   129  TYR129      0.0534
      6  CG       -17.7230  -20.9300  -24.5790 C.ar  129  TYR129     -0.0201
      7  CD1      -17.9970  -21.1120  -25.9340 C.ar  129  TYR129     -0.0009
      8  CD2      -18.7620  -21.1500  -23.6790 C.ar  129  TYR129     -0.0009
      9  CE1      -19.2620  -21.4550  -26.3780 C.ar  129  TYR129      0.0417
     10  CE2      -20.0370  -21.4970  -24.1180 C.ar  129  TYR129      0.0417
     11  CZ       -20.2810  -21.6470  -25.4670 C.ar  129  TYR129      0.1957
     12  OH       -21.5250  -21.9990  -25.9340 O.3   129  TYR129     -0.2866
     13  N        -28.2160   -9.8620  -23.5180 N.3   167  GLY167     -0.1210
     14  CA       -28.6010  -11.2730  -23.6020 C.3   167  GLY167      0.1956
     15  C        -30.0790  -11.5760  -23.3250 C.2   167  GLY167      0.2611
     16  O        -30.6760  -12.4070  -23.9960 O.2   167  GLY167     -0.2717
     17  N        -30.6740  -10.9020  -22.3460 N.am  168  VAL168     -0.1979
     18  CA       -32.0420  -11.1750  -21.9120 C.3   168  VAL168      0.1595
     19  C        -33.0930  -10.6980  -22.9370 C.2   168  VAL168      0.2287
     20  O        -33.7700  -11.5210  -23.5460 O.2   168  VAL168     -0.2864
     21  CB       -32.2750  -10.5650  -20.5150 C.3   168  VAL168      0.0276
     22  CG1      -33.7460  -10.5790  -20.1210 C.3   168  VAL168      0.0022
     23  CG2      -31.4130  -11.2920  -19.4890 C.3   168  VAL168      0.0022
     24  N        -27.3370  -12.4920  -28.0470 N.3   172  TYR172     -0.1241
     25  CA       -25.9580  -12.8190  -27.6860 C.3   172  TYR172      0.1605
     26  C        -25.4640  -13.8940  -28.6550 C.2   172  TYR172      0.2264
     27  O        -26.2350  -14.7500  -29.0890 O.2   172  TYR172     -0.2867
     28  CB       -25.8820  -13.4130  -26.2760 C.3   172  TYR172      0.0534
     29  CG       -25.5170  -12.5780  -25.0580 C.ar  172  TYR172     -0.0201
     30  CD1      -24.9650  -11.3020  -25.1320 C.ar  172  TYR172     -0.0009
     31  CD2      -25.6130  -13.1640  -23.8040 C.ar  172  TYR172     -0.0009
     32  CE1      -24.6170  -10.6130  -23.9750 C.ar  172  TYR172      0.0417
     33  CE2      -25.2630  -12.5000  -22.6490 C.ar  172  TYR172      0.0417
     34  CZ       -24.7620  -11.2210  -22.7380 C.ar  172  TYR172      0.1957
     35  OH       -24.4090  -10.5610  -21.5860 O.3   172  TYR172     -0.2866
     36  N        -22.4270  -16.9500  -29.4270 N.3   174  TYR174     -0.1241
     37  CA       -21.5920  -17.9260  -28.7200 C.3   174  TYR174      0.1605
     38  C        -20.6970  -18.6730  -29.7130 C.2   174  TYR174      0.2264
     39  O        -21.1930  -19.4650  -30.5240 O.2   174  TYR174     -0.2867
     40  CB       -22.4760  -18.9270  -27.9650 C.3   174  TYR174      0.0534
     41  CG       -23.2170  -18.3290  -26.7970 C.ar  174  TYR174     -0.0201
     42  CD1      -24.4330  -17.6640  -26.9760 C.ar  174  TYR174     -0.0009
     43  CD2      -22.7030  -18.4250  -25.5090 C.ar  174  TYR174     -0.0009
     44  CE1      -25.1120  -17.1090  -25.8950 C.ar  174  TYR174      0.0417
     45  CE2      -23.3680  -17.8800  -24.4230 C.ar  174  TYR174      0.0417
     46  CZ       -24.5710  -17.2240  -24.6180 C.ar  174  TYR174      0.1957
     47  OH       -25.1960  -16.6790  -23.5250 O.3   174  TYR174     -0.2866
     48  N        -21.8440  -25.4420  -21.3000 N.3   182  PHE182     -0.1241
     49  CA       -22.7640  -24.5830  -20.5660 C.3   182  PHE182      0.1605
     50  C        -23.3340  -25.4030  -19.4180 C.2   182  PHE182      0.2264
     51  O        -23.8360  -26.5000  -19.6110 O.2   182  PHE182     -0.2867
     52  CB       -23.8300  -23.9110  -21.4610 C.3   182  PHE182      0.0534
     53  CG       -24.6630  -24.8550  -22.2920 C.ar  182  PHE182     -0.0203
     54  CD1      -24.1990  -25.3250  -23.5170 C.ar  182  PHE182     -0.0042
     55  CD2      -25.9500  -25.2160  -21.8820 C.ar  182  PHE182     -0.0042
     56  CE1      -24.9700  -26.1770  -24.2940 C.ar  182  PHE182     -0.0003
     57  CE2      -26.7320  -26.0610  -22.6560 C.ar  182  PHE182     -0.0003
     58  CZ       -26.2410  -26.5480  -23.8630 C.ar  182  PHE182     -0.0000
     59  N        -28.6630  -24.9740  -15.7220 N.3   185  HIS185     -0.1241
     60  CA       -29.4300  -23.8080  -15.3110 C.3   185  HIS185      0.1621
     61  C        -30.8210  -23.7390  -15.9280 C.2   185  HIS185      0.2264
     62  O        -31.1050  -24.3630  -16.9530 O.2   185  HIS185     -0.2867
     63  CB       -28.6890  -22.5260  -15.6710 C.3   185  HIS185      0.0745
     64  CG       -28.5090  -22.3240  -17.1420 C.ar  185  HIS185      0.0817
     65  ND1      -27.6570  -23.0980  -17.9030 N.ar  185  HIS185     -0.2268
     66  CD2      -29.0740  -21.4370  -17.9950 C.ar  185  HIS185      0.1154
     67  CE1      -27.7000  -22.6930  -19.1580 C.ar  185  HIS185      0.1986
     68  NE2      -28.5520  -21.6870  -19.2400 N.ar  185  HIS185     -0.2212
     69  N        -33.2610  -20.3580  -17.1900 N.3   187  GLU187     -0.1231
     70  CA       -33.0820  -18.9730  -17.6290 C.3   187  GLU187      0.1699
     71  C        -33.3300  -17.9880  -16.5000 C.2   187  GLU187      0.2592
     72  O        -33.9780  -18.3260  -15.5090 O.2   187  GLU187     -0.2718
     73  CB       -34.0440  -18.6410  -18.7750 C.3   187  GLU187      0.0402
     74  CG       -33.8740  -19.4890  -20.0280 C.3   187  GLU187      0.1161
     75  CD       -32.4420  -19.5700  -20.5030 C.2   187  GLU187      0.3649
     76  OE1      -31.9940  -20.6900  -20.8320 O.co2 187  GLU187     -0.2457
     77  OE2      -31.7550  -18.5230  -20.5170 O.co2 187  GLU187     -0.2457
     78  N        -32.8110  -16.7700  -16.6610 N.am  188  ASP188     -0.1974
     79  CA       -33.1160  -15.6800  -15.7430 C.3   188  ASP188      0.1709
     80  C        -34.6310  -15.4980  -15.6630 C.2   188  ASP188      0.2293
     81  O        -35.3270  -15.5490  -16.6840 O.2   188  ASP188     -0.2864
     82  CB       -32.4670  -14.3800  -16.2040 C.3   188  ASP188      0.1436
     83  CG       -30.9490  -14.3940  -16.0570 C.2   188  ASP188      0.3671
     84  OD1      -30.4650  -14.7840  -14.9690 O.co2 188  ASP188     -0.2456
     85  OD2      -30.2460  -14.0020  -17.0310 O.co2 188  ASP188     -0.2456
     86  N        -36.1180  -19.5560  -23.6800 N.3   193  SER193     -0.1217
     87  CA       -35.0300  -19.1020  -24.5210 C.3   193  SER193      0.1889
     88  C        -35.1280  -19.7330  -25.8910 C.2   193  SER193      0.2288
     89  O        -35.8120  -20.7260  -26.0870 O.2   193  SER193     -0.2866
     90  CB       -33.6730  -19.3990  -23.8870 C.3   193  SER193      0.2089
     91  OG       -33.4030  -20.7870  -23.8480 O.3   193  SER193     -0.2183
     92  N        -32.3390  -20.7000  -29.0630 N.3   195  ASN195     -0.1240
     93  CA       -30.9300  -20.8220  -29.4810 C.3   195  ASN195      0.1653
     94  C        -30.9080  -21.3080  -30.9280 C.2   195  ASN195      0.2266
     95  O        -31.4950  -22.3460  -31.2360 O.2   195  ASN195     -0.2867
     96  CB       -30.1790  -21.8120  -28.5740 C.3   195  ASN195      0.1155
     97  CG       -28.6410  -21.8220  -28.7870 C.2   195  ASN195      0.2627
     98  OD1      -27.9030  -21.3640  -27.9040 O.2   195  ASN195     -0.2716
     99  ND2      -28.1470  -22.3730  -29.9160 N.am  195  ASN195     -0.0877
    100  N        -23.8580  -28.9300  -31.2420 N.3   203  LYS203     -0.1245
    101  CA       -23.9480  -28.5910  -29.8260 C.3   203  LYS203      0.1561
    102  C        -24.8950  -29.5960  -29.2120 C.2   203  LYS203      0.2260
    103  O        -26.0190  -29.7230  -29.6710 O.2   203  LYS203     -0.2867
    104  CB       -24.5050  -27.1840  -29.6450 C.3   203  LYS203      0.0271
    105  CG       -24.5670  -26.7050  -28.1940 C.3   203  LYS203      0.0035
    106  CD       -25.3380  -25.3950  -28.0090 C.3   203  LYS203      0.0206
    107  CE       -24.8080  -24.2240  -28.8330 C.3   203  LYS203      0.1093
    108  NZ       -23.5500  -23.6600  -28.2790 N.3   203  LYS203     -0.1314
    109  N        -27.1140  -31.1850  -25.9400 N.3   205  TRP205     -0.1241
    110  CA       -27.8930  -30.6790  -24.8140 C.3   205  TRP205      0.1605
    111  C        -28.3580  -31.8270  -23.9280 C.2   205  TRP205      0.2264
    112  O        -28.6220  -32.9340  -24.4140 O.2   205  TRP205     -0.2867
    113  CB       -29.1400  -29.9520  -25.3130 C.3   205  TRP205      0.0550
    114  CG       -28.9030  -28.7360  -26.1630 C.ar  205  TRP205      0.0003
    115  CD1      -28.3490  -28.6990  -27.4060 C.ar  205  TRP205      0.0946
    116  CD2      -29.2740  -27.3910  -25.8530 C.ar  205  TRP205      0.0152
    117  NE1      -28.3280  -27.4110  -27.8790 N.ar  205  TRP205     -0.2442
    118  CE2      -28.8910  -26.5880  -26.9440 C.ar  205  TRP205      0.0810
    119  CE3      -29.8740  -26.7800  -24.7470 C.ar  205  TRP205      0.0012
    120  CZ2      -29.0950  -25.2040  -26.9660 C.ar  205  TRP205      0.0191
    121  CZ3      -30.0840  -25.4110  -24.7680 C.ar  205  TRP205      0.0001
    122  CH2      -29.6990  -24.6390  -25.8680 C.ar  205  TRP205      0.0015
    123  N        -24.1940  -20.6610  -12.8540 N.3   238  LYS238     -0.1245
    124  CA       -23.8430  -21.3410  -14.1050 C.3   238  LYS238      0.1561
    125  C        -22.4400  -21.9370  -14.0520 C.2   238  LYS238      0.2260
    126  O        -21.6960  -21.8910  -15.0290 O.2   238  LYS238     -0.2867
    127  CB       -24.0530  -20.4210  -15.3290 C.3   238  LYS238      0.0271
    128  CG       -25.5090  -19.9780  -15.4830 C.3   238  LYS238      0.0035
    129  CD       -25.8690  -19.5410  -16.8960 C.3   238  LYS238      0.0206
    130  CE       -25.2460  -18.1910  -17.2330 C.3   238  LYS238      0.1093
    131  NZ       -25.4280  -17.8100  -18.6720 N.3   238  LYS238     -0.1314
    132  N        -35.8810  -23.5950  -25.0800 N.3   267  THR267     -0.1218
    133  CA       -36.0280  -24.0280  -23.6860 C.3   267  THR267      0.1862
    134  C        -37.2570  -23.3440  -23.1010 C.2   267  THR267      0.2287
    135  O        -37.5670  -22.1970  -23.4540 O.2   267  THR267     -0.2866
    136  CB       -34.7820  -23.7440  -22.8050 C.3   267  THR267      0.1770
    137  OG1      -34.8030  -22.4030  -22.3180 O.3   267  THR267     -0.2211
    138  CG2      -33.4710  -23.9930  -23.5920 C.3   267  THR267      0.0375
    139  N        -31.2390  -27.1590  -18.0380 N.3   273  HIS273     -0.1241
    140  CA       -30.4440  -27.7290  -19.1340 C.3   273  HIS273      0.1621
    141  C        -28.9530  -27.4160  -19.0550 C.2   273  HIS273      0.2264
    142  O        -28.5360  -26.4650  -18.3950 O.2   273  HIS273     -0.2867
    143  CB       -30.9850  -27.2690  -20.4820 C.3   273  HIS273      0.0745
    144  CG       -31.0910  -25.7860  -20.6080 C.ar  273  HIS273      0.0817
    145  ND1      -32.0760  -25.0560  -19.9810 N.ar  273  HIS273     -0.2268
    146  CD2      -30.3320  -24.8950  -21.2790 C.ar  273  HIS273      0.1154
    147  CE1      -31.9140  -23.7760  -20.2570 C.ar  273  HIS273      0.1986
    148  NE2      -30.8620  -23.6530  -21.0410 N.ar  273  HIS273     -0.2212
    149  N        -28.5080  -16.5620  -29.3260 N.3   285  SER285     -0.1202
    150  CA       -29.6420  -16.7730  -28.4260 C.3   285  SER285      0.2020
    151  C        -30.1060  -15.5480  -27.6360 C.2   285  SER285      0.2619
    152  O        -29.3820  -14.5470  -27.5170 O.2   285  SER285     -0.2717
    153  CB       -29.3610  -17.9440  -27.4730 C.3   285  SER285      0.2103
    154  OG       -28.2360  -17.7000  -26.6780 O.3   285  SER285     -0.2182
    155  N        -31.3390  -15.6480  -27.1290 N.am  286  THR286     -0.1938
    156  CA       -31.9530  -14.6320  -26.2750 C.3   286  THR286      0.2028
    157  C        -33.1470  -15.2450  -25.5140 C.2   286  THR286      0.2642
    158  O        -33.5640  -16.3650  -25.8080 O.2   286  THR286     -0.2714
    159  CB       -32.4150  -13.3900  -27.0930 C.3   286  THR286      0.1808
    160  OG1      -32.6320  -12.2840  -26.2160 O.3   286  THR286     -0.2208
    161  CG2      -33.7020  -13.6570  -27.8510 C.3   286  THR286      0.0379
    162  N        -33.6940  -14.4950  -24.5590 N.am  287  ASN287     -0.1971
    163  CA       -34.8920  -14.9070  -23.8410 C.3   287  ASN287      0.1688
    164  C        -36.1660  -14.3490  -24.4920 C.2   287  ASN287      0.2292
    165  O        -36.1270  -13.3670  -25.2370 O.2   287  ASN287     -0.2864
    166  CB       -34.8430  -14.4380  -22.3840 C.3   287  ASN287      0.1181
    167  CG       -33.7260  -15.0780  -21.5670 C.2   287  ASN287      0.2629
    168  OD1      -33.0550  -14.3800  -20.8390 O.2   287  ASN287     -0.2716
    169  ND2      -33.5780  -16.4070  -21.6170 N.am  287  ASN287     -0.0877
@<TRIPOS>BOND
     1   100   101    1
     2    95    94    2
     3    94    93    1
     4    39    38    2
     5    99    97   am
     6   101   104    1
     7   101   102    1
     8    38    37    1
     9   103   102    2
    10   104   105    1
    11    93    92    1
    12    93    96    1
    13    36    37    1
    14   149   150    1
    15    27    26    2
    16   107   108    1
    17   107   106    1
    18    97    96    1
    19    97    98    2
    20    37    40    1
    21    26    25    1
    22   150   151    1
    23   150   153    1
    24   105   106    1
    25    24    25    1
    26    40    41    1
    27   117   115   ar
    28   117   118   ar
    29   161   159    1
    30    25    28    1
    31   151   152    2
    32   151   155   am
    33   153   154    1
    34   115   114   ar
    35   155   156    1
    36   159   156    1
    37   159   160    1
    38    42    41   ar
    39    42    44   ar
    40   120   118   ar
    41   120   122   ar
    42   118   116   ar
    43    41    43   ar
    44     9     7   ar
    45     9    11   ar
    46    28    29    1
    47   156   157    1
    48   114   116   ar
    49   114   113    1
    50    89    88    2
    51   109   110    1
    52    12    11    1
    53     7     6   ar
    54    44    46   ar
    55    88    87    1
    56   122   121   ar
    57   116   119   ar
    58   158   157    2
    59   157   162   am
    60    43    45   ar
    61    11    10   ar
    62     3     2    1
    63     3     4    2
    64   113   110    1
    65   165   164    2
    66    30    29   ar
    67    30    32   ar
    68     2     1    1
    69     2     5    1
    70   132   133    1
    71    29    31   ar
    72   110   111    1
    73   121   119   ar
    74    46    45   ar
    75    46    47    1
    76     6     5    1
    77     6     8   ar
    78   162   163    1
    79    87    90    1
    80    87    86    1
    81   164   163    1
    82   112   111    2
    83    56    58   ar
    84    56    54   ar
    85    10     8   ar
    86    16    15    2
    87    32    34   ar
    88    90    91    1
    89    58    57   ar
    90   163   166    1
    91    31    33   ar
    92   133   134    1
    93   133   136    1
    94    14    13    1
    95    14    15    1
    96   138   136    1
    97    20    19    2
    98    54    53   ar
    99   135   134    2
   100    15    17   am
   101    19    18    1
   102   136   137    1
   103    34    33   ar
   104    34    35    1
   105    57    55   ar
   106   166   167    1
   107    17    18    1
   108    53    55   ar
   109    53    52    1
   110    18    21    1
   111   169   167   am
   112   167   168    2
   113    52    49    1
   114    48    49    1
   115   146   148   ar
   116   146   144   ar
   117   148   147   ar
   118    76    75   ar
   119   144   143    1
   120   144   145   ar
   121    49    50    1
   122    77    75   ar
   123    21    22    1
   124    21    23    1
   125    75    74    1
   126   143   140    1
   127   147   145   ar
   128    74    73    1
   129    51    50    2
   130    68    67   ar
   131    68    66   ar
   132    67    65   ar
   133   140   141    1
   134   140   139    1
   135   141   142    2
   136    73    70    1
   137   131   130    1
   138    66    64   ar
   139    65    64   ar
   140    70    69    1
   141    70    71    1
   142   130   129    1
   143    64    63    1
   144    85    83   ar
   145    62    61    2
   146   129   128    1
   147    81    80    2
   148    78    71   am
   149    78    79    1
   150    71    72    2
   151    82    83    1
   152    82    79    1
   153    83    84   ar
   154    61    60    1
   155    79    80    1
   156    59    60    1
   157    63    60    1
   158   128   127    1
   159   127   124    1
   160   126   125    2
   161   124   125    1
   162   124   123    1
