@<TRIPOS>MOLECULE
tmp/5f5kA00.pdb
 169 164 0 0 0
SMALL
GASTEIGER

@<TRIPOS>ATOM
      1  N          4.7880   41.7420   -4.5910 N.3    28  MET28      -0.1245
      2  CA         4.2470   41.6110   -3.2280 C.3    28  MET28       0.1570
      3  C          3.0180   42.4640   -2.9790 C.2    28  MET28       0.2261
      4  O          2.0390   41.9890   -2.4030 O.2    28  MET28      -0.2867
      5  CB         5.2890   41.9510   -2.1990 C.3    28  MET28       0.0387
      6  CG         6.1200   40.7630   -1.8110 C.3    28  MET28       0.0595
      7  SD         7.0440   41.1270   -0.3130 S.3    28  MET28      -0.1393
      8  CE         8.0510   42.4730   -0.9250 C.3    28  MET28       0.0692
      9  N          0.2810   34.2650   -1.8920 N.3    49  HIS49      -0.1241
     10  CA         1.5200   34.4530   -1.1150 C.3    49  HIS49       0.1621
     11  C          2.4310   33.2480   -1.3280 C.2    49  HIS49       0.2264
     12  O          3.6660   33.3600   -1.2520 O.2    49  HIS49      -0.2867
     13  CB         1.2320   34.6810    0.3690 C.3    49  HIS49       0.0745
     14  CG         0.4760   33.5620    0.9950 C.ar   49  HIS49       0.0817
     15  ND1        1.0980   32.4720    1.5560 N.ar   49  HIS49      -0.2268
     16  CD2       -0.8550   33.3420    1.1110 C.ar   49  HIS49       0.1154
     17  CE1        0.1810   31.6270    2.0010 C.ar   49  HIS49       0.1986
     18  NE2       -1.0160   32.1320    1.7400 N.ar   49  HIS49      -0.2212
     19  N         11.9180   34.6200   -3.2090 N.3    54  PHE54      -0.1227
     20  CA        12.7690   35.8400   -3.1640 C.3    54  PHE54       0.1736
     21  C         14.2410   35.6470   -3.5500 C.2    54  PHE54       0.2596
     22  O         14.9960   36.6260   -3.6260 O.2    54  PHE54      -0.2718
     23  CB        12.6300   36.5880   -1.8160 C.3    54  PHE54       0.0547
     24  CG        11.2150   36.7200   -1.3570 C.ar   54  PHE54      -0.0202
     25  CD1       10.6710   35.8000   -0.4630 C.ar   54  PHE54      -0.0042
     26  CD2       10.3990   37.7350   -1.8600 C.ar   54  PHE54      -0.0042
     27  CE1        9.3470   35.9040   -0.0720 C.ar   54  PHE54      -0.0003
     28  CE2        9.0720   37.8540   -1.4530 C.ar   54  PHE54      -0.0003
     29  CZ         8.5470   36.9300   -0.5660 C.ar   54  PHE54      -0.0000
     30  N         14.6410   34.3980   -3.7800 N.am   55  SER55      -0.1952
     31  CA        15.9040   34.0850   -4.4480 C.3    55  SER55       0.1924
     32  C         15.7300   32.8020   -5.2520 C.2    55  SER55       0.2314
     33  O         14.6560   32.1880   -5.2230 O.2    55  SER55      -0.2863
     34  CB        17.0540   33.9820   -3.4410 C.3    55  SER55       0.2116
     35  OG        16.8380   32.9360   -2.5160 O.3    55  SER55      -0.2180
     36  N         15.7730   29.7430   -3.1130 N.3    58  HIS58      -0.1241
     37  CA        14.4860   29.7630   -2.4180 C.3    58  HIS58       0.1621
     38  C         13.5020   28.9660   -3.2430 C.2    58  HIS58       0.2264
     39  O         12.8600   28.0670   -2.6990 O.2    58  HIS58      -0.2867
     40  CB        13.9840   31.2100   -2.1840 C.3    58  HIS58       0.0745
     41  CG        12.7530   31.3210   -1.3160 C.ar   58  HIS58       0.0817
     42  ND1       11.8910   32.4010   -1.3710 N.ar   58  HIS58      -0.2268
     43  CD2       12.2540   30.4940   -0.3600 C.ar   58  HIS58       0.1154
     44  CE1       10.9120   32.2280   -0.4990 C.ar   58  HIS58       0.1986
     45  NE2       11.1100   31.0800    0.1300 N.ar   58  HIS58      -0.2212
     46  N         12.3690   24.8830   -2.7660 N.3    62  ASN62      -0.1240
     47  CA        10.9370   24.6550   -2.5900 C.3    62  ASN62       0.1653
     48  C         10.2710   23.7950   -3.6720 C.2    62  ASN62       0.2266
     49  O          9.4820   22.8930   -3.3340 O.2    62  ASN62      -0.2867
     50  CB        10.1950   25.9760   -2.4370 C.3    62  ASN62       0.1155
     51  CG        10.2810   26.5360   -1.0210 C.2    62  ASN62       0.2627
     52  OD1       10.7620   25.8740   -0.0940 O.2    62  ASN62      -0.2716
     53  ND2        9.7970   27.7650   -0.8490 N.am   62  ASN62      -0.0877
     54  N          1.0640   32.6850    9.7000 N.3    97  GLN97      -0.1245
     55  CA         2.2890   33.4700    9.4840 C.3    97  GLN97       0.1566
     56  C          1.9780   34.9450    9.6550 C.2    97  GLN97       0.2260
     57  O          2.8220   35.7420   10.0890 O.2    97  GLN97      -0.2867
     58  CB         2.8650   33.2570    8.0840 C.3    97  GLN97       0.0367
     59  CG         4.2210   33.9320    7.8440 C.3    97  GLN97       0.0905
     60  CD         5.2330   33.7450    8.9740 C.2    97  GLN97       0.2608
     61  OE1        5.4090   32.6300    9.4780 O.2    97  GLN97      -0.2717
     62  NE2        5.8970   34.8460    9.3860 N.am   97  GLN97      -0.0878
     63  N          3.8250   37.4130   12.3520 N.3   101  SER101     -0.1217
     64  CA         4.7730   38.4260   11.9030 C.3   101  SER101      0.1889
     65  C          4.2470   39.4200   10.8640 C.2   101  SER101      0.2288
     66  O          5.0300   40.1980   10.2810 O.2   101  SER101     -0.2866
     67  CB         6.0660   37.7600   11.4020 C.3   101  SER101      0.2089
     68  OG         6.8630   37.3180   12.4890 O.3   101  SER101     -0.2183
     69  N          3.9900   40.3230    5.3180 N.3   104  TRP104     -0.1227
     70  CA         5.0940   40.3260    4.3380 C.3   104  TRP104      0.1737
     71  C          5.9330   39.0790    4.4110 C.2   104  TRP104      0.2595
     72  O          7.0070   39.0920    5.0000 O.2   104  TRP104     -0.2718
     73  CB         5.9650   41.5840    4.3990 C.3   104  TRP104      0.0564
     74  CG         5.1380   42.8100    4.3540 C.ar  104  TRP104      0.0003
     75  CD1        5.0710   43.7860    5.3070 C.ar  104  TRP104      0.0946
     76  CD2        4.1820   43.1630    3.3460 C.ar  104  TRP104      0.0152
     77  NE1        4.1560   44.7390    4.9450 N.ar  104  TRP104     -0.2442
     78  CE2        3.5970   44.3920    3.7420 C.ar  104  TRP104      0.0810
     79  CE3        3.7900   42.5880    2.1170 C.ar  104  TRP104      0.0012
     80  CZ2        2.6310   45.0580    2.9560 C.ar  104  TRP104      0.0191
     81  CZ3        2.8230   43.2620    1.3310 C.ar  104  TRP104      0.0001
     82  CH2        2.2520   44.4750    1.7650 C.ar  104  TRP104      0.0015
     83  N          5.4140   38.0280    3.7760 N.am  105  PHE105     -0.1962
     84  CA         6.0310   36.7200    3.6590 C.3   105  PHE105      0.1771
     85  C          5.5900   36.1180    2.3300 C.2   105  PHE105      0.2620
     86  O          4.5700   36.5210    1.7590 O.2   105  PHE105     -0.2715
     87  CB         5.5630   35.7880    4.8140 C.3   105  PHE105      0.0574
     88  CG         4.0620   35.5740    4.8690 C.ar  105  PHE105     -0.0200
     89  CD1        3.4560   34.4840    4.2200 C.ar  105  PHE105     -0.0042
     90  CD2        3.2560   36.4570    5.5850 C.ar  105  PHE105     -0.0042
     91  CE1        2.0580   34.3130    4.2660 C.ar  105  PHE105     -0.0003
     92  CE2        1.8780   36.2960    5.6420 C.ar  105  PHE105     -0.0003
     93  CZ         1.2770   35.2340    4.9730 C.ar  105  PHE105     -0.0000
     94  N          6.3240   35.1160    1.8680 N.am  106  GLY106     -0.1940
     95  CA         5.9290   34.3370    0.6980 C.3   106  GLY106      0.2014
     96  C          6.7920   33.1040    0.5610 C.2   106  GLY106      0.2639
     97  O          7.8540   33.0080    1.1970 O.2   106  GLY106     -0.2714
     98  N          6.3610   32.1710   -0.2860 N.am  107  GLY107     -0.1954
     99  CA         7.1190   30.9460   -0.5170 C.3   107  GLY107      0.1869
    100  C          6.1480   29.8090   -0.4870 C.2   107  GLY107      0.2309
    101  O          5.0030   29.9900   -0.0870 O.2   107  GLY107     -0.2863
    102  N          6.8340   26.9630    1.1290 N.3   109  SER109     -0.1202
    103  CA         7.3590   26.0150    2.1430 C.3   109  SER109      0.2020
    104  C          6.3520   25.6030    3.2070 C.2   109  SER109      0.2619
    105  O          6.5180   24.5550    3.8420 O.2   109  SER109     -0.2717
    106  CB         8.6280   26.5140    2.8070 C.3   109  SER109      0.2103
    107  OG         8.3290   27.4810    3.7900 O.3   109  SER109     -0.2182
    108  N          5.3170   26.4340    3.3670 N.am  110  GLY110     -0.1956
    109  CA         4.1590   26.1710    4.2200 C.3   110  GLY110      0.1869
    110  C          3.3910   25.0030    3.6970 C.2   110  GLY110      0.2309
    111  O          3.0770   24.0610    4.4340 O.2   110  GLY110     -0.2863
    112  N         17.5040   31.1670   13.2950 N.3   151  ASP151     -0.1239
    113  CA        17.6320   32.2240   12.2940 C.3   151  ASP151      0.1674
    114  C         19.0780   32.5710   11.8610 C.2   151  ASP151      0.2266
    115  O         19.5900   33.6360   12.2080 O.2   151  ASP151     -0.2867
    116  CB        16.8740   33.4610   12.8100 C.3   151  ASP151      0.1410
    117  CG        16.6240   34.4870   11.7320 C.2   151  ASP151      0.3668
    118  OD1       17.5770   35.2260   11.4070 O.co2 151  ASP151     -0.2456
    119  OD2       15.4830   34.5660   11.2220 O.co2 151  ASP151     -0.2456
    120  N         19.1690   33.6590    8.7760 N.3   153  MET153     -0.1230
    121  CA        18.2150   33.8350    7.6740 C.3   153  MET153      0.1702
    122  C         16.9460   34.5840    8.0930 C.2   153  MET153      0.2593
    123  O         17.0090   35.5270    8.8860 O.2   153  MET153     -0.2718
    124  CB        17.8350   32.4840    7.0670 C.3   153  MET153      0.0401
    125  CG        19.0020   31.6730    6.5500 C.3   153  MET153      0.0596
    126  SD        18.5000   30.6200    5.1780 S.3   153  MET153     -0.1393
    127  CE        18.4850   31.8030    3.8240 C.3   153  MET153      0.0692
    128  N         15.7930   34.1630    7.5670 N.am  154  SER154     -0.1938
    129  CA        14.5500   34.8850    7.7840 C.3   154  SER154      0.2055
    130  C         13.2950   34.0470    7.4730 C.2   154  SER154      0.2643
    131  O         12.4760   34.4260    6.6400 O.2   154  SER154     -0.2714
    132  CB        14.5810   36.1510    6.9260 C.3   154  SER154      0.2130
    133  OG        13.7370   37.1410    7.4670 O.3   154  SER154     -0.2179
    134  N         13.1430   32.9120    8.1460 N.am  155  MET155     -0.1962
    135  CA        12.0920   31.9580    7.7990 C.3   155  MET155      0.1736
    136  C         10.7050   32.3510    8.3280 C.2   155  MET155      0.2616
    137  O         10.5850   33.0950    9.3000 O.2   155  MET155     -0.2715
    138  CB        12.4640   30.5540    8.2780 C.3   155  MET155      0.0427
    139  CG        13.6720   29.9560    7.5840 C.3   155  MET155      0.0599
    140  SD        13.9720   28.3160    8.2620 S.3   155  MET155     -0.1393
    141  CE        15.6070   27.9550    7.6150 C.3   155  MET155      0.0692
    142  N          9.6670   31.8370    7.6700 N.am  156  ALA156     -0.1963
    143  CA         8.3070   31.9950    8.1200 C.3   156  ALA156      0.1728
    144  C          7.9220   30.8460    9.0750 C.2   156  ALA156      0.2616
    145  O          7.2260   29.8640    8.6930 O.2   156  ALA156     -0.2715
    146  CB         7.3890   32.0740    6.9330 C.3   156  ALA156      0.0334
    147  N          8.3720   30.9910   10.3290 N.am  157  ASN157     -0.1972
    148  CA         8.1670   29.9640   11.3700 C.3   157  ASN157      0.1688
    149  C          6.7080   29.6490   11.6950 C.2   157  ASN157      0.2292
    150  O          6.4110   28.5530   12.1500 O.2   157  ASN157     -0.2864
    151  CB         8.9710   30.2700   12.6450 C.3   157  ASN157      0.1181
    152  CG        10.4430   30.4370   12.3550 C.2   157  ASN157      0.2629
    153  OD1       11.0620   29.5570   11.7530 O.2   157  ASN157     -0.2716
    154  ND2       11.0000   31.5820   12.7270 N.am  157  ASN157     -0.0877
    155  N          4.3590   29.7330    9.3340 N.3   159  ALA159     -0.1231
    156  CA         3.9540   29.0140    8.1430 C.3   159  ALA159      0.1694
    157  C          4.4030   27.5670    8.2440 C.2   159  ALA159      0.2592
    158  O          3.5970   26.6680    8.0420 O.2   159  ALA159     -0.2718
    159  CB         4.5290   29.6790    6.9120 C.3   159  ALA159      0.0304
    160  N          5.6740   27.3460    8.5780 N.am  160  HIS160     -0.1976
    161  CA         6.2100   25.9890    8.7340 C.3   160  HIS160      0.1656
    162  C          5.3760   25.1910    9.7370 C.2   160  HIS160      0.2291
    163  O          4.7860   24.1700    9.3840 O.2   160  HIS160     -0.2864
    164  CB         7.6740   26.0010    9.1680 C.3   160  HIS160      0.0771
    165  CG         8.6040   26.6660    8.2080 C.ar  160  HIS160      0.0820
    166  ND1        9.9650   26.7270    8.4280 N.ar  160  HIS160     -0.2267
    167  CD2        8.3880   27.2850    7.0230 C.ar  160  HIS160      0.1154
    168  CE1       10.5450   27.3700    7.4290 C.ar  160  HIS160      0.1986
    169  NE2        9.6140   27.6970    6.5500 N.ar  160  HIS160     -0.2212
@<TRIPOS>BOND
     1    32    33    2
     2    32    31    1
     3     1     2    1
     4    31    30    1
     5    31    34    1
     6    30    21   am
     7    48    49    2
     8    48    47    1
     9    22    21    2
    10    21    20    1
    11    34    35    1
    12    38    39    2
    13    38    37    1
    14     2     3    1
    15     2     5    1
    16    19    20    1
    17    20    23    1
    18    36    37    1
    19     3     4    2
    20    46    47    1
    21    47    50    1
    22    50    51    1
    23    37    40    1
    24     5     6    1
    25    40    41    1
    26     9    10    1
    27    26    28   ar
    28    26    24   ar
    29    23    24    1
    30     6     7    1
    31    28    29   ar
    32    42    41   ar
    33    42    44   ar
    34    24    25   ar
    35    11    12    2
    36    11    10    1
    37    41    43   ar
    38    10    13    1
    39    51    53   am
    40    51    52    2
    41     8     7    1
    42    29    27   ar
    43    99   100    1
    44    99    98    1
    45    44    45   ar
    46   100   101    2
    47    25    27   ar
    48    43    45   ar
    49    98    96   am
    50    13    14    1
    51    96    95    1
    52    96    97    2
    53    95    94    1
    54    14    16   ar
    55    14    15   ar
    56    16    18   ar
    57   102   103    1
    58    81    82   ar
    59    81    79   ar
    60    15    17   ar
    61    18    17   ar
    62    86    85    2
    63    82    80   ar
    64    94    85   am
    65    79    76   ar
    66   103   106    1
    67   103   104    1
    68    85    84    1
    69   106   107    1
    70    80    78   ar
    71   104   108   am
    72   104   105    2
    73    76    78   ar
    74    76    74   ar
    75   108   109    1
    76    84    83    1
    77    84    87    1
    78   110   109    1
    79   110   111    2
    80    78    77   ar
    81    83    71   am
    82   127   126    1
    83    89    91   ar
    84    89    88   ar
    85    91    93   ar
    86    70    73    1
    87    70    71    1
    88    70    69    1
    89    74    73    1
    90    74    75   ar
    91    71    72    2
    92    87    88    1
    93    88    90   ar
    94    77    75   ar
    95    93    92   ar
    96   126   125    1
    97    90    92   ar
    98   125   124    1
    99   169   167   ar
   100   169   168   ar
   101   131   130    2
   102   159   156    1
   103   132   133    1
   104   132   129    1
   105   146   143    1
   106   167   165   ar
   107   124   121    1
   108   168   166   ar
   109   130   129    1
   110   130   134   am
   111   128   129    1
   112   128   122   am
   113   139   140    1
   114   139   138    1
   115   141   140    1
   116   142   143    1
   117   142   136   am
   118   121   122    1
   119   121   120    1
   120   135   134    1
   121   135   138    1
   122   135   136    1
   123    59    58    1
   124    59    60    1
   125   158   157    2
   126    58    55    1
   127   122   123    2
   128   143   144    1
   129   156   157    1
   130   156   155    1
   131   165   166   ar
   132   165   164    1
   133   157   160   am
   134   136   137    2
   135   160   161    1
   136   145   144    2
   137   161   164    1
   138   161   162    1
   139    60    62   am
   140    60    61    2
   141   144   147   am
   142   163   162    2
   143    55    56    1
   144    55    54    1
   145    56    57    2
   146    66    65    2
   147   147   148    1
   148    65    64    1
   149   119   117   ar
   150   148   149    1
   151   148   151    1
   152    67    64    1
   153    67    68    1
   154   118   117   ar
   155   149   150    2
   156   117   116    1
   157   153   152    2
   158   114   115    2
   159   114   113    1
   160    64    63    1
   161   113   116    1
   162   113   112    1
   163   152   151    1
   164   152   154   am
