@<TRIPOS>MOLECULE
tmp/5f5nB01.pdb
 198 198 0 0 0
SMALL
GASTEIGER

@<TRIPOS>ATOM
      1  N         -7.1330   28.1040  -13.6440 N.3    77  PHE77      -0.1227
      2  CA        -7.3480   26.8590  -14.3780 C.3    77  PHE77       0.1736
      3  C         -6.7800   25.6630  -13.6250 C.2    77  PHE77       0.2595
      4  O         -6.9640   24.5210  -14.0330 O.2    77  PHE77      -0.2718
      5  CB        -6.7620   26.9250  -15.7960 C.3    77  PHE77       0.0547
      6  CG        -5.2600   27.0200  -15.8380 C.ar   77  PHE77      -0.0202
      7  CD1       -4.6280   28.2480  -15.7540 C.ar   77  PHE77      -0.0042
      8  CD2       -4.4820   25.8850  -15.9750 C.ar   77  PHE77      -0.0042
      9  CE1       -3.2430   28.3420  -15.7960 C.ar   77  PHE77      -0.0003
     10  CE2       -3.1010   25.9760  -16.0220 C.ar   77  PHE77      -0.0003
     11  CZ        -2.4810   27.2030  -15.9350 C.ar   77  PHE77      -0.0000
     12  N         -6.0860   25.9210  -12.5250 N.am   78  MET78      -0.1979
     13  CA        -5.4430   24.8400  -11.7880 C.3    78  MET78       0.1605
     14  C         -6.3530   24.2860  -10.7040 C.2    78  MET78       0.2287
     15  O         -6.1050   24.4600   -9.5060 O.2    78  MET78      -0.2864
     16  CB        -4.1200   25.3100  -11.2090 C.3    78  MET78       0.0413
     17  CG        -3.1840   25.8080  -12.2810 C.3    78  MET78       0.0598
     18  SD        -1.5070   25.3640  -11.8760 S.3    78  MET78      -0.1393
     19  CE        -0.5960   26.1440  -13.1970 C.3    78  MET78       0.0692
     20  N         -4.0270   37.7430  -19.8510 N.3   110  VAL110     -0.1245
     21  CA        -2.5980   37.4390  -19.7920 C.3   110  VAL110      0.1561
     22  C         -1.9060   38.0910  -20.9830 C.2   110  VAL110      0.2260
     23  O         -2.4830   38.1760  -22.0660 O.2   110  VAL110     -0.2867
     24  CB        -2.3230   35.9000  -19.7720 C.3   110  VAL110      0.0252
     25  CG1       -2.7880   35.2350  -21.0740 C.3   110  VAL110      0.0019
     26  CG2       -0.8470   35.6130  -19.5190 C.3   110  VAL110      0.0019
     27  N         -3.8400   27.8630  -21.6690 N.3   121  HIS121     -0.1226
     28  CA        -4.3890   28.7590  -20.6560 C.3   121  HIS121      0.1752
     29  C         -4.2490   30.2480  -20.9980 C.2   121  HIS121      0.2596
     30  O         -4.6330   31.1020  -20.1960 O.2   121  HIS121     -0.2718
     31  CB        -3.8010   28.4430  -19.2770 C.3   121  HIS121      0.0759
     32  CG        -2.3080   28.4430  -19.2370 C.ar  121  HIS121      0.0818
     33  ND1       -1.5420   27.4490  -19.8180 N.ar  121  HIS121     -0.2268
     34  CD2       -1.4330   29.3100  -18.6750 C.ar  121  HIS121      0.1154
     35  CE1       -0.2650   27.7110  -19.6180 C.ar  121  HIS121      0.1986
     36  NE2       -0.1700   28.8340  -18.9210 N.ar  121  HIS121     -0.2212
     37  N         -3.6970   30.5560  -22.1730 N.am  122  PHE122     -0.1976
     38  CA        -3.7630   31.9100  -22.7390 C.3   122  PHE122      0.1639
     39  C         -4.9750   31.9830  -23.6710 C.2   122  PHE122      0.2290
     40  O         -5.6710   33.0050  -23.7140 O.2   122  PHE122     -0.2864
     41  CB        -2.5120   32.2640  -23.5580 C.3   122  PHE122      0.0560
     42  CG        -1.2580   32.5300  -22.7450 C.ar  122  PHE122     -0.0200
     43  CD1       -1.0510   31.9580  -21.4990 C.ar  122  PHE122     -0.0042
     44  CD2       -0.2630   33.3480  -23.2720 C.ar  122  PHE122     -0.0042
     45  CE1        0.1230   32.2140  -20.7820 C.ar  122  PHE122     -0.0003
     46  CE2        0.9060   33.6070  -22.5710 C.ar  122  PHE122     -0.0003
     47  CZ         1.1010   33.0350  -21.3240 C.ar  122  PHE122     -0.0000
     48  N         -8.3010   32.5950  -21.9320 N.3   125  LYS125     -0.1245
     49  CA        -8.4590   34.0030  -21.5890 C.3   125  LYS125      0.1561
     50  C         -8.8540   34.8360  -22.7990 C.2   125  LYS125      0.2260
     51  O         -9.6910   35.7210  -22.6940 O.2   125  LYS125     -0.2867
     52  CB        -7.1800   34.5160  -20.9340 C.3   125  LYS125      0.0271
     53  CG        -6.9020   33.8290  -19.6020 C.3   125  LYS125      0.0035
     54  CD        -5.4850   34.0740  -19.1270 C.3   125  LYS125      0.0206
     55  CE        -5.2540   33.5670  -17.7130 C.3   125  LYS125      0.1093
     56  NZ        -5.4400   32.0900  -17.6200 N.3   125  LYS125     -0.1314
     57  N          1.9490   39.9540  -17.1540 N.3   145  THR145     -0.1203
     58  CA         3.0610   39.1070  -17.5560 C.3   145  THR145      0.1994
     59  C          3.4390   38.1650  -16.3940 C.2   145  THR145      0.2618
     60  O          2.5830   37.8100  -15.5860 O.2   145  THR145     -0.2717
     61  CB         4.2380   39.9840  -18.0740 C.3   145  THR145      0.1784
     62  OG1        4.6870   40.8670  -17.0390 O.3   145  THR145     -0.2211
     63  CG2        3.7870   40.8120  -19.2700 C.3   145  THR145      0.0376
     64  N          4.6920   37.7160  -16.3350 N.am  146  PHE146     -0.1961
     65  CA         5.1440   36.6920  -15.3790 C.3   146  PHE146      0.1771
     66  C          5.0950   37.2710  -13.9560 C.2   146  PHE146      0.2619
     67  O          5.7420   38.2760  -13.6810 O.2   146  PHE146     -0.2715
     68  CB         6.5850   36.3320  -15.7820 C.3   146  PHE146      0.0574
     69  CG         7.1780   35.1090  -15.1130 C.ar  146  PHE146     -0.0200
     70  CD1        7.4030   35.0610  -13.7420 C.ar  146  PHE146     -0.0042
     71  CD2        7.6180   34.0430  -15.8910 C.ar  146  PHE146     -0.0042
     72  CE1        8.0060   33.9530  -13.1530 C.ar  146  PHE146     -0.0003
     73  CE2        8.2230   32.9410  -15.3120 C.ar  146  PHE146     -0.0003
     74  CZ         8.4130   32.8920  -13.9430 C.ar  146  PHE146     -0.0000
     75  N          4.3320   36.6610  -13.0450 N.am  147  PHE147     -0.1974
     76  CA         4.2250   37.2340  -11.6960 C.3   147  PHE147      0.1639
     77  C          5.5530   37.0970  -10.9580 C.2   147  PHE147      0.2290
     78  O          6.0610   35.9860  -10.7850 O.2   147  PHE147     -0.2864
     79  CB         3.1830   36.5240  -10.8280 C.3   147  PHE147      0.0560
     80  CG         1.7480   36.7190  -11.2400 C.ar  147  PHE147     -0.0200
     81  CD1        1.3840   37.4330  -12.3650 C.ar  147  PHE147     -0.0042
     82  CD2        0.7490   36.1470  -10.4640 C.ar  147  PHE147     -0.0042
     83  CE1        0.0390   37.5620  -12.7090 C.ar  147  PHE147     -0.0003
     84  CE2       -0.5860   36.2740  -10.7980 C.ar  147  PHE147     -0.0003
     85  CZ        -0.9400   36.9690  -11.9250 C.ar  147  PHE147     -0.0000
     86  N          5.5470   34.6130   -8.1250 N.3   150  ASN150     -0.1225
     87  CA         5.8110   33.1890   -8.3380 C.3   150  ASN150      0.1785
     88  C          7.0520   32.7190   -7.5920 C.2   150  ASN150      0.2597
     89  O          7.1490   31.5550   -7.1960 O.2   150  ASN150     -0.2718
     90  CB         6.0050   32.8830   -9.8230 C.3   150  ASN150      0.1169
     91  CG         4.7400   33.0300  -10.6310 C.2   150  ASN150      0.2627
     92  OD1        3.6310   33.0290  -10.0920 O.2   150  ASN150     -0.2716
     93  ND2        4.9010   33.1610  -11.9460 N.am  150  ASN150     -0.0877
     94  N          8.0130   33.6200   -7.4200 N.am  151  PHE151     -0.1976
     95  CA         9.2830   33.2540   -6.8000 C.3   151  PHE151      0.1639
     96  C          9.2280   33.0610   -5.2810 C.2   151  PHE151      0.2290
     97  O         10.2090   32.6310   -4.6780 O.2   151  PHE151     -0.2864
     98  CB        10.3930   34.2380   -7.1910 C.3   151  PHE151      0.0560
     99  CG        10.8160   34.1270   -8.6270 C.ar  151  PHE151     -0.0200
    100  CD1       11.7300   33.1620   -9.0160 C.ar  151  PHE151     -0.0042
    101  CD2       10.3030   34.9920   -9.5900 C.ar  151  PHE151     -0.0042
    102  CE1       12.1260   33.0530  -10.3430 C.ar  151  PHE151     -0.0003
    103  CE2       10.6960   34.8860  -10.9250 C.ar  151  PHE151     -0.0003
    104  CZ        11.6070   33.9090  -11.2980 C.ar  151  PHE151     -0.0000
    105  N          8.4900   29.2700   -5.6440 N.3   154  TRP154     -0.1241
    106  CA         9.3210   28.6250   -6.6590 C.3   154  TRP154      0.1605
    107  C         10.6370   29.3550   -6.8880 C.2   154  TRP154      0.2264
    108  O         11.1130   29.4540   -8.0200 O.2   154  TRP154     -0.2867
    109  CB         8.5600   28.5180   -7.9850 C.3   154  TRP154      0.0550
    110  CG         7.3060   27.7160   -7.8850 C.ar  154  TRP154      0.0003
    111  CD1        6.0480   28.1840   -7.6340 C.ar  154  TRP154      0.0946
    112  CD2        7.1880   26.2970   -8.0260 C.ar  154  TRP154      0.0152
    113  NE1        5.1510   27.1380   -7.6100 N.ar  154  TRP154     -0.2442
    114  CE2        5.8250   25.9720   -7.8520 C.ar  154  TRP154      0.0810
    115  CE3        8.1010   25.2720   -8.2900 C.ar  154  TRP154      0.0012
    116  CZ2        5.3580   24.6590   -7.9320 C.ar  154  TRP154      0.0191
    117  CZ3        7.6330   23.9710   -8.3690 C.ar  154  TRP154      0.0001
    118  CH2        6.2750   23.6770   -8.1890 C.ar  154  TRP154      0.0015
    119  N         15.0010   26.9200  -14.6210 N.3   167  LEU167     -0.1231
    120  CA        13.7100   27.1000  -15.2790 C.3   167  LEU167      0.1678
    121  C         13.8510   26.7350  -16.7460 C.2   167  LEU167      0.2434
    122  O         14.9600   26.7490  -17.2800 O.2   167  LEU167     -0.2733
    123  CB        13.2480   28.5580  -15.1640 C.3   167  LEU167      0.0284
    124  CG        12.8920   29.1120  -13.7830 C.3   167  LEU167      0.0019
    125  CD1       12.7220   30.6270  -13.8400 C.3   167  LEU167      0.0001
    126  CD2       11.6260   28.4580  -13.2660 C.3   167  LEU167      0.0001
    127  N         12.7290   26.4100  -17.4110 N.am  168  PRO168     -0.2729
    128  CA        12.8020   26.0610  -18.8350 C.3   168  PRO168      0.1401
    129  C         12.8720   27.3140  -19.7110 C.2   168  PRO168      0.2269
    130  O         11.9130   27.6460  -20.4200 O.2   168  PRO168     -0.2865
    131  CB        11.4990   25.2810  -19.0830 C.3   168  PRO168      0.0296
    132  CG        10.8420   25.1390  -17.7530 C.3   168  PRO168      0.0237
    133  CD        11.3870   26.1770  -16.8570 C.3   168  PRO168      0.0939
    134  N          4.7770   19.7210  -10.4390 N.3   242  ILE242     -0.1231
    135  CA         4.2210   20.9220  -11.0450 C.3   242  ILE242      0.1678
    136  C          2.8290   20.6270  -11.6030 C.2   242  ILE242      0.2434
    137  O          2.6900   19.8690  -12.5630 O.2   242  ILE242     -0.2733
    138  CB         5.1510   21.4790  -12.1510 C.3   242  ILE242      0.0265
    139  CG1        6.5110   21.8580  -11.5560 C.3   242  ILE242      0.0019
    140  CG2        4.5160   22.6740  -12.8600 C.3   242  ILE242      0.0020
    141  CD1        7.5310   22.3080  -12.5750 C.3   242  ILE242      0.0001
    142  N          1.7870   21.1990  -10.9770 N.am  243  PRO243     -0.2729
    143  CA         0.4260   21.0300  -11.4970 C.3   243  PRO243      0.1401
    144  C          0.3120   21.5870  -12.9150 C.2   243  PRO243      0.2269
    145  O          0.8790   22.6400  -13.2010 O.2   243  PRO243     -0.2865
    146  CB        -0.4230   21.8640  -10.5300 C.3   243  PRO243      0.0296
    147  CG         0.3710   21.8970   -9.2650 C.3   243  PRO243      0.0237
    148  CD         1.8070   21.9280   -9.6950 C.3   243  PRO243      0.0939
    149  N          2.1630   24.3570  -18.6640 N.3   248  ILE248     -0.1245
    150  CA         3.1990   25.2710  -18.2130 C.3   248  ILE248      0.1561
    151  C          4.4340   25.1600  -19.1120 C.2   248  ILE248      0.2260
    152  O          5.0400   26.1620  -19.4650 O.2   248  ILE248     -0.2867
    153  CB         3.5340   25.0150  -16.7220 C.3   248  ILE248      0.0252
    154  CG1        2.3360   25.3750  -15.8360 C.3   248  ILE248      0.0019
    155  CG2        4.7830   25.7710  -16.2990 C.3   248  ILE248      0.0019
    156  CD1        1.9300   26.8420  -15.9030 C.3   248  ILE248      0.0001
    157  N          3.7810   27.0230  -22.2380 N.3   251  MET251     -0.1230
    158  CA         3.9480   28.4390  -21.9330 C.3   251  MET251      0.1702
    159  C          5.4250   28.8440  -21.9330 C.2   251  MET251      0.2592
    160  O          5.7990   29.8530  -22.5340 O.2   251  MET251     -0.2718
    161  CB         3.3060   28.7430  -20.5870 C.3   251  MET251      0.0401
    162  CG         3.4240   30.1980  -20.1810 C.3   251  MET251      0.0596
    163  SD         2.8300   30.4750  -18.5040 S.3   251  MET251     -0.1393
    164  CE         4.0880   29.6000  -17.5930 C.3   251  MET251      0.0692
    165  N          6.2760   28.0620  -21.2700 N.am  252  PHE252     -0.1976
    166  CA         7.7000   28.4010  -21.2340 C.3   252  PHE252      0.1639
    167  C          8.3200   28.3390  -22.6270 C.2   252  PHE252      0.2290
    168  O          9.1660   29.1640  -22.9620 O.2   252  PHE252     -0.2864
    169  CB         8.4820   27.5360  -20.2320 C.3   252  PHE252      0.0560
    170  CG         8.5300   28.1140  -18.8450 C.ar  252  PHE252     -0.0200
    171  CD1        9.5040   29.0360  -18.5060 C.ar  252  PHE252     -0.0042
    172  CD2        7.5950   27.7530  -17.8820 C.ar  252  PHE252     -0.0042
    173  CE1        9.5530   29.5860  -17.2350 C.ar  252  PHE252     -0.0003
    174  CE2        7.6390   28.3040  -16.6040 C.ar  252  PHE252     -0.0003
    175  CZ         8.6210   29.2220  -16.2850 C.ar  252  PHE252     -0.0000
    176  N          7.5530   31.5670  -24.1030 N.3   255  PHE255     -0.1241
    177  CA         8.4730   32.6040  -23.6290 C.3   255  PHE255      0.1605
    178  C          9.7420   32.5760  -24.4810 C.2   255  PHE255      0.2264
    179  O         10.3000   33.6190  -24.8250 O.2   255  PHE255     -0.2867
    180  CB         8.8940   32.4010  -22.1710 C.3   255  PHE255      0.0534
    181  CG         7.7780   32.5160  -21.1600 C.ar  255  PHE255     -0.0203
    182  CD1        6.6230   33.2370  -21.4220 C.ar  255  PHE255     -0.0042
    183  CD2        7.9160   31.9150  -19.9160 C.ar  255  PHE255     -0.0042
    184  CE1        5.6100   33.3340  -20.4620 C.ar  255  PHE255     -0.0003
    185  CE2        6.9140   32.0080  -18.9510 C.ar  255  PHE255     -0.0003
    186  CZ         5.7560   32.7220  -19.2260 C.ar  255  PHE255     -0.0000
    187  N          6.4130   38.1150  -23.8830 N.3   260  TYR260     -0.1241
    188  CA         5.5730   39.2570  -23.5620 C.3   260  TYR260      0.1605
    189  C          6.0620   40.5300  -24.2450 C.2   260  TYR260      0.2264
    190  O          7.2200   40.6160  -24.6710 O.2   260  TYR260     -0.2867
    191  CB         5.5330   39.4340  -22.0510 C.3   260  TYR260      0.0534
    192  CG         4.8630   38.2880  -21.3050 C.ar  260  TYR260     -0.0201
    193  CD1        3.5480   37.9290  -21.5880 C.ar  260  TYR260     -0.0009
    194  CD2        5.5270   37.5990  -20.2900 C.ar  260  TYR260     -0.0009
    195  CE1        2.9200   36.9030  -20.9020 C.ar  260  TYR260      0.0417
    196  CE2        4.9030   36.5760  -19.5970 C.ar  260  TYR260      0.0417
    197  CZ         3.6010   36.2460  -19.9060 C.ar  260  TYR260      0.1957
    198  OH         2.9540   35.2470  -19.2220 O.3   260  TYR260     -0.2866
@<TRIPOS>BOND
     1   179   178    2
     2   190   189    2
     3   178   177    1
     4   189   188    1
     5   176   177    1
     6   187   188    1
     7    40    39    2
     8    39    38    1
     9   177   180    1
    10   188   191    1
    11    41    42    1
    12    41    38    1
    13    44    42   ar
    14    44    46   ar
    15   168   167    2
    16    50    51    2
    17    50    49    1
    18    42    43   ar
    19    38    37    1
    20   167   166    1
    21    46    47   ar
    22   160   159    2
    23   157   158    1
    24    37    29   am
    25   180   181    1
    26    23    22    2
    27   191   192    1
    28   158   159    1
    29   158   161    1
    30   159   165   am
    31    48    49    1
    32    27    28    1
    33    49    52    1
    34   193   192   ar
    35   193   195   ar
    36    43    45   ar
    37   182   181   ar
    38   182   184   ar
    39    47    45   ar
    40   192   194   ar
    41   165   166    1
    42   166   169    1
    43   181   183   ar
    44    25    24    1
    45    29    28    1
    46    29    30    2
    47    22    21    1
    48    52    53    1
    49   195   197   ar
    50    28    31    1
    51   161   162    1
    52   184   186   ar
    53   130   129    2
    54   194   196   ar
    55   169   170    1
    56   162   163    1
    57   183   185   ar
    58   197   196   ar
    59   197   198    1
    60    20    21    1
    61    33    35   ar
    62    33    32   ar
    63    21    24    1
    64    24    26    1
    65   129   128    1
    66    35    36   ar
    67    53    54    1
    68   152   151    2
    69    31    32    1
    70    63    61    1
    71    32    34   ar
    72   186   185   ar
    73    54    55    1
    74   151   150    1
    75   131   128    1
    76   131   132    1
    77    36    34   ar
    78   170   171   ar
    79   170   172   ar
    80   128   127    1
    81   149   150    1
    82   171   173   ar
    83   163   164    1
    84   150   153    1
    85    61    58    1
    86    61    62    1
    87   172   174   ar
    88   132   133    1
    89    55    56    1
    90    58    57    1
    91    58    59    1
    92   127   133    1
    93   127   121   am
    94   122   121    2
    95   173   175   ar
    96   121   120    1
    97   153   155    1
    98   153   154    1
    99   174   175   ar
   100    59    64   am
   101    59    60    2
   102    64    65    1
   103    10     8   ar
   104    10    11   ar
   105     8     6   ar
   106    11     9   ar
   107   156   154    1
   108    71    73   ar
   109    71    69   ar
   110     6     5    1
   111     6     7   ar
   112     9     7   ar
   113     5     2    1
   114    68    65    1
   115    68    69    1
   116    65    66    1
   117    73    74   ar
   118   120   123    1
   119   120   119    1
   120   123   124    1
   121    69    70   ar
   122     2     1    1
   123     2     3    1
   124     4     3    2
   125    66    67    2
   126    66    75   am
   127    74    72   ar
   128   125   124    1
   129   124   126    1
   130    70    72   ar
   131     3    12   am
   132   145   144    2
   133    19    18    1
   134    75    76    1
   135   144   143    1
   136   140   138    1
   137    83    81   ar
   138    83    85   ar
   139   141   139    1
   140   137   136    2
   141    12    13    1
   142    81    80   ar
   143    17    18    1
   144    17    16    1
   145   138   139    1
   146   138   135    1
   147    93    91   am
   148    85    84   ar
   149    13    16    1
   150    13    14    1
   151    76    77    1
   152    76    79    1
   153   136   135    1
   154   136   142   am
   155   143   142    1
   156   143   146    1
   157   104   103   ar
   158   104   102   ar
   159    80    79    1
   160    80    82   ar
   161   135   134    1
   162   142   148    1
   163    77    78    2
   164   103   101   ar
   165    84    82   ar
   166    14    15    2
   167    91    92    2
   168    91    90    1
   169   146   147    1
   170   102   100   ar
   171    90    87    1
   172   148   147    1
   173   101    99   ar
   174   100    99   ar
   175    99    98    1
   176   117   115   ar
   177   117   118   ar
   178    87    86    1
   179    87    88    1
   180   115   112   ar
   181   118   116   ar
   182   112   110   ar
   183   112   114   ar
   184   108   107    2
   185   109   110    1
   186   109   106    1
   187   116   114   ar
   188   110   111   ar
   189   114   113   ar
   190   111   113   ar
   191    88    94   am
   192    88    89    2
   193    94    95    1
   194    98    95    1
   195   107   106    1
   196    95    96    1
   197   106   105    1
   198    96    97    2
