@<TRIPOS>MOLECULE
tmp/5f5xB00.pdb
 146 143 0 0 0
SMALL
GASTEIGER

@<TRIPOS>ATOM
      1  N         28.2460   13.4510  -24.5810 N.3    21  TRP21      -0.1241
      2  CA        27.8920   12.8580  -25.8670 C.3    21  TRP21       0.1605
      3  C         29.0170   13.0670  -26.8730 C.2    21  TRP21       0.2264
      4  O         29.5250   14.1760  -27.0260 O.2    21  TRP21      -0.2867
      5  CB        26.5910   13.4620  -26.3900 C.3    21  TRP21       0.0550
      6  CG        26.0890   12.8320  -27.6520 C.ar   21  TRP21       0.0003
      7  CD1       25.8100   11.5120  -27.8550 C.ar   21  TRP21       0.0946
      8  CD2       25.7870   13.5000  -28.8830 C.ar   21  TRP21       0.0152
      9  NE1       25.3600   11.3150  -29.1380 N.ar   21  TRP21      -0.2442
     10  CE2       25.3350   12.5200  -29.7890 C.ar   21  TRP21       0.0810
     11  CE3       25.8550   14.8310  -29.3070 C.ar   21  TRP21       0.0012
     12  CZ2       24.9560   12.8280  -31.0950 C.ar   21  TRP21       0.0191
     13  CZ3       25.4780   15.1350  -30.6030 C.ar   21  TRP21       0.0001
     14  CH2       25.0320   14.1380  -31.4810 C.ar   21  TRP21       0.0015
     15  N         28.2060   15.2240  -38.2370 N.3    29  ILE29      -0.1245
     16  CA        28.3180   16.3640  -37.3240 C.3    29  ILE29       0.1561
     17  C         29.6970   17.0220  -37.3730 C.2    29  ILE29       0.2260
     18  O         29.8470   18.1780  -36.9820 O.2    29  ILE29      -0.2867
     19  CB        28.0440   15.9480  -35.8600 C.3    29  ILE29       0.0252
     20  CG1       26.8050   15.0550  -35.7620 C.3    29  ILE29       0.0019
     21  CG2       27.8930   17.1760  -34.9640 C.3    29  ILE29       0.0019
     22  CD1       25.5410   15.6740  -36.3160 C.3    29  ILE29       0.0001
     23  N         29.8540   19.4950  -26.3860 N.3    86  ILE86      -0.1231
     24  CA        28.4120   19.3160  -26.2840 C.3    86  ILE86       0.1692
     25  C         28.0990   18.6860  -24.9280 C.2    86  ILE86       0.2593
     26  O         29.0010   18.2140  -24.2340 O.2    86  ILE86      -0.2718
     27  CB        27.8720   18.4320  -27.4580 C.3    86  ILE86       0.0266
     28  CG1       26.3390   18.4360  -27.5400 C.3    86  ILE86       0.0019
     29  CG2       28.4040   16.9980  -27.3640 C.3    86  ILE86       0.0020
     30  CD1       25.7490   19.7780  -27.8590 C.3    86  ILE86       0.0001
     31  N         26.8280   18.7100  -24.5420 N.am   87  GLY87      -0.1942
     32  CA        26.3740   18.0330  -23.3440 C.3    87  GLY87       0.2014
     33  C         26.0720   16.5670  -23.5980 C.2    87  GLY87       0.2639
     34  O         26.7280   15.9150  -24.4130 O.2    87  GLY87      -0.2714
     35  N         25.0690   16.0480  -22.8960 N.am   88  GLY88      -0.1954
     36  CA        24.7110   14.6440  -22.9930 C.3    88  GLY88       0.1869
     37  C         23.8390   14.2070  -21.8290 C.2    88  GLY88       0.2309
     38  O         22.7910   14.8020  -21.5820 O.2    88  GLY88      -0.2863
     39  N         28.0900   23.6210  -20.5150 N.3   112  TYR112     -0.1227
     40  CA        26.8350   23.6430  -19.7680 C.3   112  TYR112      0.1736
     41  C         26.0770   22.3270  -19.9040 C.2   112  TYR112      0.2595
     42  O         26.5880   21.3640  -20.4740 O.2   112  TYR112     -0.2718
     43  CB        25.9600   24.8140  -20.2300 C.3   112  TYR112      0.0548
     44  CG        25.3870   24.6780  -21.6210 C.ar  112  TYR112     -0.0200
     45  CD1       26.1460   24.9880  -22.7400 C.ar  112  TYR112     -0.0009
     46  CD2       24.0790   24.2580  -21.8150 C.ar  112  TYR112     -0.0009
     47  CE1       25.6250   24.8700  -24.0110 C.ar  112  TYR112      0.0417
     48  CE2       23.5460   24.1380  -23.0870 C.ar  112  TYR112      0.0417
     49  CZ        24.3270   24.4480  -24.1810 C.ar  112  TYR112      0.1957
     50  OH        23.8130   24.3350  -25.4500 O.3   112  TYR112     -0.2866
     51  N         24.8630   22.2910  -19.3610 N.am  113  ALA113     -0.1966
     52  CA        24.0080   21.1090  -19.4410 C.3   113  ALA113      0.1728
     53  C         24.6540   19.9330  -18.6940 C.2   113  ALA113      0.2616
     54  O         24.9680   20.0580  -17.5080 O.2   113  ALA113     -0.2715
     55  CB        23.7240   20.7550  -20.9040 C.3   113  ALA113      0.0334
     56  N         24.8570   18.8000  -19.3670 N.am  114  ASP114     -0.1971
     57  CA        25.4420   17.6300  -18.7120 C.3   114  ASP114      0.1709
     58  C         26.8710   17.9150  -18.2680 C.2   114  ASP114      0.2293
     59  O         27.4260   17.2110  -17.4200 O.2   114  ASP114     -0.2864
     60  CB        25.4220   16.4110  -19.6350 C.3   114  ASP114      0.1436
     61  CG        25.8600   15.1380  -18.9260 C.2   114  ASP114      0.3671
     62  OD1       25.4080   14.9040  -17.7850 O.co2 114  ASP114     -0.2456
     63  OD2       26.6660   14.3760  -19.4990 O.co2 114  ASP114     -0.2456
     64  N         27.0080   23.9790  -29.9200 N.3   137  THR137     -0.1218
     65  CA        25.7590   24.6980  -29.6990 C.3   137  THR137      0.1862
     66  C         25.8920   26.2160  -29.8550 C.2   137  THR137      0.2287
     67  O         24.9150   26.8810  -30.1930 O.2   137  THR137     -0.2866
     68  CB        25.1830   24.3990  -28.2990 C.3   137  THR137      0.1770
     69  OG1       26.1960   24.5960  -27.3050 O.3   137  THR137     -0.2211
     70  CG2       24.6760   22.9660  -28.2290 C.3   137  THR137      0.0375
     71  N         15.1590   24.2760  -33.5520 N.3   173  ARG173     -0.1231
     72  CA        15.8870   23.0840  -33.9560 C.3   173  ARG173      0.1694
     73  C         16.1780   23.1450  -35.4470 C.2   173  ARG173      0.2592
     74  O         15.2890   22.9550  -36.2740 O.2   173  ARG173     -0.2718
     75  CB        15.1000   21.8160  -33.6130 C.3   173  ARG173      0.0321
     76  CG        15.7620   20.5330  -34.0910 C.3   173  ARG173      0.0489
     77  CD        15.1040   19.2910  -33.5020 C.3   173  ARG173      0.2205
     78  NE        15.8590   18.7690  -32.3650 N.pl3 173  ARG173     -0.0865
     79  CZ        16.9380   17.9970  -32.4670 C.cat 173  ARG173      0.5346
     80  NH1       17.4070   17.6460  -33.6580 N.pl3 173  ARG173      0.1354
     81  NH2       17.5540   17.5750  -31.3730 N.pl3 173  ARG173      0.1354
     82  N         17.4280   23.4450  -35.7750 N.am  174  LEU174     -0.1966
     83  CA        17.9070   23.3870  -37.1480 C.3   174  LEU174      0.1728
     84  C         18.9380   22.2760  -37.2140 C.2   174  LEU174      0.2616
     85  O         20.0020   22.3850  -36.6070 O.2   174  LEU174     -0.2715
     86  CB        18.5110   24.7270  -37.5800 C.3   174  LEU174      0.0311
     87  CG        19.0380   24.8240  -39.0130 C.3   174  LEU174      0.0022
     88  CD1       17.9080   24.6810  -40.0200 C.3   174  LEU174      0.0001
     89  CD2       19.7620   26.1440  -39.2100 C.3   174  LEU174      0.0001
     90  N         18.6080   21.2020  -37.9260 N.am  175  GLU175     -0.1963
     91  CA        19.4420   20.0050  -37.9450 C.3   175  GLU175      0.1733
     92  C         20.8990   20.3390  -38.2380 C.2   175  GLU175      0.2616
     93  O         21.2050   21.1490  -39.1160 O.2   175  GLU175     -0.2715
     94  CB        18.9180   18.9980  -38.9720 C.3   175  GLU175      0.0429
     95  CG        17.5400   18.4330  -38.6400 C.3   175  GLU175      0.1163
     96  CD        17.5070   17.7110  -37.3010 C.2   175  GLU175      0.3649
     97  OE1       18.5730   17.2430  -36.8460 O.co2 175  GLU175     -0.2457
     98  OE2       16.4160   17.6200  -36.7000 O.co2 175  GLU175     -0.2457
     99  N         21.7900   19.7070  -37.4800 N.am  176  TRP176     -0.1974
    100  CA        23.2260   19.9100  -37.6230 C.3   176  TRP176      0.1640
    101  C         23.8050   19.1200  -38.7930 C.2   176  TRP176      0.2290
    102  O         24.7810   18.3860  -38.6340 O.2   176  TRP176     -0.2864
    103  CB        23.9430   19.5120  -36.3300 C.3   176  TRP176      0.0576
    104  CG        23.7240   20.4590  -35.1880 C.ar  176  TRP176      0.0006
    105  CD1       23.1920   21.7150  -35.2510 C.ar  176  TRP176      0.0946
    106  CD2       24.0390   20.2270  -33.8100 C.ar  176  TRP176      0.0152
    107  NE1       23.1570   22.2780  -34.0000 N.ar  176  TRP176     -0.2442
    108  CE2       23.6700   21.3860  -33.0970 C.ar  176  TRP176      0.0810
    109  CE3       24.5960   19.1520  -33.1090 C.ar  176  TRP176      0.0012
    110  CZ2       23.8390   21.5010  -31.7180 C.ar  176  TRP176      0.0191
    111  CZ3       24.7630   19.2680  -31.7390 C.ar  176  TRP176      0.0001
    112  CH2       24.3840   20.4340  -31.0580 C.ar  176  TRP176      0.0015
    113  N         16.7210   21.6540  -19.1260 N.3   238  SER238     -0.1202
    114  CA        17.3170   21.0850  -20.3290 C.3   238  SER238      0.2020
    115  C         16.3320   20.9990  -21.4860 C.2   238  SER238      0.2618
    116  O         15.1870   21.4470  -21.3870 O.2   238  SER238     -0.2717
    117  CB        17.8720   19.6890  -20.0340 C.3   238  SER238      0.2103
    118  OG        16.8240   18.7410  -19.9220 O.3   238  SER238     -0.2182
    119  N         16.7860   20.3970  -22.5800 N.am  239  GLU239     -0.1979
    120  CA        15.9920   20.3220  -23.7950 C.3   239  GLU239      0.1602
    121  C         14.8370   19.3420  -23.6490 C.2   239  GLU239      0.2287
    122  O         13.8820   19.3760  -24.4240 O.2   239  GLU239     -0.2864
    123  CB        16.8670   19.9220  -24.9900 C.3   239  GLU239      0.0415
    124  CG        17.3890   18.4780  -24.9800 C.3   239  GLU239      0.1163
    125  CD        18.5930   18.2800  -24.0760 C.2   239  GLU239      0.3649
    126  OE1       19.1320   19.2840  -23.5640 O.co2 239  GLU239     -0.2457
    127  OE2       19.0050   17.1170  -23.8810 O.co2 239  GLU239     -0.2457
    128  N         14.0640   26.1430  -22.5160 N.3   272  LYS272     -0.1245
    129  CA        14.1400   25.9300  -23.9550 C.3   272  LYS272      0.1561
    130  C         12.7530   26.0930  -24.5590 C.2   272  LYS272      0.2260
    131  O         11.7800   25.5250  -24.0600 O.2   272  LYS272     -0.2867
    132  CB        14.7050   24.5480  -24.2820 C.3   272  LYS272      0.0271
    133  CG        14.8730   24.2930  -25.7760 C.3   272  LYS272      0.0035
    134  CD        15.3270   22.8740  -26.0600 C.3   272  LYS272      0.0206
    135  CE        15.4190   22.6070  -27.5540 C.3   272  LYS272      0.1093
    136  NZ        14.0780   22.6350  -28.2200 N.3   272  LYS272     -0.1314
    137  N         19.5900   26.4210  -22.0280 N.3   304  HIS304     -0.1241
    138  CA        19.4160   25.7750  -23.3240 C.3   304  HIS304      0.1621
    139  C         18.7320   26.6800  -24.3450 C.2   304  HIS304      0.2264
    140  O         17.9210   26.2270  -25.1570 O.2   304  HIS304     -0.2867
    141  CB        18.6310   24.4760  -23.1620 C.3   304  HIS304      0.0745
    142  CG        19.4410   23.3660  -22.5710 C.ar  304  HIS304      0.0817
    143  ND1       19.9620   23.4240  -21.2980 N.ar  304  HIS304     -0.2268
    144  CD2       19.8450   22.1830  -23.0920 C.ar  304  HIS304      0.1154
    145  CE1       20.6430   22.3180  -21.0530 C.ar  304  HIS304      0.1986
    146  NE2       20.5850   21.5480  -22.1240 N.ar  304  HIS304     -0.2212
@<TRIPOS>BOND
     1    88    87    1
     2    89    87    1
     3    93    92    2
     4    87    86    1
     5    94    95    1
     6    94    91    1
     7   101   102    2
     8   101   100    1
     9    95    96    1
    10    92    91    1
    11    92    99   am
    12    15    16    1
    13    91    90    1
    14    90    84   am
    15   100    99    1
    16   100   103    1
    17    86    83    1
    18    17    16    1
    19    17    18    2
    20    16    19    1
    21    96    97   ar
    22    96    98   ar
    23    84    83    1
    24    84    85    2
    25    83    82    1
    26   103   104    1
    27    22    20    1
    28    74    73    2
    29    19    20    1
    30    19    21    1
    31    82    73   am
    32    73    72    1
    33   105   104   ar
    34   105   107   ar
    35   104   106   ar
    36    76    75    1
    37    76    77    1
    38   107   108   ar
    39    72    75    1
    40    72    71    1
    41   106   109   ar
    42   106   108   ar
    43    80    79    1
    44    77    78    1
    45   109   111   ar
    46   108   110   ar
    47    79    78    2
    48    79    81    1
    49   111   112   ar
    50   110   112   ar
    51    14    12   ar
    52    14    13   ar
    53    12    10   ar
    54    13    11   ar
    55    67    66    2
    56    64    65    1
    57    66    65    1
    58    10     9   ar
    59    10     8   ar
    60    65    68    1
    61    11     8   ar
    62     9     7   ar
    63     8     6   ar
    64    68    70    1
    65    68    69    1
    66   136   135    1
    67    30    28    1
    68     7     6   ar
    69     6     5    1
    70   135   134    1
    71    28    27    1
    72    27    29    1
    73    27    24    1
    74     4     3    2
    75     3     2    1
    76     5     2    1
    77    23    24    1
    78    24    25    1
    79   134   133    1
    80     2     1    1
    81   133   132    1
    82    50    49    1
    83   140   139    2
    84   123   124    1
    85   123   120    1
    86   124   125    1
    87    25    31   am
    88    25    26    2
    89   130   131    2
    90   130   129    1
    91    31    32    1
    92   122   121    2
    93    34    33    2
    94   139   138    1
    95   132   129    1
    96    49    47   ar
    97    49    48   ar
    98   125   127   ar
    99   125   126   ar
   100    47    45   ar
   101   129   128    1
   102   120   121    1
   103   120   119    1
   104    33    32    1
   105    33    35   am
   106   138   141    1
   107   138   137    1
   108   141   142    1
   109   144   142   ar
   110   144   146   ar
   111    48    46   ar
   112    36    35    1
   113    36    37    1
   114    45    44   ar
   115   119   115   am
   116   142   143   ar
   117   146   145   ar
   118    37    38    2
   119    46    44   ar
   120    44    43    1
   121   115   116    2
   122   115   114    1
   123   143   145   ar
   124    55    52    1
   125    39    40    1
   126    42    41    2
   127   114   117    1
   128   114   113    1
   129    43    40    1
   130   117   118    1
   131    41    40    1
   132    41    51   am
   133    60    61    1
   134    60    57    1
   135    63    61   ar
   136    52    51    1
   137    52    53    1
   138    56    57    1
   139    56    53   am
   140    61    62   ar
   141    57    58    1
   142    53    54    2
   143    58    59    2
