@<TRIPOS>MOLECULE
tmp/5f60A00.pdb
 150 146 0 0 0
SMALL
GASTEIGER

@<TRIPOS>ATOM
      1  N          4.7000   44.1520   79.6490 N.3    40  TRP40      -0.1228
      2  CA         4.4570   42.8090   80.1860 C.3    40  TRP40       0.1722
      3  C          5.7090   41.9220   80.3660 C.2    40  TRP40       0.2437
      4  O          5.7870   41.2120   81.3580 O.2    40  TRP40      -0.2733
      5  CB         3.3280   42.0840   79.4140 C.3    40  TRP40       0.0563
      6  CG         3.6230   41.8670   77.9720 C.ar   40  TRP40       0.0003
      7  CD1        3.3340   42.7060   76.9240 C.ar   40  TRP40       0.0946
      8  CD2        4.2820   40.7360   77.4090 C.ar   40  TRP40       0.0152
      9  NE1        3.7880   42.1580   75.7470 N.ar   40  TRP40      -0.2442
     10  CE2        4.3730   40.9510   76.0210 C.ar   40  TRP40       0.0810
     11  CE3        4.8250   39.5630   77.9510 C.ar   40  TRP40       0.0012
     12  CZ2        4.9760   40.0260   75.1610 C.ar   40  TRP40       0.0191
     13  CZ3        5.4220   38.6510   77.0940 C.ar   40  TRP40       0.0001
     14  CH2        5.4980   38.8950   75.7240 C.ar   40  TRP40       0.0015
     15  N          6.7210   41.9760   79.4670 N.am   41  PRO41      -0.2718
     16  CA         7.8760   41.0990   79.7070 C.3    41  PRO41       0.1535
     17  C          8.7020   41.5110   80.9220 C.2    41  PRO41       0.2598
     18  O          9.5690   40.7650   81.3460 O.2    41  PRO41      -0.2715
     19  CB         8.7430   41.2880   78.4440 C.3    41  PRO41       0.0310
     20  CG         7.7800   41.7830   77.3910 C.3    41  PRO41       0.0237
     21  CD         6.8540   42.6730   78.1780 C.3    41  PRO41       0.0939
     22  N          8.4400   42.7050   81.4440 N.am   42  PHE42      -0.1974
     23  CA         9.1880   43.3140   82.5340 C.3    42  PHE42       0.1639
     24  C          8.3580   43.4060   83.8230 C.2    42  PHE42       0.2290
     25  O          8.8230   43.9700   84.8030 O.2    42  PHE42      -0.2864
     26  CB         9.6510   44.7260   82.1060 C.3    42  PHE42       0.0560
     27  CG        10.4590   44.7360   80.8490 C.ar   42  PHE42      -0.0200
     28  CD1       11.8190   44.5120   80.8950 C.ar   42  PHE42      -0.0042
     29  CD2        9.8520   44.9270   79.6170 C.ar   42  PHE42      -0.0042
     30  CE1       12.5670   44.4790   79.7370 C.ar   42  PHE42      -0.0003
     31  CE2       10.5900   44.9100   78.4610 C.ar   42  PHE42      -0.0003
     32  CZ        11.9530   44.6700   78.5160 C.ar   42  PHE42      -0.0000
     33  N          7.4130   41.0360   85.8780 N.3    44  GLN44      -0.1245
     34  CA         7.7190   39.9980   86.8580 C.3    44  GLN44       0.1566
     35  C          9.1230   39.4910   86.5580 C.2    44  GLN44       0.2260
     36  O          9.6160   39.6610   85.4490 O.2    44  GLN44      -0.2867
     37  CB         6.7020   38.8420   86.8080 C.3    44  GLN44       0.0367
     38  CG         6.6120   38.1430   85.4560 C.3    44  GLN44       0.0905
     39  CD         5.9300   39.0010   84.3880 C.2    44  GLN44       0.2608
     40  OE1        4.8110   39.4850   84.5950 O.2    44  GLN44      -0.2717
     41  NE2        6.5900   39.1790   83.2370 N.am   44  GLN44      -0.0878
     42  N         12.1070   37.2870   85.2950 N.3    46  VAL46      -0.1245
     43  CA        12.2230   36.3910   84.1530 C.3    46  VAL46       0.1561
     44  C         12.1580   34.9330   84.6340 C.2    46  VAL46       0.2260
     45  O         12.9290   34.5240   85.4870 O.2    46  VAL46      -0.2867
     46  CB        13.5380   36.6450   83.3850 C.3    46  VAL46       0.0252
     47  CG1       13.7930   35.5510   82.3280 C.3    46  VAL46       0.0019
     48  CG2       13.5250   38.0250   82.7440 C.3    46  VAL46       0.0019
     49  N         11.0160   29.9710   79.8000 N.3    51  LEU51      -0.1231
     50  CA        11.5460   30.4890   78.5400 C.3    51  LEU51       0.1693
     51  C         12.7080   29.6680   77.9600 C.2    51  LEU51       0.2592
     52  O         13.2080   29.9840   76.8880 O.2    51  LEU51      -0.2718
     53  CB        12.0010   31.9300   78.7260 C.3    51  LEU51       0.0284
     54  CG        10.8880   32.9010   79.1130 C.3    51  LEU51       0.0019
     55  CD1       11.4590   34.2730   79.3890 C.3    51  LEU51       0.0001
     56  CD2        9.8430   32.9940   78.0290 C.3    51  LEU51       0.0001
     57  N         13.1410   28.6320   78.6740 N.am   52  ASN52      -0.1960
     58  CA        14.2500   27.7870   78.2380 C.3    52  ASN52       0.1819
     59  C         15.5050   28.5980   77.9840 C.2    52  ASN52       0.2621
     60  O         16.1250   28.4900   76.9290 O.2    52  ASN52      -0.2715
     61  CB        13.8620   26.9700   77.0000 C.3    52  ASN52       0.1195
     62  CG        14.8630   25.8770   76.6900 C.2    52  ASN52       0.2630
     63  OD1       15.5590   25.3880   77.5800 O.2    52  ASN52      -0.2716
     64  ND2       14.9480   25.4950   75.4230 N.am   52  ASN52      -0.0877
     65  N         15.8810   29.3940   78.9840 N.am   53  LEU53      -0.1977
     66  CA        17.0940   30.1950   78.9560 C.3    53  LEU53       0.1596
     67  C         17.9550   29.7750   80.1420 C.2    53  LEU53       0.2287
     68  O         18.0710   30.5110   81.1110 O.2    53  LEU53      -0.2864
     69  CB        16.7400   31.6760   79.0890 C.3    53  LEU53       0.0297
     70  CG        15.8250   32.2400   78.0000 C.3    53  LEU53       0.0022
     71  CD1       15.4900   33.6940   78.3110 C.3    53  LEU53       0.0001
     72  CD2       16.4500   32.1050   76.6090 C.3    53  LEU53       0.0001
     73  N         20.3720   32.2920   81.6490 N.3    56  TYR56      -0.1241
     74  CA        19.9360   33.6600   81.9750 C.3    56  TYR56       0.1605
     75  C         20.4960   34.1490   83.3180 C.2    56  TYR56       0.2264
     76  O         21.1430   35.1940   83.3820 O.2    56  TYR56      -0.2867
     77  CB        18.4130   33.7950   81.9520 C.3    56  TYR56       0.0534
     78  CG        17.9850   35.2420   82.1740 C.ar   56  TYR56      -0.0201
     79  CD1       17.9240   36.1400   81.1130 C.ar   56  TYR56      -0.0009
     80  CD2       17.7080   35.7210   83.4470 C.ar   56  TYR56      -0.0009
     81  CE1       17.5690   37.4670   81.3190 C.ar   56  TYR56       0.0417
     82  CE2       17.3590   37.0370   83.6620 C.ar   56  TYR56       0.0417
     83  CZ        17.3050   37.9070   82.6030 C.ar   56  TYR56       0.1957
     84  OH        16.9470   39.2180   82.8680 O.3    56  TYR56      -0.2866
     85  N         17.3910   47.0370   85.5050 N.3    91  MET91      -0.1245
     86  CA        16.4800   46.3010   84.6390 C.3    91  MET91       0.1570
     87  C         16.7760   46.5640   83.1720 C.2    91  MET91       0.2261
     88  O         16.8670   45.6300   82.3650 O.2    91  MET91      -0.2867
     89  CB        15.0260   46.6700   84.9560 C.3    91  MET91       0.0387
     90  CG        13.9990   45.9320   84.1080 C.3    91  MET91       0.0595
     91  SD        12.3160   46.4570   84.4800 S.3    91  MET91      -0.1393
     92  CE        12.2390   47.9640   83.5240 C.3    91  MET91       0.0692
     93  N         18.7270   43.9640   80.3180 N.3    95  CYS95      -0.1235
     94  CA        18.1350   43.6100   79.0340 C.3    95  CYS95       0.1677
     95  C         19.1550   43.7690   77.9000 C.2    95  CYS95       0.2270
     96  O         19.2890   42.9200   77.0270 O.2    95  CYS95      -0.2867
     97  CB        16.9010   44.4650   78.7680 C.3    95  CYS95       0.0956
     98  SG        15.9970   44.0070   77.2810 S.3    95  CYS95      -0.0801
     99  N         22.0000   41.0250   78.0950 N.3    98  TYR98      -0.1227
    100  CA        21.6530   39.6440   77.7750 C.3    98  TYR98       0.1736
    101  C         21.2940   39.4550   76.3020 C.2    98  TYR98       0.2595
    102  O         21.5770   38.4090   75.7260 O.2    98  TYR98      -0.2718
    103  CB        20.5040   39.1390   78.6700 C.3    98  TYR98       0.0548
    104  CG        20.2130   37.6740   78.4180 C.ar   98  TYR98      -0.0200
    105  CD1       21.1030   36.6930   78.8290 C.ar   98  TYR98      -0.0009
    106  CD2       19.1050   37.2840   77.6960 C.ar   98  TYR98      -0.0009
    107  CE1       20.8590   35.3630   78.5730 C.ar   98  TYR98       0.0417
    108  CE2       18.8610   35.9680   77.4260 C.ar   98  TYR98       0.0417
    109  CZ        19.7460   35.0070   77.8620 C.ar   98  TYR98       0.1957
    110  OH        19.4970   33.6900   77.5680 O.3    98  TYR98      -0.2866
    111  N         20.6660   40.4520   75.6930 N.am   99  ASN99      -0.1974
    112  CA        20.0540   40.2910   74.3810 C.3    99  ASN99       0.1688
    113  C         20.8350   40.9550   73.2530 C.2    99  ASN99       0.2292
    114  O         21.8180   41.6460   73.5000 O.2    99  ASN99      -0.2864
    115  CB        18.6230   40.8210   74.4520 C.3    99  ASN99       0.1181
    116  CG        17.7860   40.0360   75.4220 C.2    99  ASN99       0.2629
    117  OD1       17.4260   38.8950   75.1660 O.2    99  ASN99      -0.2716
    118  ND2       17.5180   40.6270   76.5760 N.am   99  ASN99      -0.0877
    119  N         16.8120   43.1740   68.8550 N.3   103  ASP103     -0.1225
    120  CA        15.8400   42.1500   69.2300 C.3   103  ASP103      0.1805
    121  C         14.5730   42.8210   69.7250 C.2   103  ASP103      0.2598
    122  O         14.6360   43.8960   70.3160 O.2   103  ASP103     -0.2718
    123  CB        16.3450   41.2800   70.3760 C.3   103  ASP103      0.1424
    124  CG        17.3570   40.2680   69.9500 C.2   103  ASP103      0.3668
    125  OD1       17.5030   40.0350   68.7320 O.co2 103  ASP103     -0.2456
    126  OD2       17.9950   39.6970   70.8630 O.co2 103  ASP103     -0.2456
    127  N         13.4320   42.1700   69.5350 N.am  104  ASP104     -0.1960
    128  CA        12.1700   42.7090   69.9950 C.3   104  ASP104      0.1840
    129  C         12.2340   43.1090   71.4640 C.2   104  ASP104      0.2621
    130  O         11.7680   44.1760   71.8150 O.2   104  ASP104     -0.2715
    131  CB        11.0410   41.6960   69.7980 C.3   104  ASP104      0.1450
    132  CG        10.4640   41.7080   68.3900 C.2   104  ASP104      0.3671
    133  OD1       10.7270   42.6660   67.6400 O.co2 104  ASP104     -0.2456
    134  OD2        9.7280   40.7640   68.0560 O.co2 104  ASP104     -0.2456
    135  N         12.8280   42.2770   72.3090 N.am  105  ILE105     -0.1977
    136  CA        12.8540   42.5810   73.7420 C.3   105  ILE105      0.1596
    137  C         13.6360   43.8820   74.0120 C.2   105  ILE105      0.2287
    138  O         13.2700   44.6700   74.8920 O.2   105  ILE105     -0.2864
    139  CB        13.3900   41.3870   74.5820 C.3   105  ILE105      0.0276
    140  CG1       13.2030   41.6400   76.0830 C.3   105  ILE105      0.0022
    141  CG2       14.8600   41.1060   74.3080 C.3   105  ILE105      0.0022
    142  CD1       11.7840   41.5650   76.5730 C.3   105  ILE105      0.0001
    143  N         11.5410   46.8440   73.0600 N.3   108  MET108     -0.1245
    144  CA        10.5440   47.0590   74.0980 C.3   108  MET108      0.1570
    145  C         11.1550   47.8010   75.2850 C.2   108  MET108      0.2261
    146  O         10.6080   48.7870   75.7760 O.2   108  MET108     -0.2867
    147  CB         9.9430   45.7160   74.5390 C.3   108  MET108      0.0387
    148  CG         9.1010   45.0780   73.4380 C.3   108  MET108      0.0595
    149  SD         8.6380   43.3630   73.7660 S.3   108  MET108     -0.1393
    150  CE         7.0210   43.6270   74.5080 C.3   108  MET108      0.0692
@<TRIPOS>BOND
     1   133   132   ar
     2   134   132   ar
     3   132   131    1
     4   125   124   ar
     5   119   120    1
     6   120   121    1
     7   120   123    1
     8   127   121   am
     9   127   128    1
    10   121   122    2
    11   131   128    1
    12   124   123    1
    13   124   126   ar
    14   128   129    1
    15   129   130    2
    16   129   135   am
    17   135   136    1
    18   143   144    1
    19   113   114    2
    20   113   112    1
    21   148   149    1
    22   148   147    1
    23   136   137    1
    24   136   139    1
    25   149   150    1
    26   137   138    2
    27   144   147    1
    28   144   145    1
    29   141   139    1
    30   112   115    1
    31   112   111    1
    32   115   116    1
    33   139   140    1
    34    12    14   ar
    35    12    10   ar
    36   117   116    2
    37   145   146    2
    38   116   118   am
    39    64    62   am
    40   111   101   am
    41    14    13   ar
    42   102   101    2
    43     9    10   ar
    44     9     7   ar
    45    10     8   ar
    46   140   142    1
    47   101   100    1
    48    72    70    1
    49    62    61    1
    50    62    63    2
    51    52    51    2
    52     7     6   ar
    53    60    59    2
    54    61    58    1
    55    96    95    2
    56    13    11   ar
    57    98    97    1
    58    20    21    1
    59    20    19    1
    60     8    11   ar
    61     8     6   ar
    62   108   106   ar
    63   108   109   ar
    64   110   109    1
    65   106   104   ar
    66   100    99    1
    67   100   103    1
    68   109   107   ar
    69    95    94    1
    70    51    50    1
    71    51    57   am
    72     6     5    1
    73    59    58    1
    74    59    65   am
    75    70    71    1
    76    70    69    1
    77    56    54    1
    78    21    15    1
    79    58    57    1
    80   104   103    1
    81   104   105   ar
    82    19    16    1
    83    31    32   ar
    84    31    29   ar
    85    32    30   ar
    86    50    53    1
    87    50    49    1
    88   107   105   ar
    89    53    54    1
    90    97    94    1
    91    66    65    1
    92    66    69    1
    93    66    67    1
    94    94    93    1
    95    54    55    1
    96     5     2    1
    97    15    16    1
    98    15     3   am
    99    29    27   ar
   100     1     2    1
   101    16    17    1
   102    30    28   ar
   103    67    68    2
   104     2     3    1
   105     3     4    2
   106    27    28   ar
   107    27    26    1
   108    17    18    2
   109    17    22   am
   110    79    81   ar
   111    79    78   ar
   112    81    83   ar
   113    22    23    1
   114    73    74    1
   115    77    74    1
   116    77    78    1
   117    74    75    1
   118    26    23    1
   119    78    80   ar
   120    47    46    1
   121    88    87    2
   122    23    24    1
   123    83    84    1
   124    83    82   ar
   125    48    46    1
   126    87    86    1
   127    41    39   am
   128    75    76    2
   129    46    43    1
   130    80    82   ar
   131    92    91    1
   132    24    25    2
   133    90    91    1
   134    90    89    1
   135    43    44    1
   136    43    42    1
   137    39    40    2
   138    39    38    1
   139    44    45    2
   140    86    89    1
   141    86    85    1
   142    36    35    2
   143    38    37    1
   144    33    34    1
   145    35    34    1
   146    37    34    1
