@<TRIPOS>MOLECULE
tmp/5f63A00.pdb
 150 146 0 0 0
SMALL
GASTEIGER

@<TRIPOS>ATOM
      1  N          4.5660   -0.1340    0.9620 N.3    40  TRP40      -0.1228
      2  CA         4.3330   -1.4790    1.5070 C.3    40  TRP40       0.1722
      3  C          5.5870   -2.3700    1.6790 C.2    40  TRP40       0.2437
      4  O          5.6730   -3.0800    2.6720 O.2    40  TRP40      -0.2733
      5  CB         3.1890   -2.2040    0.7580 C.3    40  TRP40       0.0563
      6  CG         3.4750   -2.4390   -0.6750 C.ar   40  TRP40       0.0003
      7  CD1        3.2000   -1.6060   -1.7270 C.ar   40  TRP40       0.0946
      8  CD2        4.1360   -3.5740   -1.2210 C.ar   40  TRP40       0.0152
      9  NE1        3.6620   -2.1630   -2.8990 N.ar   40  TRP40      -0.2442
     10  CE2        4.2280   -3.3780   -2.6150 C.ar   40  TRP40       0.0810
     11  CE3        4.6660   -4.7420   -0.6660 C.ar   40  TRP40       0.0012
     12  CZ2        4.8350   -4.3070   -3.4570 C.ar   40  TRP40       0.0191
     13  CZ3        5.2530   -5.6660   -1.5080 C.ar   40  TRP40       0.0001
     14  CH2        5.3320   -5.4430   -2.8790 C.ar   40  TRP40       0.0015
     15  N          6.5860   -2.3120    0.7690 N.am   41  PRO41      -0.2718
     16  CA         7.7540   -3.1740    1.0180 C.3    41  PRO41       0.1535
     17  C          8.5860   -2.7480    2.2150 C.2    41  PRO41       0.2598
     18  O          9.4680   -3.5010    2.6220 O.2    41  PRO41      -0.2715
     19  CB         8.5950   -3.0080   -0.2610 C.3    41  PRO41       0.0310
     20  CG         7.6210   -2.5330   -1.3150 C.3    41  PRO41       0.0237
     21  CD         6.7070   -1.6180   -0.5250 C.3    41  PRO41       0.0939
     22  N          8.3050   -1.5630    2.7480 N.am   42  PHE42      -0.1974
     23  CA         9.0710   -0.9490    3.8180 C.3    42  PHE42       0.1639
     24  C          8.2670   -0.8580    5.1190 C.2    42  PHE42       0.2290
     25  O          8.7470   -0.2990    6.1030 O.2    42  PHE42      -0.2864
     26  CB         9.5050    0.4610    3.3880 C.3    42  PHE42       0.0560
     27  CG        10.3170    0.4730    2.1280 C.ar   42  PHE42      -0.0200
     28  CD1       11.6800    0.2650    2.1720 C.ar   42  PHE42      -0.0042
     29  CD2        9.7120    0.6740    0.8960 C.ar   42  PHE42      -0.0042
     30  CE1       12.4360    0.2550    1.0130 C.ar   42  PHE42      -0.0003
     31  CE2       10.4600    0.6590   -0.2610 C.ar   42  PHE42      -0.0003
     32  CZ        11.8160    0.4430   -0.2090 C.ar   42  PHE42      -0.0000
     33  N          7.3660   -3.2420    7.1790 N.3    44  GLN44      -0.1245
     34  CA         7.6850   -4.2740    8.1550 C.3    44  GLN44       0.1566
     35  C          9.0670   -4.8020    7.8510 C.2    44  GLN44       0.2260
     36  O          9.5700   -4.6010    6.7590 O.2    44  GLN44      -0.2867
     37  CB         6.6620   -5.4140    8.1010 C.3    44  GLN44       0.0367
     38  CG         6.5840   -6.1050    6.7530 C.3    44  GLN44       0.0905
     39  CD         5.9100   -5.2680    5.6930 C.2    44  GLN44       0.2608
     40  OE1        4.7920   -4.8080    5.8950 O.2    44  GLN44      -0.2717
     41  NE2        6.6010   -5.0430    4.5620 N.am   44  GLN44      -0.0878
     42  N         12.0730   -6.9910    6.5850 N.3    46  VAL46      -0.1245
     43  CA        12.1960   -7.9020    5.4600 C.3    46  VAL46       0.1561
     44  C         12.1480   -9.3520    5.9530 C.2    46  VAL46       0.2260
     45  O         12.9390   -9.7590    6.8070 O.2    46  VAL46      -0.2867
     46  CB        13.4970   -7.6260    4.6720 C.3    46  VAL46       0.0252
     47  CG1       13.7750   -8.7280    3.6160 C.3    46  VAL46       0.0019
     48  CG2       13.4430   -6.2420    4.0190 C.3    46  VAL46       0.0019
     49  N         10.9370  -14.3420    1.1770 N.3    51  LEU51      -0.1231
     50  CA        11.3970  -13.7630   -0.0880 C.3    51  LEU51       0.1693
     51  C         12.5610  -14.5270   -0.7090 C.2    51  LEU51       0.2592
     52  O         13.0380  -14.1600   -1.7800 O.2    51  LEU51      -0.2718
     53  CB        11.8000  -12.3080    0.1120 C.3    51  LEU51       0.0284
     54  CG        10.6500  -11.3930    0.5310 C.3    51  LEU51       0.0019
     55  CD1       11.1720  -10.0120    0.8480 C.3    51  LEU51       0.0001
     56  CD2        9.5960  -11.2990   -0.5490 C.3    51  LEU51       0.0001
     57  N         13.0260  -15.5590   -0.0140 N.am   52  ASN52      -0.1960
     58  CA        14.1500  -16.3760   -0.4550 C.3    52  ASN52       0.1819
     59  C         15.4080  -15.5550   -0.7060 C.2    52  ASN52       0.2621
     60  O         16.0120  -15.6400   -1.7780 O.2    52  ASN52      -0.2715
     61  CB        13.7820  -17.1990   -1.6900 C.3    52  ASN52       0.1195
     62  CG        14.8390  -18.2440   -2.0240 C.2    52  ASN52       0.2630
     63  OD1       15.6350  -18.6410   -1.1680 O.2    52  ASN52      -0.2716
     64  ND2       14.8650  -18.6740   -3.2770 N.am   52  ASN52      -0.0877
     65  N         15.7830  -14.7600    0.2940 N.am   53  LEU53      -0.1977
     66  CA        16.9940  -13.9420    0.2550 C.3    53  LEU53       0.1596
     67  C         17.9220  -14.3610    1.3920 C.2    53  LEU53       0.2287
     68  O         18.0830  -13.6380    2.3780 O.2    53  LEU53      -0.2864
     69  CB        16.6500  -12.4670    0.4310 C.3    53  LEU53       0.0297
     70  CG        15.5650  -11.8950   -0.4770 C.3    53  LEU53       0.0022
     71  CD1       15.2280  -10.4730   -0.0320 C.3    53  LEU53       0.0001
     72  CD2       16.0120  -11.9110   -1.9170 C.3    53  LEU53       0.0001
     73  N         20.3770  -11.8190    2.8240 N.3    56  TYR56      -0.1241
     74  CA        19.9200  -10.4680    3.1770 C.3    56  TYR56       0.1605
     75  C         20.4860   -9.9800    4.5100 C.2    56  TYR56       0.2264
     76  O         21.1040   -8.9120    4.5750 O.2    56  TYR56      -0.2867
     77  CB        18.3790  -10.3440    3.1860 C.3    56  TYR56       0.0534
     78  CG        17.9510   -8.8980    3.4320 C.ar   56  TYR56      -0.0201
     79  CD1       17.8580   -7.9890    2.3850 C.ar   56  TYR56      -0.0009
     80  CD2       17.7150   -8.4320    4.7140 C.ar   56  TYR56      -0.0009
     81  CE1       17.5090   -6.6710    2.6080 C.ar   56  TYR56       0.0417
     82  CE2       17.3800   -7.1110    4.9450 C.ar   56  TYR56       0.0417
     83  CZ        17.2800   -6.2360    3.8900 C.ar   56  TYR56       0.1957
     84  OH        16.9440   -4.9270    4.1550 O.3    56  TYR56      -0.2866
     85  N         17.2430    2.8560    6.7550 N.3    91  MET91      -0.1245
     86  CA        16.3270    2.1190    5.8910 C.3    91  MET91       0.1570
     87  C         16.6330    2.3810    4.4250 C.2    91  MET91       0.2261
     88  O         16.7360    1.4370    3.6360 O.2    91  MET91      -0.2867
     89  CB        14.8780    2.4940    6.2060 C.3    91  MET91       0.0387
     90  CG        13.8620    1.7420    5.3820 C.3    91  MET91       0.0595
     91  SD        12.1760    2.2410    5.7540 S.3    91  MET91      -0.1393
     92  CE        12.0880    3.7760    4.8110 C.3    91  MET91       0.0692
     93  N         18.5700   -0.1980    1.5460 N.3    95  CYS95      -0.1235
     94  CA        17.9770   -0.5540    0.2700 C.3    95  CYS95       0.1677
     95  C         18.9870   -0.3990   -0.8570 C.2    95  CYS95       0.2270
     96  O         19.1180   -1.2650   -1.7180 O.2    95  CYS95      -0.2867
     97  CB        16.7450    0.3130    0.0010 C.3    95  CYS95       0.0956
     98  SG        15.8250   -0.1720   -1.4600 S.3    95  CYS95      -0.0801
     99  N         21.8540   -3.1560   -0.6140 N.3    98  TYR98      -0.1227
    100  CA        21.5360   -4.5370   -0.9490 C.3    98  TYR98       0.1736
    101  C         21.2050   -4.7180   -2.4240 C.2    98  TYR98       0.2595
    102  O         21.5240   -5.7470   -3.0190 O.2    98  TYR98      -0.2718
    103  CB        20.3770   -5.0460   -0.0820 C.3    98  TYR98       0.0548
    104  CG        20.0810   -6.4980   -0.3480 C.ar   98  TYR98      -0.0200
    105  CD1       20.9620   -7.4990    0.0480 C.ar   98  TYR98      -0.0009
    106  CD2       18.9570   -6.8720   -1.0620 C.ar   98  TYR98      -0.0009
    107  CE1       20.6910   -8.8170   -0.2190 C.ar   98  TYR98       0.0417
    108  CE2       18.6850   -8.1770   -1.3270 C.ar   98  TYR98       0.0417
    109  CZ        19.5490   -9.1510   -0.9130 C.ar   98  TYR98       0.1957
    110  OH        19.2710  -10.4610   -1.2290 O.3    98  TYR98      -0.2866
    111  N         20.5520   -3.7300   -3.0180 N.am   99  ASN99      -0.1974
    112  CA        19.9420   -3.9080   -4.3260 C.3    99  ASN99       0.1688
    113  C         20.7470   -3.2890   -5.4610 C.2    99  ASN99       0.2292
    114  O         21.7720   -2.6610   -5.2200 O.2    99  ASN99      -0.2864
    115  CB        18.5190   -3.3590   -4.2780 C.3    99  ASN99       0.1181
    116  CG        17.6490   -4.1340   -3.3150 C.2    99  ASN99       0.2629
    117  OD1       17.2480   -5.2680   -3.6030 O.2    99  ASN99      -0.2716
    118  ND2       17.3950   -3.5540   -2.1400 N.am   99  ASN99      -0.0877
    119  N         16.6110   -1.1150   -9.9020 N.3   103  ASP103     -0.1225
    120  CA        15.6510   -2.1320   -9.4820 C.3   103  ASP103      0.1805
    121  C         14.3730   -1.4670   -8.9940 C.2   103  ASP103      0.2598
    122  O         14.4190   -0.3700   -8.4450 O.2   103  ASP103     -0.2718
    123  CB        16.1930   -2.9710   -8.3290 C.3   103  ASP103      0.1424
    124  CG        17.2050   -3.9960   -8.7630 C.2   103  ASP103      0.3668
    125  OD1       17.3540   -4.2420   -9.9900 O.co2 103  ASP103     -0.2456
    126  OD2       17.8430   -4.5620   -7.8400 O.co2 103  ASP103     -0.2456
    127  N         13.2440   -2.1540   -9.1430 N.am  104  ASP104     -0.1960
    128  CA        11.9670   -1.6130   -8.7050 C.3   104  ASP104      0.1840
    129  C         12.0360   -1.1750   -7.2440 C.2   104  ASP104      0.2621
    130  O         11.5530   -0.1070   -6.9070 O.2   104  ASP104     -0.2715
    131  CB        10.8320   -2.6240   -8.8870 C.3   104  ASP104      0.1450
    132  CG        10.3080   -2.6830  -10.3130 C.2   104  ASP104      0.3671
    133  OD1       10.4970   -1.7210  -11.0870 O.co2 104  ASP104     -0.2456
    134  OD2        9.6910   -3.7120  -10.6420 O.co2 104  ASP104     -0.2456
    135  N         12.6270   -1.9920   -6.3800 N.am  105  ILE105     -0.1977
    136  CA        12.6640   -1.6540   -4.9560 C.3   105  ILE105      0.1596
    137  C         13.4560   -0.3630   -4.6990 C.2   105  ILE105      0.2287
    138  O         13.1060    0.4330   -3.8230 O.2   105  ILE105     -0.2864
    139  CB        13.2010   -2.8420   -4.1080 C.3   105  ILE105      0.0276
    140  CG1       13.0180   -2.5890   -2.6150 C.3   105  ILE105      0.0022
    141  CG2       14.6680   -3.1220   -4.3870 C.3   105  ILE105      0.0022
    142  CD1       11.5910   -2.6220   -2.1620 C.3   105  ILE105      0.0001
    143  N         11.3280    2.5830   -5.6470 N.3   108  MET108     -0.1245
    144  CA        10.3400    2.7900   -4.6040 C.3   108  MET108      0.1570
    145  C         10.9500    3.5440   -3.4410 C.2   108  MET108      0.2261
    146  O         10.3910    4.5400   -2.9750 O.2   108  MET108     -0.2867
    147  CB         9.7710    1.4460   -4.1680 C.3   108  MET108      0.0387
    148  CG         8.9250    0.8000   -5.2640 C.3   108  MET108      0.0595
    149  SD         8.4920   -0.9230   -4.9060 S.3   108  MET108     -0.1393
    150  CE         6.8570   -0.7030   -4.1950 C.3   108  MET108      0.0692
@<TRIPOS>BOND
     1   133   132   ar
     2   134   132   ar
     3   132   131    1
     4   125   124   ar
     5   119   120    1
     6   120   121    1
     7   120   123    1
     8   127   121   am
     9   127   128    1
    10   121   122    2
    11   131   128    1
    12   124   123    1
    13   124   126   ar
    14   128   129    1
    15   129   130    2
    16   129   135   am
    17   135   136    1
    18   143   144    1
    19   113   114    2
    20   113   112    1
    21   148   149    1
    22   148   147    1
    23   136   137    1
    24   136   139    1
    25   149   150    1
    26   137   138    2
    27   144   147    1
    28   144   145    1
    29   141   139    1
    30   112   115    1
    31   112   111    1
    32   115   116    1
    33   139   140    1
    34   117   116    2
    35    12    14   ar
    36    12    10   ar
    37   145   146    2
    38   116   118   am
    39    64    62   am
    40   102   101    2
    41   111   101   am
    42     9    10   ar
    43     9     7   ar
    44    14    13   ar
    45   140   142    1
    46    10     8   ar
    47   101   100    1
    48    62    61    1
    49    62    63    2
    50    72    70    1
    51    52    51    2
    52    60    59    2
    53     7     6   ar
    54    96    95    2
    55    61    58    1
    56    13    11   ar
    57    98    97    1
    58   108   106   ar
    59   108   109   ar
    60    20    21    1
    61    20    19    1
    62   110   109    1
    63     8     6   ar
    64     8    11   ar
    65   106   104   ar
    66   100    99    1
    67   100   103    1
    68   109   107   ar
    69    95    94    1
    70    51    50    1
    71    51    57   am
    72    59    58    1
    73    59    65   am
    74     6     5    1
    75    56    54    1
    76    21    15    1
    77    70    71    1
    78    70    69    1
    79    58    57    1
    80   104   103    1
    81   104   105   ar
    82    19    16    1
    83    31    32   ar
    84    31    29   ar
    85   107   105   ar
    86    32    30   ar
    87    50    53    1
    88    50    49    1
    89    97    94    1
    90    53    54    1
    91    66    65    1
    92    66    69    1
    93    66    67    1
    94    94    93    1
    95    54    55    1
    96     5     2    1
    97    15    16    1
    98    15     3   am
    99    29    27   ar
   100     1     2    1
   101    30    28   ar
   102    16    17    1
   103    67    68    2
   104     2     3    1
   105     3     4    2
   106    27    28   ar
   107    27    26    1
   108    17    18    2
   109    17    22   am
   110    79    81   ar
   111    79    78   ar
   112    81    83   ar
   113    22    23    1
   114    73    74    1
   115    74    77    1
   116    74    75    1
   117    77    78    1
   118    26    23    1
   119    78    80   ar
   120    47    46    1
   121    88    87    2
   122    23    24    1
   123    83    84    1
   124    83    82   ar
   125    48    46    1
   126    87    86    1
   127    75    76    2
   128    41    39   am
   129    46    43    1
   130    80    82   ar
   131    92    91    1
   132    24    25    2
   133    90    91    1
   134    90    89    1
   135    43    44    1
   136    43    42    1
   137    39    40    2
   138    39    38    1
   139    86    89    1
   140    86    85    1
   141    44    45    2
   142    38    37    1
   143    36    35    2
   144    33    34    1
   145    35    34    1
   146    37    34    1
