@<TRIPOS>MOLECULE
tmp/5f6cA00.pdb
 146 135 0 0 0
SMALL
GASTEIGER

@<TRIPOS>ATOM
      1  N        123.6380 -115.9960   30.5960 N.3   123  SER123     -0.1217
      2  CA       123.4060 -114.8240   29.7560 C.3   123  SER123      0.1889
      3  C        123.5160 -113.5760   30.6190 C.2   123  SER123      0.2288
      4  O        122.8170 -113.4550   31.6340 O.2   123  SER123     -0.2866
      5  CB       122.0320 -114.8940   29.0350 C.3   123  SER123      0.2089
      6  OG       120.9370 -115.1030   29.9220 O.3   123  SER123     -0.2183
      7  N        123.1970 -109.5750   30.1870 N.3   125  ALA125     -0.1245
      8  CA       122.6920 -108.5650   29.2730 C.3   125  ALA125      0.1562
      9  C        123.1320 -107.1650   29.6640 C.2   125  ALA125      0.2260
     10  O        123.4100 -106.8720   30.8290 O.2   125  ALA125     -0.2867
     11  CB       121.1690 -108.5980   29.2240 C.3   125  ALA125      0.0290
     12  N        124.4020 -108.6490   24.7370 N.3   130  VAL130     -0.1245
     13  CA       124.1370 -109.7820   25.6100 C.3   130  VAL130      0.1561
     14  C        125.2560 -110.7870   25.3940 C.2   130  VAL130      0.2260
     15  O        125.2870 -111.4540   24.3520 O.2   130  VAL130     -0.2867
     16  CB       122.7990 -110.4460   25.2660 C.3   130  VAL130      0.0252
     17  CG1      122.5610 -111.6860   26.1170 C.3   130  VAL130      0.0019
     18  CG2      121.6540 -109.4630   25.3440 C.3   130  VAL130      0.0019
     19  N        126.8190 -114.2880   26.1270 N.3   132  MET132     -0.1245
     20  CA       126.6540 -115.6020   26.7360 C.3   132  MET132      0.1570
     21  C        128.0390 -116.2320   26.7120 C.2   132  MET132      0.2261
     22  O        128.5100 -116.6250   25.6420 O.2   132  MET132     -0.2867
     23  CB       125.6530 -116.4800   25.9870 C.3   132  MET132      0.0387
     24  CG       124.7120 -115.8440   24.9320 C.3   132  MET132      0.0595
     25  SD       123.1030 -116.2950   25.4900 S.3   132  MET132     -0.1393
     26  CE       122.4150 -117.4100   24.2840 C.3   132  MET132      0.0692
     27  N        124.9360 -119.9080   20.1540 N.3   138  ALA138     -0.1231
     28  CA       124.0330 -118.7630   20.1230 C.3   138  ALA138      0.1694
     29  C        124.7770 -117.4560   19.9350 C.2   138  ALA138      0.2593
     30  O        125.6060 -117.0710   20.7570 O.2   138  ALA138     -0.2718
     31  CB       123.2260 -118.7090   21.4150 C.3   138  ALA138      0.0304
     32  N        124.4330 -116.7560   18.8730 N.am  139  GLY139     -0.1942
     33  CA       124.9330 -115.4300   18.6150 C.3   139  GLY139      0.2014
     34  C        124.1820 -114.8600   17.4350 C.2   139  GLY139      0.2639
     35  O        123.7240 -115.6170   16.5720 O.2   139  GLY139     -0.2714
     36  N        124.0280 -113.5430   17.3950 N.am  140  GLY140     -0.1939
     37  CA       123.3190 -112.9230   16.2960 C.3   140  GLY140      0.2014
     38  C        123.2960 -111.4150   16.3990 C.2   140  GLY140      0.2639
     39  O        124.1320 -110.8060   17.0640 O.2   140  GLY140     -0.2714
     40  N        122.3440 -110.8160   15.6850 N.am  141  ILE141     -0.1963
     41  CA       121.9980 -109.4080   15.8320 C.3   141  ILE141      0.1727
     42  C        120.4950 -109.3440   15.9700 C.2   141  ILE141      0.2617
     43  O        119.7790 -110.1150   15.3240 O.2   141  ILE141     -0.2715
     44  CB       122.4450 -108.5260   14.6530 C.3   141  ILE141      0.0290
     45  CG1      123.9730 -108.4860   14.5690 C.3   141  ILE141      0.0022
     46  CG2      121.8640 -107.1170   14.8180 C.3   141  ILE141      0.0023
     47  CD1      124.5140 -107.7240   13.3650 C.3   141  ILE141      0.0001
     48  N        120.0240 -108.4210   16.8070 N.am  142  SER142     -0.1936
     49  CA       118.6140 -108.3540   17.1610 C.3   142  SER142      0.2055
     50  C        117.7940 -108.2940   15.8960 C.2   142  SER142      0.2643
     51  O        118.2130 -107.6950   14.9000 O.2   142  SER142     -0.2714
     52  CB       118.3290 -107.1230   18.0200 C.3   142  SER142      0.2130
     53  OG       116.9670 -107.0830   18.3820 O.3   142  SER142     -0.2179
     54  N        116.6070 -108.8630   15.9360 N.am  143  ARG143     -0.1963
     55  CA       115.7510 -108.8680   14.7610 C.3   143  ARG143      0.1729
     56  C        115.3710 -107.4740   14.2610 C.2   143  ARG143      0.2616
     57  O        115.3070 -107.2400   13.0640 O.2   143  ARG143     -0.2715
     58  CB       114.4690 -109.6480   15.0500 C.3   143  ARG143      0.0348
     59  CG       114.7080 -111.0170   15.6550 C.3   143  ARG143      0.0492
     60  CD       114.1880 -112.1310   14.7560 C.3   143  ARG143      0.2205
     61  NE       114.2460 -113.4370   15.4100 N.pl3 143  ARG143     -0.0865
     62  CZ       113.2430 -113.9710   16.0980 C.cat 143  ARG143      0.5346
     63  NH1      112.0940 -113.3260   16.2150 N.pl3 143  ARG143      0.1354
     64  NH2      113.3860 -115.1560   16.6660 N.pl3 143  ARG143      0.1354
     65  N        115.1370 -106.5460   15.1720 N.am  144  ARG144     -0.1977
     66  CA       114.6870 -105.2160   14.8030 C.3   144  ARG144      0.1597
     67  C        115.6170 -104.4900   13.8710 C.2   144  ARG144      0.2287
     68  O        115.1760 -103.6830   13.0760 O.2   144  ARG144     -0.2864
     69  CB       114.4250 -104.3800   16.0360 C.3   144  ARG144      0.0334
     70  CG       112.9570 -104.3460   16.3980 C.3   144  ARG144      0.0492
     71  CD       112.6190 -105.1720   17.6340 C.3   144  ARG144      0.2205
     72  NE       111.5020 -104.5860   18.3740 N.pl3 144  ARG144     -0.0865
     73  CZ       110.8200 -105.1960   19.3350 C.cat 144  ARG144      0.5346
     74  NH1      111.1270 -106.4280   19.7020 N.pl3 144  ARG144      0.1354
     75  NH2      109.8240 -104.5660   19.9350 N.pl3 144  ARG144      0.1354
     76  N        122.3820 -103.0440    9.5740 N.3   150  ARG150     -0.1245
     77  CA       122.8310 -104.3950    9.8590 C.3   150  ARG150      0.1563
     78  C        124.1990 -104.6030    9.2670 C.2   150  ARG150      0.2260
     79  O        125.0700 -105.1470    9.9250 O.2   150  ARG150     -0.2867
     80  CB       121.8580 -105.4520    9.3370 C.3   150  ARG150      0.0307
     81  CG       120.7640 -105.8320   10.3320 C.3   150  ARG150      0.0489
     82  CD       120.3900 -107.3140   10.2760 C.3   150  ARG150      0.2205
     83  NE       119.2330 -107.6450   11.1160 N.pl3 150  ARG150     -0.0865
     84  CZ       118.7880 -108.8790   11.3400 C.cat 150  ARG150      0.5346
     85  NH1      119.3870 -109.9150   10.7910 N.pl3 150  ARG150      0.1354
     86  NH2      117.7410 -109.0850   12.1180 N.pl3 150  ARG150      0.1354
     87  N        126.8990 -105.3320   11.7330 N.3   154  LYS154     -0.1245
     88  CA       127.6050 -106.6110   11.7170 C.3   154  LYS154      0.1561
     89  C        129.0570 -106.4600   11.2530 C.2   154  LYS154      0.2260
     90  O        129.8520 -107.3850   11.4590 O.2   154  LYS154     -0.2867
     91  CB       126.8720 -107.6680   10.8600 C.3   154  LYS154      0.0271
     92  CG       127.6170 -109.0290   10.9360 C.3   154  LYS154      0.0035
     93  CD       126.9180 -110.2770   10.3390 C.3   154  LYS154      0.0206
     94  CE       126.3670 -111.2050   11.4090 C.3   154  LYS154      0.1093
     95  NZ       127.5530 -111.7190   12.1900 N.3   154  LYS154     -0.1314
     96  N        125.3510 -111.5090   21.4540 N.3   169  ILE169     -0.1245
     97  CA       124.1820 -111.0010   20.7270 C.3   169  ILE169      0.1561
     98  C        124.2210 -109.4770   20.7890 C.2   169  ILE169      0.2260
     99  O        124.5290 -108.9180   21.8470 O.2   169  ILE169     -0.2867
    100  CB       122.8590 -111.5090   21.3560 C.3   169  ILE169      0.0252
    101  CG1      122.7270 -113.0230   21.2350 C.3   169  ILE169      0.0019
    102  CG2      121.6430 -110.8260   20.7430 C.3   169  ILE169      0.0019
    103  CD1      121.5230 -113.5890   21.9430 C.3   169  ILE169      0.0001
    104  N        121.9770 -105.9200   20.5990 N.3   171  ARG171     -0.1231
    105  CA       120.6090 -105.6730   21.0440 C.3   171  ARG171      0.1694
    106  C        119.9350 -104.5240   20.2900 C.2   171  ARG171      0.2593
    107  O        120.5830 -103.6830   19.6560 O.2   171  ARG171     -0.2718
    108  CB       120.5540 -105.4110   22.5570 C.3   171  ARG171      0.0321
    109  CG       120.4890 -106.6430   23.4150 C.3   171  ARG171      0.0489
    110  CD       120.7010 -106.2530   24.8250 C.3   171  ARG171      0.2205
    111  NE       119.9340 -105.0750   25.2270 N.pl3 171  ARG171     -0.0865
    112  CZ       118.7520 -105.0830   25.8130 C.cat 171  ARG171      0.5346
    113  NH1      118.1590 -106.2180   26.1310 N.pl3 171  ARG171      0.1354
    114  NH2      118.1910 -103.9190   26.1140 N.pl3 171  ARG171      0.1354
    115  N        118.5950 -104.5130   20.3840 N.am  172  THR172     -0.1939
    116  CA       117.7660 -103.5240   19.6940 C.3   172  THR172      0.2028
    117  C        118.4180 -102.1410   19.7460 C.2   172  THR172      0.2642
    118  O        118.5440 -101.4560   18.7260 O.2   172  THR172     -0.2714
    119  CB       116.3450 -103.4870   20.3140 C.3   172  THR172      0.1808
    120  OG1      115.7240 -104.7940   20.3050 O.3   172  THR172     -0.2208
    121  CG2      115.4540 -102.5530   19.5250 C.3   172  THR172      0.0379
    122  N        118.8530 -101.7380   20.9510 N.am  173  ALA173     -0.1977
    123  CA       119.4700 -100.4530   21.2660 C.3   173  ALA173      0.1597
    124  C        120.9340 -100.3460   20.8150 C.2   173  ALA173      0.2287
    125  O        121.6650  -99.5060   21.3560 O.2   173  ALA173     -0.2864
    126  CB       119.3780 -100.2000   22.7790 C.3   173  ALA173      0.0319
    127  N        114.6340 -100.8520   27.1370 N.3   375  ARG375     -0.1245
    128  CA       114.3310 -100.8020   25.7170 C.3   375  ARG375      0.1563
    129  C        113.1450  -99.8680   25.4720 C.2   375  ARG375      0.2260
    130  O        112.1950  -99.8180   26.2430 O.2   375  ARG375     -0.2867
    131  CB       114.0710 -102.1950   25.1460 C.3   375  ARG375      0.0307
    132  CG       113.6390 -102.1480   23.6650 C.3   375  ARG375      0.0489
    133  CD       113.6510 -103.4700   22.9320 C.3   375  ARG375      0.2205
    134  NE       113.0200 -104.5300   23.7000 N.pl3 375  ARG375     -0.0865
    135  CZ       111.7190 -104.6470   23.9290 C.cat 375  ARG375      0.5346
    136  NH1      111.2960 -105.6730   24.6530 N.pl3 375  ARG375      0.1354
    137  NH2      110.8570 -103.7250   23.4940 N.pl3 375  ARG375      0.1354
    138  N        110.1800 -101.3490   28.1630 N.3   392  GLN392     -0.1245
    139  CA       110.4020 -102.6750   28.6950 C.3   392  GLN392      0.1566
    140  C        110.1030 -102.6390   30.1750 C.2   392  GLN392      0.2260
    141  O        110.5410 -101.7210   30.8800 O.2   392  GLN392     -0.2867
    142  CB       111.8180 -103.0650   28.3800 C.3   392  GLN392      0.0367
    143  CG       112.3690 -104.4140   28.7770 C.3   392  GLN392      0.0905
    144  CD       113.7040 -104.6650   28.0310 C.2   392  GLN392      0.2608
    145  OE1      113.8340 -104.3610   26.8360 O.2   392  GLN392     -0.2717
    146  NE2      114.7380 -105.0040   28.7800 N.am  392  GLN392     -0.0878
@<TRIPOS>BOND
     1    78    77    1
     2    78    79    2
     3    80    77    1
     4    80    81    1
     5    76    77    1
     6    82    81    1
     7    82    83    1
     8    93    92    1
     9    93    94    1
    10    85    84    1
    11    91    92    1
    12    91    88    1
    13    83    84    2
    14    89    90    2
    15    89    88    1
    16    84    86    1
    17    94    95    1
    18    88    87    1
    19    57    56    2
    20    68    67    2
    21    47    45    1
    22    67    66    1
    23    56    55    1
    24    56    65   am
    25    45    44    1
    26    44    46    1
    27    44    41    1
    28    60    61    1
    29    60    59    1
    30    55    58    1
    31    55    54    1
    32    66    65    1
    33    66    69    1
    34    51    50    2
    35    58    59    1
    36    43    42    2
    37    61    62    2
    38    40    41    1
    39    40    38   am
    40    41    42    1
    41    50    54   am
    42    50    49    1
    43    42    48   am
    44    69    70    1
    45    62    63    1
    46    62    64    1
    47    37    38    1
    48    37    36    1
    49    70    71    1
    50    38    39    2
    51    35    34    2
    52    48    49    1
    53    49    52    1
    54    36    34   am
    55    34    33    1
    56    71    72    1
    57    52    53    1
    58    72    73    2
    59    33    32    1
    60   118   117    2
    61    32    29   am
    62    73    74    1
    63    73    75    1
    64   121   119    1
    65   107   106    2
    66   116   117    1
    67   116   119    1
    68   116   115    1
    69   117   122   am
    70    29    28    1
    71    29    30    2
    72    28    27    1
    73    28    31    1
    74   106   115   am
    75   106   105    1
    76   120   119    1
    77   104   105    1
    78    97    98    1
    79    97   100    1
    80    97    96    1
    81   102   100    1
    82    98    99    2
    83   124   123    1
    84   124   125    2
    85   122   123    1
    86   105   108    1
    87   101   100    1
    88   101   103    1
    89   123   126    1
    90   108   109    1
    91   133   132    1
    92   133   134    1
    93   109   110    1
    94   137   135    1
    95   132   131    1
    96   134   135    2
    97   135   136    1
    98    26    25    1
    99    15    14    2
   100    12    13    1
   101   110   111    1
   102    24    25    1
   103    24    23    1
   104   131   128    1
   105   111   112    2
   106    16    18    1
   107    16    13    1
   108    16    17    1
   109    14    13    1
   110   129   128    1
   111   129   130    2
   112    22    21    2
   113   128   127    1
   114   112   114    1
   115   112   113    1
   116    23    20    1
   117    19    20    1
   118    21    20    1
   119   145   144    2
   120   144   143    1
   121   144   146   am
   122   138   139    1
   123   142   139    1
   124   142   143    1
   125   139   140    1
   126     5     2    1
   127     5     6    1
   128    11     8    1
   129     8     9    1
   130     8     7    1
   131     9    10    2
   132     2     1    1
   133     2     3    1
   134   140   141    2
   135     3     4    2
