@<TRIPOS>MOLECULE
tmp/5f6cB00.pdb
 126 118 0 0 0
SMALL
GASTEIGER

@<TRIPOS>ATOM
      1  N         66.7790  -76.0870    4.9450 N.3   122  SER122     -0.1217
      2  CA        67.6700  -77.2320    4.9530 C.3   122  SER122      0.1889
      3  C         67.0920  -78.2670    5.9160 C.2   122  SER122      0.2288
      4  O         66.7590  -77.9480    7.0620 O.2   122  SER122     -0.2866
      5  CB        69.0890  -76.7800    5.3130 C.3   122  SER122      0.2089
      6  OG        69.1050  -75.8880    6.4280 O.3   122  SER122     -0.2183
      7  N         68.1600  -81.6320    7.3430 N.3   124  ALA124     -0.1245
      8  CA        69.1680  -82.6730    7.5940 C.3   124  ALA124      0.1562
      9  C         68.5870  -83.9800    8.1090 C.2   124  ALA124      0.2260
     10  O         68.0710  -84.0290    9.2200 O.2   124  ALA124     -0.2867
     11  CB        70.2040  -82.2130    8.6140 C.3   124  ALA124      0.0290
     12  N         71.5350  -83.8320    3.5340 N.3   129  VAL129     -0.1245
     13  CA        70.8820  -82.5650    3.8620 C.3   129  VAL129      0.1561
     14  C         70.1810  -82.1000    2.5880 C.2   129  VAL129      0.2260
     15  O         70.8240  -81.4860    1.7280 O.2   129  VAL129     -0.2867
     16  CB        71.8890  -81.5070    4.3200 C.3   129  VAL129      0.0252
     17  CG1       71.2010  -80.2220    4.7250 C.3   129  VAL129      0.0019
     18  CG2       72.7620  -82.0340    5.4120 C.3   129  VAL129      0.0019
     19  N         68.0030  -79.6180    0.3170 N.3   131  MET131     -0.1245
     20  CA        67.8970  -78.1610    0.3450 C.3   131  MET131      0.1570
     21  C         66.9840  -77.5880   -0.7230 C.2   131  MET131      0.2261
     22  O         67.4700  -77.1200   -1.7550 O.2   131  MET131     -0.2867
     23  CB        69.2610  -77.5390    0.2170 C.3   131  MET131      0.0387
     24  CG        70.0510  -77.6140    1.4440 C.3   131  MET131      0.0595
     25  SD        71.3820  -76.4140    1.2530 S.3   131  MET131     -0.1393
     26  CE        71.6220  -75.9970    2.9740 C.3   131  MET131      0.0692
     27  N         71.9280  -74.0770   -6.1400 N.3   136  ARG136     -0.1231
     28  CA        73.3280  -73.6530   -6.0370 C.3   136  ARG136      0.1694
     29  C         74.0900  -74.3880   -4.9330 C.2   136  ARG136      0.2592
     30  O         75.3070  -74.5770   -5.0570 O.2   136  ARG136     -0.2718
     31  CB        73.4060  -72.1310   -5.8080 C.3   136  ARG136      0.0321
     32  CG        73.1390  -71.2770   -7.0490 C.3   136  ARG136      0.0489
     33  CD        73.0030  -69.7660   -6.7950 C.3   136  ARG136      0.2205
     34  NE        71.7060  -69.4040   -6.2050 N.pl3 136  ARG136     -0.0865
     35  CZ        71.4890  -68.9470   -4.9690 C.cat 136  ARG136      0.5346
     36  NH1       72.4830  -68.7130   -4.1170 N.pl3 136  ARG136      0.1354
     37  NH2       70.2460  -68.6880   -4.5970 N.pl3 136  ARG136      0.1354
     38  N         73.4270  -74.7810   -3.8380 N.am  137  ALA137     -0.1966
     39  CA        74.0910  -75.6080   -2.8270 C.3   137  ALA137      0.1728
     40  C         74.2290  -77.0600   -3.2880 C.2   137  ALA137      0.2617
     41  O         73.4400  -77.5780   -4.0860 O.2   137  ALA137     -0.2715
     42  CB        73.3440  -75.5900   -1.5000 C.3   137  ALA137      0.0334
     43  N         75.2550  -77.7220   -2.7870 N.am  138  GLY138     -0.1940
     44  CA        75.3950  -79.1310   -3.0790 C.3   138  GLY138      0.2014
     45  C         76.7880  -79.6350   -2.7610 C.2   138  GLY138      0.2639
     46  O         77.5720  -78.9930   -2.0630 O.2   138  GLY138     -0.2714
     47  N         77.0540  -80.8130   -3.2810 N.am  139  GLY139     -0.1939
     48  CA        78.3470  -81.4120   -3.1680 C.3   139  GLY139      0.2014
     49  C         78.4470  -82.2540   -1.9170 C.2   139  GLY139      0.2639
     50  O         77.4540  -82.6440   -1.3200 O.2   139  GLY139     -0.2714
     51  N         79.6850  -82.5360   -1.5260 N.am  140  ILE140     -0.1963
     52  CA        79.9730  -83.4380   -0.4230 C.3   140  ILE140      0.1727
     53  C         80.7130  -82.6390    0.6280 C.2   140  ILE140      0.2617
     54  O         81.2660  -81.5710    0.3450 O.2   140  ILE140     -0.2715
     55  CB        80.8000  -84.6690   -0.8740 C.3   140  ILE140      0.0290
     56  CG1       79.9500  -85.5500   -1.7760 C.3   140  ILE140      0.0022
     57  CG2       81.3160  -85.5060    0.3170 C.3   140  ILE140      0.0023
     58  CD1       80.0840  -85.2040   -3.1950 C.3   140  ILE140      0.0001
     59  N         80.6900  -83.1680    1.8580 N.am  141  SER141     -0.1936
     60  CA        81.4440  -82.6090    2.9720 C.3   141  SER141      0.2055
     61  C         82.8910  -82.4270    2.5720 C.2   141  SER141      0.2643
     62  O         83.3420  -83.0980    1.6390 O.2   141  SER141     -0.2714
     63  CB        81.4340  -83.5290    4.1730 C.3   141  SER141      0.2130
     64  OG        82.3240  -84.6020    3.9180 O.3   141  SER141     -0.2179
     65  N         83.6480  -81.5860    3.2850 N.am  142  ARG142     -0.1963
     66  CA        85.0660  -81.5390    2.9910 C.3   142  ARG142      0.1729
     67  C         85.8800  -82.4800    3.8770 C.2   142  ARG142      0.2616
     68  O         87.0700  -82.6780    3.6060 O.2   142  ARG142     -0.2715
     69  CB        85.6010  -80.1090    3.0710 C.3   142  ARG142      0.0348
     70  CG        87.0700  -80.0250    2.4920 C.3   142  ARG142      0.0492
     71  CD        87.1790  -80.4150    0.9760 C.3   142  ARG142      0.2205
     72  NE        86.7740  -79.3310    0.0810 N.pl3 142  ARG142     -0.0865
     73  CZ        86.4050  -79.4880   -1.1870 C.cat 142  ARG142      0.5346
     74  NH1       86.3000  -80.6980   -1.7120 N.pl3 142  ARG142      0.1354
     75  NH2       86.0730  -78.4300   -1.9150 N.pl3 142  ARG142      0.1354
     76  N         85.2580  -83.1180    4.8810 N.am  143  ARG143     -0.1977
     77  CA        85.9360  -84.1170    5.7040 C.3   143  ARG143      0.1597
     78  C         85.7740  -85.5340    5.1650 C.2   143  ARG143      0.2287
     79  O         85.8800  -86.4960    5.9430 O.2   143  ARG143     -0.2864
     80  CB        85.4620  -84.0420    7.1580 C.3   143  ARG143      0.0334
     81  CG        85.9760  -82.7850    7.8910 C.3   143  ARG143      0.0492
     82  CD        85.7960  -82.8160    9.4270 C.3   143  ARG143      0.2205
     83  NE        84.4600  -83.2660    9.7960 N.pl3 143  ARG143     -0.0865
     84  CZ        83.3340  -82.5880    9.5660 C.cat 143  ARG143      0.5346
     85  NH1       83.3530  -81.4310    8.8950 N.pl3 143  ARG143      0.1354
     86  NH2       82.1700  -83.1080    9.9560 N.pl3 143  ARG143      0.1354
     87  N         73.4900  -81.8060    0.1000 N.3   168  ILE168     -0.1245
     88  CA        74.8210  -81.9660    0.6800 C.3   168  ILE168      0.1561
     89  C         74.9190  -83.3590    1.3040 C.2   168  ILE168      0.2260
     90  O         74.0320  -83.7670    2.0540 O.2   168  ILE168     -0.2867
     91  CB        75.0870  -80.8770    1.7250 C.3   168  ILE168      0.0252
     92  CG1       74.8780  -79.4980    1.0680 C.3   168  ILE168      0.0019
     93  CG2       76.4660  -81.0360    2.2410 C.3   168  ILE168      0.0019
     94  CD1       74.9900  -78.2770    2.0020 C.3   168  ILE168      0.0001
     95  N         76.6940  -86.0060    3.7780 N.3   170  ARG170     -0.1231
     96  CA        77.2720  -85.7010    5.0630 C.3   170  ARG170      0.1694
     97  C         78.4060  -86.6480    5.3350 C.2   170  ARG170      0.2593
     98  O         78.5520  -87.7030    4.7010 O.2   170  ARG170     -0.2718
     99  CB        76.2410  -85.8060    6.1910 C.3   170  ARG170      0.0321
    100  CG        75.0820  -84.9510    5.9950 C.3   170  ARG170      0.0489
    101  CD        74.2600  -84.9090    7.1830 C.3   170  ARG170      0.2205
    102  NE        75.0130  -84.2540    8.2350 N.pl3 170  ARG170     -0.0865
    103  CZ        74.5640  -84.1030    9.4690 C.cat 170  ARG170      0.5346
    104  NH1       73.3600  -84.5480    9.7880 N.pl3 170  ARG170      0.1354
    105  NH2       75.3170  -83.5080   10.3710 N.pl3 170  ARG170      0.1354
    106  N         79.1890  -86.2590    6.3340 N.am  171  THR171     -0.1939
    107  CA        80.2360  -87.1300    6.8270 C.3   171  THR171      0.2028
    108  C         79.6740  -88.5080    7.2050 C.2   171  THR171      0.2642
    109  O         80.1630  -89.5370    6.7350 O.2   171  THR171     -0.2714
    110  CB        80.9300  -86.4660    7.9990 C.3   171  THR171      0.1808
    111  OG1       81.3710  -85.1540    7.6200 O.3   171  THR171     -0.2208
    112  CG2       82.0980  -87.3150    8.3880 C.3   171  THR171      0.0379
    113  N         78.6100  -88.5590    8.0020 N.am  172  ALA172     -0.1977
    114  CA        78.1530  -89.8630    8.4700 C.3   172  ALA172      0.1597
    115  C         77.7080  -90.7840    7.3370 C.2   172  ALA172      0.2287
    116  O         77.4670  -91.9790    7.5800 O.2   172  ALA172     -0.2864
    117  CB        77.0030  -89.7020    9.4750 C.3   172  ALA172      0.0319
    118  N         82.7440  -90.2980   15.6370 N.3   391  GLN391     -0.1245
    119  CA        82.2700  -88.9330   15.5100 C.3   391  GLN391      0.1566
    120  C         81.3920  -88.5930   16.7070 C.2   391  GLN391      0.2260
    121  O         80.6280  -89.4450   17.1660 O.2   391  GLN391     -0.2867
    122  CB        81.4760  -88.8630   14.2180 C.3   391  GLN391      0.0367
    123  CG        81.2880  -87.5490   13.6000 C.3   391  GLN391      0.0905
    124  CD        80.4420  -87.6880   12.3350 C.2   391  GLN391      0.2608
    125  OE1       80.0160  -88.7980   11.9590 O.2   391  GLN391     -0.2717
    126  NE2       80.1950  -86.5700   11.6790 N.am  391  GLN391     -0.0878
@<TRIPOS>BOND
     1    32    33    1
     2    32    31    1
     3    33    34    1
     4    34    35    2
     5    27    28    1
     6    28    31    1
     7    28    29    1
     8    30    29    2
     9    35    37    1
    10    35    36    1
    11    29    38   am
    12    41    40    2
    13    38    39    1
    14    40    39    1
    15    40    43   am
    16    47    48    1
    17    47    45   am
    18    58    56    1
    19    48    49    1
    20    44    43    1
    21    44    45    1
    22    39    42    1
    23    45    46    2
    24    49    51   am
    25    49    50    2
    26    75    73    1
    27    56    55    1
    28    22    21    2
    29    74    73    1
    30    51    52    1
    31    73    72    2
    32    55    52    1
    33    55    57    1
    34    21    20    1
    35    52    53    1
    36    72    71    1
    37    87    88    1
    38    23    20    1
    39    23    24    1
    40    19    20    1
    41    54    53    2
    42    53    59   am
    43    88    89    1
    44    88    91    1
    45    71    70    1
    46    92    91    1
    47    92    94    1
    48    25    24    1
    49    25    26    1
    50    89    90    2
    51    62    61    2
    52    91    93    1
    53    15    14    2
    54    59    60    1
    55    70    69    1
    56    61    60    1
    57    61    65   am
    58    14    13    1
    59    60    63    1
    60    66    69    1
    61    66    65    1
    62    66    67    1
    63    12    13    1
    64    68    67    2
    65    95    96    1
    66    13    16    1
    67    67    76   am
    68    64    63    1
    69    16    17    1
    70    16    18    1
    71    98    97    2
    72    76    77    1
    73     1     2    1
    74     2     5    1
    75     2     3    1
    76    96    97    1
    77    96    99    1
    78    78    77    1
    79    78    79    2
    80     5     6    1
    81    97   106   am
    82    77    80    1
    83     3     4    2
    84   100    99    1
    85   100   101    1
    86   106   107    1
    87   109   108    2
    88   107   108    1
    89   107   110    1
    90    80    81    1
    91   101   102    1
    92   108   113   am
    93   115   116    2
    94   115   114    1
    95     7     8    1
    96     8     9    1
    97     8    11    1
    98   111   110    1
    99    81    82    1
   100   110   112    1
   101   113   114    1
   102     9    10    2
   103   102   103    2
   104   114   117    1
   105    85    84    1
   106    82    83    1
   107   103   104    1
   108   103   105    1
   109    84    83    2
   110    84    86    1
   111   126   124   am
   112   125   124    2
   113   124   123    1
   114   123   122    1
   115   122   119    1
   116   119   118    1
   117   119   120    1
   118   120   121    2
