@<TRIPOS>MOLECULE
tmp/5f6kC00.pdb
 203 198 0 0 0
SMALL
GASTEIGER

@<TRIPOS>ATOM
      1  N         70.9000   20.2510    4.7000 N.3    47  TYR47      -0.1241
      2  CA        69.7040   19.4390    4.9000 C.3    47  TYR47       0.1605
      3  C         70.0990   17.9620    4.8940 C.2    47  TYR47       0.2264
      4  O         70.4460   17.4100    3.8520 O.2    47  TYR47      -0.2867
      5  CB        68.6570   19.7250    3.8230 C.3    47  TYR47       0.0534
      6  CG        67.2660   19.2600    4.1930 C.ar   47  TYR47      -0.0201
      7  CD1       66.8970   17.9270    4.0590 C.ar   47  TYR47      -0.0009
      8  CD2       66.3190   20.1560    4.6730 C.ar   47  TYR47      -0.0009
      9  CE1       65.6230   17.4970    4.4000 C.ar   47  TYR47       0.0417
     10  CE2       65.0420   19.7370    5.0140 C.ar   47  TYR47       0.0417
     11  CZ        64.7000   18.4080    4.8760 C.ar   47  TYR47       0.1957
     12  OH        63.4310   17.9880    5.2150 O.3    47  TYR47      -0.2866
     13  N         62.2050    7.2420   -5.1480 N.3    54  ASN54      -0.1240
     14  CA        60.9340    7.9310   -5.3440 C.3    54  ASN54       0.1653
     15  C         59.7290    7.1570   -4.8180 C.2    54  ASN54       0.2266
     16  O         58.9350    7.6890   -4.0410 O.2    54  ASN54      -0.2867
     17  CB        60.7330    8.2450   -6.8250 C.3    54  ASN54       0.1155
     18  CG        61.6480    9.3490   -7.3120 C.2    54  ASN54       0.2627
     19  OD1       61.9680   10.2770   -6.5710 O.2    54  ASN54      -0.2716
     20  ND2       62.0770    9.2540   -8.5630 N.am   54  ASN54      -0.0877
     21  N         59.5960    7.0740   -1.2060 N.3    57  ALA57      -0.1231
     22  CA        59.1040    8.3570   -0.7060 C.3    57  ALA57       0.1694
     23  C         57.5830    8.4530   -0.7970 C.2    57  ALA57       0.2592
     24  O         56.9380    9.0320    0.0750 O.2    57  ALA57      -0.2718
     25  CB        59.7510    9.5050   -1.4670 C.3    57  ALA57       0.0304
     26  N         57.0150    7.8850   -1.8540 N.am   58  ASN58      -0.1974
     27  CA        55.5670    7.8680   -2.0110 C.3    58  ASN58       0.1688
     28  C         54.8940    7.0010   -0.9510 C.2    58  ASN58       0.2292
     29  O         53.8510    7.3670   -0.4100 O.2    58  ASN58      -0.2864
     30  CB        55.1870    7.3850   -3.4100 C.3    58  ASN58       0.1181
     31  CG        55.6090    8.3590   -4.4920 C.2    58  ASN58       0.2629
     32  OD1       55.7580    9.5560   -4.2390 O.2    58  ASN58      -0.2716
     33  ND2       55.8010    7.8530   -5.7050 N.am   58  ASN58      -0.0877
     34  N         55.4100    8.7440    2.5500 N.3    61  GLU61      -0.1245
     35  CA        54.5670    9.9300    2.6930 C.3    61  GLU61       0.1567
     36  C         53.1660    9.5790    3.1880 C.2    61  GLU61       0.2260
     37  O         52.6350   10.2350    4.0810 O.2    61  GLU61      -0.2867
     38  CB        54.4700   10.6840    1.3650 C.3    61  GLU61       0.0388
     39  CG        53.5730   11.9140    1.4160 C.3    61  GLU61       0.1160
     40  CD        53.3130   12.5040    0.0430 C.2    61  GLU61       0.3649
     41  OE1       53.7720   11.9120   -0.9570 O.co2  61  GLU61      -0.2457
     42  OE2       52.6460   13.5580   -0.0370 O.co2  61  GLU61      -0.2457
     43  N         55.6860   17.4840    6.4640 N.3    71  VAL71      -0.1231
     44  CA        56.6140   17.2690    5.3570 C.3    71  VAL71       0.1692
     45  C         58.0690   17.4950    5.7610 C.2    71  VAL71       0.2592
     46  O         58.4920   18.6300    5.9910 O.2    71  VAL71      -0.2718
     47  CB        56.2860   18.1910    4.1630 C.3    71  VAL71       0.0266
     48  CG1       57.2770   17.9650    3.0270 C.3    71  VAL71       0.0020
     49  CG2       54.8600   17.9580    3.6870 C.3    71  VAL71       0.0020
     50  N         58.8300   16.4090    5.8440 N.am   72  TYR72      -0.1962
     51  CA        60.2580   16.5000    6.1180 C.3    72  TYR72       0.1771
     52  C         61.0620   15.8220    5.0170 C.2    72  TYR72       0.2619
     53  O         62.0450   15.1350    5.2830 O.2    72  TYR72      -0.2715
     54  CB        60.5960   15.8770    7.4710 C.3    72  TYR72       0.0574
     55  CG        59.9570   16.5760    8.6460 C.ar   72  TYR72      -0.0198
     56  CD1       60.3880   17.8330    9.0500 C.ar   72  TYR72      -0.0009
     57  CD2       58.9260   15.9760    9.3580 C.ar   72  TYR72      -0.0009
     58  CE1       59.8070   18.4750   10.1290 C.ar   72  TYR72       0.0417
     59  CE2       58.3400   16.6110   10.4380 C.ar   72  TYR72       0.0417
     60  CZ        58.7840   17.8590   10.8180 C.ar   72  TYR72       0.1957
     61  OH        58.2020   18.4920   11.8920 O.3    72  TYR72      -0.2866
     62  N         60.6330   16.0160    3.7770 N.am   73  MET73      -0.1963
     63  CA        61.3440   15.4580    2.6380 C.3    73  MET73       0.1736
     64  C         61.8760   16.5610    1.7320 C.2    73  MET73       0.2616
     65  O         61.2040   17.5630    1.4920 O.2    73  MET73      -0.2715
     66  CB        60.4370   14.5160    1.8430 C.3    73  MET73       0.0427
     67  CG        60.0690   13.2370    2.5790 C.3    73  MET73       0.0599
     68  SD        59.0790   12.1160    1.5680 S.3    73  MET73      -0.1393
     69  CE        58.8550   10.7510    2.7010 C.3    73  MET73       0.0692
     70  N         63.0920   16.3660    1.2400 N.am   74  PHE74      -0.1960
     71  CA        63.7080   17.3000    0.3130 C.3    74  PHE74       0.1771
     72  C         64.2590   16.5290   -0.8780 C.2    74  PHE74       0.2619
     73  O         65.1060   15.6500   -0.7180 O.2    74  PHE74      -0.2715
     74  CB        64.8220   18.0980    0.9980 C.3    74  PHE74       0.0574
     75  CG        65.1600   19.3880    0.3060 C.ar   74  PHE74      -0.0200
     76  CD1       65.7950   19.3880   -0.9240 C.ar   74  PHE74      -0.0042
     77  CD2       64.8520   20.6040    0.8950 C.ar   74  PHE74      -0.0042
     78  CE1       66.1040   20.5740   -1.5590 C.ar   74  PHE74      -0.0003
     79  CE2       65.1600   21.7950    0.2650 C.ar   74  PHE74      -0.0003
     80  CZ        65.7860   21.7800   -0.9630 C.ar   74  PHE74      -0.0000
     81  N         63.7770   16.8580   -2.0710 N.am   75  ARG75      -0.1977
     82  CA        64.2270   16.1770   -3.2770 C.3    75  ARG75       0.1597
     83  C         65.6750   16.5240   -3.6170 C.2    75  ARG75       0.2287
     84  O         66.0120   17.6860   -3.8360 O.2    75  ARG75      -0.2864
     85  CB        63.3160   16.5170   -4.4540 C.3    75  ARG75       0.0334
     86  CG        63.8040   15.9590   -5.7730 C.3    75  ARG75       0.0492
     87  CD        62.6750   15.8260   -6.7770 C.3    75  ARG75       0.2205
     88  NE        61.6040   14.9700   -6.2770 N.pl3  75  ARG75      -0.0865
     89  CZ        61.6290   13.6410   -6.3130 C.cat  75  ARG75       0.5346
     90  NH1       62.6790   13.0080   -6.8210 N.pl3  75  ARG75       0.1354
     91  NH2       60.6060   12.9430   -5.8360 N.pl3  75  ARG75       0.1354
     92  N         65.2580   11.1820   -2.9140 N.3    81  VAL81      -0.1245
     93  CA        64.6750   12.1320   -1.9800 C.3    81  VAL81       0.1561
     94  C         65.3420   11.9840   -0.6180 C.2    81  VAL81       0.2260
     95  O         65.6110   10.8700   -0.1730 O.2    81  VAL81      -0.2867
     96  CB        63.1490   11.9200   -1.8420 C.3    81  VAL81       0.0252
     97  CG1       62.5710   12.7980   -0.7440 C.3    81  VAL81       0.0019
     98  CG2       62.4530   12.1910   -3.1650 C.3    81  VAL81       0.0019
     99  N         67.8830   21.1020   10.0320 N.3    91  ALA91      -0.1231
    100  CA        67.4770   21.9110    8.8840 C.3    91  ALA91       0.1694
    101  C         66.0400   21.6010    8.4790 C.2    91  ALA91       0.2591
    102  O         65.3770   22.4090    7.8230 O.2    91  ALA91      -0.2718
    103  CB        68.4180   21.6850    7.7100 C.3    91  ALA91       0.0304
    104  N         65.5690   20.4240    8.8840 N.am   92  ARG92      -0.1980
    105  CA        64.1970   19.9970    8.6400 C.3    92  ARG92       0.1597
    106  C         63.1810   20.9810    9.2240 C.2    92  ARG92       0.2287
    107  O         62.0330   21.0300    8.7840 O.2    92  ARG92      -0.2864
    108  CB        63.9690   18.6040    9.2340 C.3    92  ARG92       0.0334
    109  CG        64.1460   18.5560   10.7500 C.3    92  ARG92       0.0492
    110  CD        64.3180   17.1350   11.2680 C.3    92  ARG92       0.2205
    111  NE        63.0690   16.3820   11.2680 N.pl3  92  ARG92      -0.0865
    112  CZ        62.3150   16.1970   12.3450 C.cat  92  ARG92       0.5346
    113  NH1       62.6900   16.7120   13.5070 N.pl3  92  ARG92       0.1354
    114  NH2       61.1910   15.4950   12.2620 N.pl3  92  ARG92       0.1354
    115  N         63.4400   24.3300    9.3000 N.3    94  ILE94      -0.1245
    116  CA        63.3910   25.6210    8.6180 C.3    94  ILE94       0.1561
    117  C         62.0930   25.7820    7.8350 C.2    94  ILE94       0.2260
    118  O         61.7870   24.9850    6.9470 O.2    94  ILE94      -0.2867
    119  CB        64.5750   25.8040    7.6620 C.3    94  ILE94       0.0252
    120  CG1       65.8930   25.6840    8.4260 C.3    94  ILE94       0.0019
    121  CG2       64.4810   27.1490    6.9630 C.3    94  ILE94       0.0019
    122  CD1       67.1190   25.7600    7.5440 C.3    94  ILE94       0.0001
    123  N         67.8950   27.2890   -0.8650 N.3   104  ALA104     -0.1231
    124  CA        68.3080   25.8910   -0.8690 C.3   104  ALA104      0.1694
    125  C         68.9540   25.5370   -2.2010 C.2   104  ALA104      0.2592
    126  O         68.3430   25.7040   -3.2550 O.2   104  ALA104     -0.2718
    127  CB        67.1220   24.9890   -0.5960 C.3   104  ALA104      0.0304
    128  N         70.1890   25.0500   -2.1530 N.am  105  GLU105     -0.1966
    129  CA        70.9340   24.7520   -3.3710 C.3   105  GLU105      0.1733
    130  C         71.5990   23.3800   -3.3260 C.2   105  GLU105      0.2616
    131  O         71.9860   22.8970   -2.2600 O.2   105  GLU105     -0.2715
    132  CB        71.9880   25.8330   -3.6200 C.3   105  GLU105      0.0429
    133  CG        71.4080   27.1730   -4.0530 C.3   105  GLU105      0.1163
    134  CD        72.3890   28.3210   -3.8980 C.2   105  GLU105      0.3649
    135  OE1       73.1860   28.3020   -2.9350 O.co2 105  GLU105     -0.2457
    136  OE2       72.3630   29.2410   -4.7430 O.co2 105  GLU105     -0.2457
    137  N         71.7320   22.7580   -4.4920 N.am  106  VAL106     -0.1977
    138  CA        72.3980   21.4670   -4.5930 C.3   106  VAL106      0.1596
    139  C         73.8590   21.6400   -4.9830 C.2   106  VAL106      0.2287
    140  O         74.1710   22.2530   -6.0050 O.2   106  VAL106     -0.2864
    141  CB        71.7180   20.5530   -5.6250 C.3   106  VAL106      0.0276
    142  CG1       72.3150   19.1550   -5.5600 C.3   106  VAL106      0.0022
    143  CG2       70.2150   20.5130   -5.3930 C.3   106  VAL106      0.0022
    144  N         63.2950   29.6270    3.7570 N.3   131  TYR131     -0.1227
    145  CA        63.5250   29.6460    2.3200 C.3   131  TYR131      0.1736
    146  C         62.2450   29.3060    1.5700 C.2   131  TYR131      0.2595
    147  O         61.2040   29.0550    2.1770 O.2   131  TYR131     -0.2718
    148  CB        64.6520   28.6820    1.9270 C.3   131  TYR131      0.0548
    149  CG        64.4010   27.2270    2.2600 C.ar  131  TYR131     -0.0200
    150  CD1       64.7700   26.7050    3.4910 C.ar  131  TYR131     -0.0009
    151  CD2       63.8160   26.3700    1.3350 C.ar  131  TYR131     -0.0009
    152  CE1       64.5540   25.3760    3.8010 C.ar  131  TYR131      0.0417
    153  CE2       63.5930   25.0360    1.6360 C.ar  131  TYR131      0.0417
    154  CZ        63.9650   24.5460    2.8720 C.ar  131  TYR131      0.1957
    155  OH        63.7490   23.2250    3.1860 O.3   131  TYR131     -0.2866
    156  N         62.3280   29.3140    0.2450 N.am  132  ASP132     -0.1960
    157  CA        61.1880   28.9870   -0.5980 C.3   132  ASP132      0.1840
    158  C         61.1580   27.4850   -0.8790 C.2   132  ASP132      0.2622
    159  O         62.0610   26.9520   -1.5260 O.2   132  ASP132     -0.2715
    160  CB        61.2480   29.7880   -1.8990 C.3   132  ASP132      0.1450
    161  CG        60.0160   29.6020   -2.7620 C.2   132  ASP132      0.3671
    162  OD1       58.9860   29.1150   -2.2500 O.co2 132  ASP132     -0.2456
    163  OD2       60.0770   29.9590   -3.9570 O.co2 132  ASP132     -0.2456
    164  N         60.1240   26.8110   -0.3820 N.am  133  TYR133     -0.1960
    165  CA        59.9940   25.3620   -0.5400 C.3   133  TYR133      0.1771
    166  C         59.8400   24.9550   -2.0010 C.2   133  TYR133      0.2619
    167  O         60.2860   23.8780   -2.3990 O.2   133  TYR133     -0.2715
    168  CB        58.7990   24.8300    0.2570 C.3   133  TYR133      0.0574
    169  CG        59.0320   24.6860    1.7460 C.ar  133  TYR133     -0.0198
    170  CD1       60.2140   25.1160    2.3370 C.ar  133  TYR133     -0.0009
    171  CD2       58.0670   24.1060    2.5590 C.ar  133  TYR133     -0.0009
    172  CE1       60.4220   24.9800    3.7000 C.ar  133  TYR133      0.0417
    173  CE2       58.2650   23.9650    3.9170 C.ar  133  TYR133      0.0417
    174  CZ        59.4430   24.4020    4.4830 C.ar  133  TYR133      0.1957
    175  OH        59.6370   24.2570    5.8400 O.3   133  TYR133     -0.2866
    176  N         59.1980   25.8190   -2.7840 N.am  134  LYS134     -0.1963
    177  CA        58.9440   25.5660   -4.2000 C.3   134  LYS134      0.1728
    178  C         58.2180   24.2410   -4.4120 C.2   134  LYS134      0.2616
    179  O         58.6480   23.4080   -5.2120 O.2   134  LYS134     -0.2715
    180  CB        60.2540   25.5830   -4.9920 C.3   134  LYS134      0.0311
    181  CG        61.0500   26.8690   -4.8430 C.3   134  LYS134      0.0038
    182  CD        62.3930   26.7700   -5.5450 C.3   134  LYS134      0.0206
    183  CE        63.1940   28.0530   -5.3980 C.3   134  LYS134      0.1093
    184  NZ        62.4950   29.2180   -6.0110 N.3   134  LYS134     -0.1314
    185  N         57.1220   24.0530   -3.6820 N.am  135  PHE135     -0.1974
    186  CA        56.3120   22.8460   -3.7980 C.3   135  PHE135      0.1639
    187  C         55.7400   22.6870   -5.2040 C.2   135  PHE135      0.2290
    188  O         55.1110   23.6020   -5.7380 O.2   135  PHE135     -0.2864
    189  CB        55.1760   22.8620   -2.7700 C.3   135  PHE135      0.0560
    190  CG        55.5750   22.3570   -1.4100 C.ar  135  PHE135     -0.0200
    191  CD1       56.8240   21.7950   -1.2000 C.ar  135  PHE135     -0.0042
    192  CD2       54.6920   22.4300   -0.3440 C.ar  135  PHE135     -0.0042
    193  CE1       57.1880   21.3240    0.0500 C.ar  135  PHE135     -0.0003
    194  CE2       55.0500   21.9610    0.9090 C.ar  135  PHE135     -0.0003
    195  CZ        56.3000   21.4070    1.1060 C.ar  135  PHE135     -0.0000
    196  N         47.6880   24.4280    0.1750 N.3   136  ILE136     -0.1245
    197  CA        48.1510   24.5910    1.5490 C.3   136  ILE136      0.1561
    198  C         48.3070   26.0650    1.9120 C.2   136  ILE136      0.2260
    199  O         49.1230   26.7710    1.3180 O.2   136  ILE136     -0.2867
    200  CB        49.4950   23.8730    1.7870 C.3   136  ILE136      0.0252
    201  CG1       49.3290   22.3600    1.6330 C.3   136  ILE136      0.0019
    202  CG2       50.0360   24.1960    3.1690 C.3   136  ILE136      0.0019
    203  CD1       50.6370   21.5980    1.6630 C.3   136  ILE136      0.0001
@<TRIPOS>BOND
     1    20    18   am
     2    18    17    1
     3    18    19    2
     4    17    14    1
     5    90    89    1
     6    87    88    1
     7    87    86    1
     8    89    88    2
     9    89    91    1
    10   184   183    1
    11   140   139    2
    12    86    85    1
    13   188   187    2
    14    33    31   am
    15   141   142    1
    16   141   143    1
    17   141   138    1
    18   182   183    1
    19   182   181    1
    20    14    13    1
    21    14    15    1
    22   179   178    2
    23   187   186    1
    24   180   181    1
    25   180   177    1
    26   139   138    1
    27    15    16    2
    28   136   134   ar
    29   138   137    1
    30   137   130   am
    31    31    32    2
    32    31    30    1
    33    85    82    1
    34   178   177    1
    35   178   185   am
    36   177   176    1
    37   133   134    1
    38   133   132    1
    39   163   161   ar
    40   134   135   ar
    41    84    83    2
    42   186   185    1
    43   186   189    1
    44   132   129    1
    45    83    82    1
    46    30    27    1
    47   129   130    1
    48   129   128    1
    49   130   131    2
    50    82    81    1
    51   126   125    2
    52    98    96    1
    53    92    93    1
    54   176   166   am
    55   189   190    1
    56   161   162   ar
    57   161   160    1
    58   167   166    2
    59   125   128   am
    60   125   124    1
    61    81    72   am
    62    27    26    1
    63    27    28    1
    64   166   165    1
    65    93    96    1
    66    93    94    1
    67   160   157    1
    68    26    23   am
    69    96    97    1
    70    78    80   ar
    71    78    76   ar
    72   159   158    2
    73    25    22    1
    74   190   191   ar
    75   190   192   ar
    76    21    22    1
    77   191   193   ar
    78    80    79   ar
    79    41    40   ar
    80    28    29    2
    81    76    75   ar
    82   158   157    1
    83   158   164   am
    84    72    73    2
    85    72    71    1
    86   124   123    1
    87   124   127    1
    88    23    22    1
    89    23    24    2
    90    94    95    2
    91   157   156    1
    92   165   164    1
    93   165   168    1
    94   192   194   ar
    95    42    40   ar
    96    40    39    1
    97   193   195   ar
    98   196   197    1
    99   156   146   am
   100   168   169    1
   101    79    77   ar
   102    75    77   ar
   103    75    74    1
   104    71    74    1
   105    71    70    1
   106   194   195   ar
   107    70    64   am
   108   199   198    2
   109   151   153   ar
   110   151   149   ar
   111    38    39    1
   112    38    35    1
   113    65    64    2
   114   197   200    1
   115   197   198    1
   116    68    67    1
   117    68    69    1
   118   146   147    2
   119   146   145    1
   120   201   203    1
   121   201   200    1
   122   153   154   ar
   123    64    63    1
   124   169   170   ar
   125   169   171   ar
   126   200   202    1
   127    66    67    1
   128    66    63    1
   129   148   149    1
   130   148   145    1
   131   149   150   ar
   132   145   144    1
   133   170   172   ar
   134    34    35    1
   135   171   173   ar
   136    63    62    1
   137    35    36    1
   138   154   155    1
   139   154   152   ar
   140    48    47    1
   141    36    37    2
   142   150   152   ar
   143    49    47    1
   144   172   174   ar
   145    62    52   am
   146     5     6    1
   147     5     2    1
   148     4     3    2
   149   173   174   ar
   150     7     6   ar
   151     7     9   ar
   152    47    44    1
   153     6     8   ar
   154     9    11   ar
   155   174   175    1
   156     8    10   ar
   157     1     2    1
   158    11    10   ar
   159    11    12    1
   160     3     2    1
   161    52    53    2
   162    52    51    1
   163    44    45    1
   164    44    43    1
   165    45    50   am
   166    45    46    2
   167    50    51    1
   168    51    54    1
   169   118   117    2
   170   121   119    1
   171    54    55    1
   172   122   120    1
   173   119   120    1
   174   119   116    1
   175   103   100    1
   176   102   101    2
   177   117   116    1
   178   101   104   am
   179   101   100    1
   180   116   115    1
   181   105   104    1
   182   105   106    1
   183   105   108    1
   184    55    56   ar
   185    55    57   ar
   186   107   106    2
   187   100    99    1
   188    56    58   ar
   189   108   109    1
   190    57    59   ar
   191    58    60   ar
   192    59    60   ar
   193   109   110    1
   194    60    61    1
   195   111   110    1
   196   111   112    2
   197   114   112    1
   198   112   113    1
