@<TRIPOS>MOLECULE
tmp/5f6rA00.pdb
 96 97 0 0 0
SMALL
GASTEIGER

@<TRIPOS>ATOM
      1  N          6.1720  -12.7710   21.0800 N.3    74  HIS74      -0.1226
      2  CA         7.2640  -11.8370   21.3000 C.3    74  HIS74       0.1752
      3  C          7.1920  -11.3530   22.7460 C.2    74  HIS74       0.2596
      4  O          6.6350  -10.2890   23.0100 O.2    74  HIS74      -0.2718
      5  CB         7.1290  -10.6620   20.3210 C.3    74  HIS74       0.0759
      6  CG         8.2660   -9.6920   20.3680 C.ar   74  HIS74       0.0818
      7  ND1        8.3520   -8.6850   21.3050 N.ar   74  HIS74      -0.2268
      8  CD2        9.3650   -9.5710   19.5850 C.ar   74  HIS74       0.1154
      9  CE1        9.4500   -7.9800   21.0930 C.ar   74  HIS74       0.1986
     10  NE2       10.0780   -8.4940   20.0490 N.ar   74  HIS74      -0.2212
     11  N          7.7200  -12.1210   23.7020 N.am   75  PHE75      -0.1976
     12  CA         8.3510  -13.4310   23.5300 C.3    75  PHE75       0.1639
     13  C          7.5390  -14.4370   24.3270 C.2    75  PHE75       0.2290
     14  O          6.8160  -14.0500   25.2580 O.2    75  PHE75      -0.2864
     15  CB         9.7760  -13.3950   24.1020 C.3    75  PHE75       0.0560
     16  CG        10.6360  -12.3450   23.4780 C.ar   75  PHE75      -0.0200
     17  CD1       10.6310  -11.0410   23.9600 C.ar   75  PHE75      -0.0042
     18  CD2       11.4310  -12.6500   22.3850 C.ar   75  PHE75      -0.0042
     19  CE1       11.4060  -10.0610   23.3620 C.ar   75  PHE75      -0.0003
     20  CE2       12.2130  -11.6760   21.7790 C.ar   75  PHE75      -0.0003
     21  CZ        12.1980  -10.3770   22.2690 C.ar   75  PHE75      -0.0000
     22  N          5.8270   -8.5930   25.2480 N.3    80  VAL80      -0.1231
     23  CA         6.1090   -7.1690   25.1230 C.3    80  VAL80       0.1692
     24  C          5.8580   -6.7710   23.6780 C.2    80  VAL80       0.2592
     25  O          6.2730   -7.4750   22.7500 O.2    80  VAL80      -0.2718
     26  CB         7.5460   -6.8290   25.5780 C.3    80  VAL80       0.0266
     27  CG1        8.5910   -7.6690   24.8460 C.3    80  VAL80       0.0020
     28  CG2        7.8260   -5.3480   25.4020 C.3    80  VAL80       0.0020
     29  N          5.1710   -5.6570   23.4580 N.am   81  MET81      -0.1966
     30  CA         4.9180   -5.2640   22.0800 C.3    81  MET81       0.1721
     31  C          6.2430   -4.9960   21.3670 C.2    81  MET81       0.2458
     32  O          7.0880   -4.2620   21.8950 O.2    81  MET81      -0.2730
     33  CB         4.0400   -4.0180   22.0110 C.3    81  MET81       0.0427
     34  CG         3.6490   -3.6580   20.5810 C.3    81  MET81       0.0599
     35  SD         2.6740   -2.1520   20.5370 S.3    81  MET81      -0.1393
     36  CE         2.3110   -2.0320   18.7930 C.3    81  MET81       0.0692
     37  N          6.4580   -5.5530   20.1770 N.am   82  PRO82      -0.2716
     38  CA         7.6760   -5.2230   19.4250 C.3    82  PRO82       0.1536
     39  C          7.7770   -3.7250   19.1750 C.2    82  PRO82       0.2599
     40  O          6.8540   -3.1010   18.6510 O.2    82  PRO82      -0.2715
     41  CB         7.4940   -5.9950   18.1150 C.3    82  PRO82       0.0310
     42  CG         6.6410   -7.1610   18.4900 C.3    82  PRO82       0.0237
     43  CD         5.6740   -6.6180   19.5260 C.3    82  PRO82       0.0939
     44  N          8.9070   -3.1430   19.5660 N.am   83  GLY83      -0.1941
     45  CA         9.1440   -1.7460   19.2480 C.3    83  GLY83       0.2014
     46  C          9.0820   -1.4690   17.7590 C.2    83  GLY83       0.2639
     47  O          8.6500   -0.3900   17.3430 O.2    83  GLY83      -0.2714
     48  N          9.4960   -2.4400   16.9390 N.am   84  CYS84      -0.1967
     49  CA         9.4590   -2.2450   15.4960 C.3    84  CYS84       0.1712
     50  C          8.0510   -1.9660   14.9890 C.2    84  CYS84       0.2296
     51  O          7.8920   -1.2820   13.9740 O.2    84  CYS84      -0.2864
     52  CB        10.0640   -3.4540   14.7830 C.3    84  CYS84       0.0983
     53  SG         9.0570   -4.9630   14.7710 S.3    84  CYS84      -0.0798
     54  N         14.2590    3.8170   22.3210 N.3   117  PHE117     -0.1227
     55  CA        13.2610    3.1020   23.1060 C.3   117  PHE117      0.1736
     56  C         13.6760    3.1890   24.5720 C.2   117  PHE117      0.2596
     57  O         14.7880    2.7890   24.9290 O.2   117  PHE117     -0.2718
     58  CB        13.2010    1.6260   22.7050 C.3   117  PHE117      0.0547
     59  CG        12.7940    1.3600   21.2710 C.ar  117  PHE117     -0.0202
     60  CD1       11.7930    2.0810   20.6420 C.ar  117  PHE117     -0.0042
     61  CD2       13.4000    0.3340   20.5740 C.ar  117  PHE117     -0.0042
     62  CE1       11.4250    1.7810   19.3370 C.ar  117  PHE117     -0.0003
     63  CE2       13.0470    0.0410   19.2790 C.ar  117  PHE117     -0.0003
     64  CZ        12.0550    0.7570   18.6600 C.ar  117  PHE117     -0.0000
     65  N         12.7860    3.6950   25.4260 N.am  118  THR118     -0.1939
     66  CA        13.0900    3.8300   26.8480 C.3   118  THR118      0.2028
     67  C         12.0710    3.1470   27.7480 C.2   118  THR118      0.2643
     68  O         12.1880    3.2430   28.9740 O.2   118  THR118     -0.2714
     69  CB        13.2130    5.3100   27.2510 C.3   118  THR118      0.1808
     70  OG1       11.9890    5.9850   26.9370 O.3   118  THR118     -0.2208
     71  CG2       14.3650    5.9850   26.5150 C.3   118  THR118      0.0379
     72  N         11.0830    2.4660   27.1800 N.am  119  GLY119     -0.1939
     73  CA        10.0840    1.7690   27.9610 C.3   119  GLY119      0.2014
     74  C          9.3730    0.7890   27.0590 C.2   119  GLY119      0.2638
     75  O          9.7160    0.6380   25.8850 O.2   119  GLY119     -0.2714
     76  N          8.3550    0.1350   27.6090 N.am  120  GLN120     -0.1977
     77  CA         7.7380   -0.9780   26.9110 C.3   120  GLN120      0.1601
     78  C          6.2230   -0.9320   27.0470 C.2   120  GLN120      0.2287
     79  O          5.6670   -0.3200   27.9640 O.2   120  GLN120     -0.2864
     80  CB         8.2820   -2.3200   27.4080 C.3   120  GLN120      0.0394
     81  CG         8.0470   -2.5270   28.8710 C.3   120  GLN120      0.0908
     82  CD         8.7270   -3.7700   29.4330 C.2   120  GLN120      0.2608
     83  OE1        9.3170   -4.5740   28.7120 O.2   120  GLN120     -0.2717
     84  NE2        8.6360   -3.9280   30.7370 N.am  120  GLN120     -0.0878
     85  N          8.8730    5.7370   23.2600 N.3   159  TYR159     -0.1241
     86  CA         9.7140    5.7420   22.0660 C.3   159  TYR159      0.1605
     87  C          9.7340    7.1400   21.4760 C.2   159  TYR159      0.2264
     88  O          8.7070    7.8230   21.4390 O.2   159  TYR159     -0.2867
     89  CB         9.2490    4.8210   20.9170 C.3   159  TYR159      0.0534
     90  CG         8.7440    3.4270   21.2310 C.ar  159  TYR159     -0.0201
     91  CD1        9.0820    2.7500   22.4030 C.ar  159  TYR159     -0.0009
     92  CD2        7.9280    2.7780   20.3190 C.ar  159  TYR159     -0.0009
     93  CE1        8.5950    1.4720   22.6530 C.ar  159  TYR159      0.0417
     94  CE2        7.4510    1.5150   20.5560 C.ar  159  TYR159      0.0417
     95  CZ         7.7760    0.8660   21.7230 C.ar  159  TYR159      0.1957
     96  OH         7.2730   -0.3920   21.9430 O.3   159  TYR159     -0.2866
@<TRIPOS>BOND
     1    51    50    2
     2    53    52    1
     3    52    49    1
     4    50    49    1
     5    49    48    1
     6    48    46   am
     7    47    46    2
     8    46    45    1
     9    41    42    1
    10    41    38    1
    11    42    43    1
    12    40    39    2
    13    64    63   ar
    14    64    62   ar
    15    36    35    1
    16    39    38    1
    17    39    44   am
    18    45    44    1
    19    63    61   ar
    20    62    60   ar
    21    38    37    1
    22    43    37    1
    23     8    10   ar
    24     8     6   ar
    25    10     9   ar
    26    37    31   am
    27    92    94   ar
    28    92    90   ar
    29     5     6    1
    30     5     2    1
    31     6     7   ar
    32    35    34    1
    33    94    95   ar
    34    61    59   ar
    35    34    33    1
    36    60    59   ar
    37    89    90    1
    38    89    86    1
    39     1     2    1
    40     9     7   ar
    41    90    91   ar
    42    59    58    1
    43     2     3    1
    44    31    32    2
    45    31    30    1
    46    88    87    2
    47    87    86    1
    48    95    96    1
    49    95    93   ar
    50    20    21   ar
    51    20    18   ar
    52    33    30    1
    53    86    85    1
    54    30    29    1
    55    21    19   ar
    56    54    55    1
    57    18    16   ar
    58    91    93   ar
    59    58    55    1
    60     3     4    2
    61     3    11   am
    62    25    24    2
    63    55    56    1
    64    19    17   ar
    65    29    24   am
    66    16    17   ar
    67    16    15    1
    68    12    11    1
    69    12    15    1
    70    12    13    1
    71    24    23    1
    72    13    14    2
    73    56    57    2
    74    56    65   am
    75    27    26    1
    76    23    22    1
    77    23    26    1
    78    28    26    1
    79    65    66    1
    80    75    74    2
    81    71    69    1
    82    66    69    1
    83    66    67    1
    84    77    78    1
    85    77    80    1
    86    77    76    1
    87    70    69    1
    88    78    79    2
    89    74    76   am
    90    74    73    1
    91    72    67   am
    92    72    73    1
    93    80    81    1
    94    67    68    2
    95    83    82    2
    96    81    82    1
    97    82    84   am
