@<TRIPOS>MOLECULE
tmp/5f6uA00.pdb
 79 73 0 0 0
SMALL
GASTEIGER

@<TRIPOS>ATOM
      1  N         -9.4900    4.9280  -21.2710 N.3    24  VAL24      -0.1245
      2  CA        -9.9510    5.4050  -22.5700 C.3    24  VAL24       0.1561
      3  C         -8.7420    5.5770  -23.4900 C.2    24  VAL24       0.2260
      4  O         -7.6920    6.0650  -23.0550 O.2    24  VAL24      -0.2867
      5  CB       -10.7020    6.7540  -22.4340 C.3    24  VAL24       0.0252
      6  CG1      -11.1330    7.2830  -23.7960 C.3    24  VAL24       0.0019
      7  CG2      -11.9120    6.5850  -21.5480 C.3    24  VAL24       0.0019
      8  N         -8.6040    6.7310  -27.6740 N.3    26  VAL26      -0.1245
      9  CA        -9.3430    6.9720  -28.9190 C.3    26  VAL26       0.1561
     10  C         -8.5630    7.8710  -29.8790 C.2    26  VAL26       0.2260
     11  O         -8.1020    8.9460  -29.4970 O.2    26  VAL26      -0.2867
     12  CB       -10.7030    7.6570  -28.6350 C.3    26  VAL26       0.0252
     13  CG1      -11.4850    7.8610  -29.9330 C.3    26  VAL26       0.0019
     14  CG2      -11.5210    6.8350  -27.6600 C.3    26  VAL26       0.0019
     15  N         -6.3470   10.5010  -27.8570 N.3    41  GLU41      -0.1231
     16  CA        -6.7590   11.1020  -26.5930 C.3    41  GLU41       0.1699
     17  C         -7.1040    9.9660  -25.6530 C.2    41  GLU41       0.2592
     18  O         -7.9170    9.0970  -25.9800 O.2    41  GLU41      -0.2718
     19  CB        -7.9390   12.0540  -26.8120 C.3    41  GLU41       0.0402
     20  CG        -7.4790   13.3970  -27.3690 C.3    41  GLU41       0.1161
     21  CD        -8.5580   14.2080  -28.0850 C.2    41  GLU41       0.3649
     22  OE1       -9.7120   13.7420  -28.2280 O.co2  41  GLU41      -0.2457
     23  OE2       -8.2280   15.3330  -28.5290 O.co2  41  GLU41      -0.2457
     24  N         -6.4400    9.9530  -24.5040 N.am   42  CYS42      -0.1956
     25  CA        -6.5440    8.8450  -23.5750 C.3    42  CYS42       0.1843
     26  C         -6.8900    9.3290  -22.1780 C.2    42  CYS42       0.2625
     27  O         -6.7750   10.5150  -21.8570 O.2    42  CYS42      -0.2714
     28  CB        -5.2160    8.0820  -23.5180 C.3    42  CYS42       0.0997
     29  SG        -4.5870    7.5360  -25.1140 S.3    42  CYS42      -0.0797
     30  N         -7.3200    8.3990  -21.3360 N.am   43  ALA43      -0.1977
     31  CA        -7.5820    8.7260  -19.9430 C.3    43  ALA43       0.1597
     32  C         -7.2210    7.5310  -19.0950 C.2    43  ALA43       0.2287
     33  O         -7.5090    6.3800  -19.4670 O.2    43  ALA43      -0.2864
     34  CB        -9.0400    9.1060  -19.7350 C.3    43  ALA43       0.0319
     35  N         -9.6890   10.8090  -12.9720 N.3    56  LEU56      -0.1245
     36  CA        -9.5560   10.3000  -14.3310 C.3    56  LEU56       0.1561
     37  C         -8.6120   11.2570  -15.0360 C.2    56  LEU56       0.2260
     38  O         -8.9420   12.4320  -15.2620 O.2    56  LEU56      -0.2867
     39  CB       -10.9150   10.2450  -15.0270 C.3    56  LEU56       0.0270
     40  CG       -10.9070    9.6850  -16.4490 C.3    56  LEU56       0.0019
     41  CD1      -10.3860    8.2560  -16.4360 C.3    56  LEU56       0.0001
     42  CD2      -12.3090    9.7540  -17.0730 C.3    56  LEU56       0.0001
     43  N         -6.3330   12.7050  -17.9010 N.3    58  LYS58      -0.1231
     44  CA        -6.3250   12.7480  -19.3560 C.3    58  LYS58       0.1693
     45  C         -4.9180   12.9110  -19.8980 C.2    58  LYS58       0.2592
     46  O         -4.1160   13.6670  -19.3490 O.2    58  LYS58      -0.2718
     47  CB        -7.2050   13.9010  -19.8280 C.3    58  LYS58       0.0285
     48  CG        -8.6460   13.7680  -19.3110 C.3    58  LYS58       0.0035
     49  CD        -9.5090   14.9650  -19.6830 C.3    58  LYS58       0.0206
     50  CE       -10.9360   14.7810  -19.1540 C.3    58  LYS58       0.1093
     51  NZ       -11.8760   15.8330  -19.6470 N.3    58  LYS58      -0.1314
     52  N         -4.6030   12.1690  -20.9520 N.am   59  LEU59      -0.1966
     53  CA        -3.2960   12.3020  -21.5840 C.3    59  LEU59       0.1728
     54  C         -3.3610   12.0360  -23.0720 C.2    59  LEU59       0.2616
     55  O         -4.1730   11.2270  -23.5490 O.2    59  LEU59      -0.2715
     56  CB        -2.1960   11.4620  -20.8910 C.3    59  LEU59       0.0311
     57  CG        -1.8640    9.9620  -21.0150 C.3    59  LEU59       0.0022
     58  CD1       -1.6100    9.4650  -22.4300 C.3    59  LEU59       0.0001
     59  CD2       -0.6160    9.6840  -20.1890 C.3    59  LEU59       0.0001
     60  N         -2.4870   12.7120  -23.7980 N.am   60  ARG60      -0.1977
     61  CA        -2.4250   12.5590  -25.2330 C.3    60  ARG60       0.1597
     62  C         -1.2300   11.6810  -25.5650 C.2    60  ARG60       0.2287
     63  O         -0.1650   11.7910  -24.9370 O.2    60  ARG60      -0.2864
     64  CB        -2.2690   13.9360  -25.8900 C.3    60  ARG60       0.0334
     65  CG        -2.4880   13.9350  -27.4070 C.3    60  ARG60       0.0492
     66  CD        -2.4110   15.3500  -27.9780 C.3    60  ARG60       0.2205
     67  NE        -3.4600   16.2070  -27.4330 N.pl3  60  ARG60      -0.0865
     68  CZ        -4.7140   16.2350  -27.8820 C.cat  60  ARG60       0.5346
     69  NH1       -5.0870   15.4490  -28.8840 N.pl3  60  ARG60       0.1354
     70  NH2       -5.6070   17.0470  -27.3210 N.pl3  60  ARG60       0.1354
     71  N         -2.5520   16.1440  -20.1120 N.3    77  GLU77      -0.1245
     72  CA        -3.1750   17.3980  -20.5140 C.3    77  GLU77       0.1567
     73  C         -4.4580   17.5600  -19.7090 C.2    77  GLU77       0.2260
     74  O         -5.4670   16.9050  -19.9750 O.2    77  GLU77      -0.2867
     75  CB        -3.4510   17.4050  -22.0210 C.3    77  GLU77       0.0388
     76  CG        -2.1880   17.4020  -22.8790 C.3    77  GLU77       0.1160
     77  CD        -2.4720   17.5930  -24.3570 C.2    77  GLU77       0.3649
     78  OE1       -3.6480   17.4540  -24.7600 O.co2  77  GLU77      -0.2457
     79  OE2       -1.5180   17.8790  -25.1140 O.co2  77  GLU77      -0.2457
@<TRIPOS>BOND
     1    13    12    1
     2    10    11    2
     3    10     9    1
     4     9    12    1
     5     9     8    1
     6    69    68    1
     7    12    14    1
     8    23    21   ar
     9    22    21   ar
    10    21    20    1
    11    66    67    1
    12    66    65    1
    13    68    67    2
    14    68    70    1
    15    15    16    1
    16    65    64    1
    17    20    19    1
    18    19    16    1
    19    16    17    1
    20    18    17    2
    21    64    61    1
    22    17    24   am
    23    62    61    1
    24    62    63    2
    25    61    60    1
    26    29    28    1
    27    79    77   ar
    28    78    77   ar
    29    24    25    1
    30    77    76    1
    31    60    54   am
    32     6     5    1
    33    25    28    1
    34    25    26    1
    35    55    54    2
    36     3     4    2
    37     3     2    1
    38    54    53    1
    39    76    75    1
    40     2     5    1
    41     2     1    1
    42     5     7    1
    43    58    57    1
    44    26    27    2
    45    26    30   am
    46    75    72    1
    47    53    52    1
    48    53    56    1
    49    30    31    1
    50    57    56    1
    51    57    59    1
    52    52    45   am
    53    72    71    1
    54    72    73    1
    55    74    73    2
    56    31    34    1
    57    31    32    1
    58    45    44    1
    59    45    46    2
    60    47    44    1
    61    47    48    1
    62    49    48    1
    63    49    50    1
    64    51    50    1
    65    33    32    2
    66    44    43    1
    67    42    40    1
    68    40    41    1
    69    40    39    1
    70    38    37    2
    71    37    36    1
    72    39    36    1
    73    36    35    1
