@<TRIPOS>MOLECULE
tmp/5f6wA00.pdb
 79 73 0 0 0
SMALL
GASTEIGER

@<TRIPOS>ATOM
      1  N        144.2770   -6.2080  165.8780 N.3    24  VAL24      -0.1245
      2  CA       143.8210   -5.7790  164.5620 C.3    24  VAL24       0.1561
      3  C        145.0510   -5.5600  163.6890 C.2    24  VAL24       0.2260
      4  O        146.0550   -5.0450  164.1590 O.2    24  VAL24      -0.2867
      5  CB       142.9890   -4.4800  164.6400 C.3    24  VAL24       0.0252
      6  CG1      142.5970   -3.9980  163.2350 C.3    24  VAL24       0.0019
      7  CG2      141.7650   -4.6890  165.5180 C.3    24  VAL24       0.0019
      8  N        145.3980   -4.3340  159.5250 N.3    26  VAL26      -0.1245
      9  CA       144.7800   -4.1900  158.2060 C.3    26  VAL26       0.1561
     10  C        145.5780   -3.2440  157.3280 C.2    26  VAL26       0.2260
     11  O        146.0910   -2.2320  157.8000 O.2    26  VAL26      -0.2867
     12  CB       143.3150   -3.6820  158.3140 C.3    26  VAL26       0.0252
     13  CG1      142.4510   -4.6690  159.0880 C.3    26  VAL26       0.0019
     14  CG2      143.2610   -2.3270  158.9840 C.3    26  VAL26       0.0019
     15  N        147.6400   -0.5250  159.3960 N.3    41  GLU41      -0.1231
     16  CA       147.2120    0.0280  160.6750 C.3    41  GLU41       0.1699
     17  C        146.8540   -1.1290  161.6040 C.2    41  GLU41       0.2592
     18  O        146.0400   -1.9900  161.2600 O.2    41  GLU41      -0.2718
     19  CB       146.0510    1.0050  160.4760 C.3    41  GLU41       0.0402
     20  CG       146.5650    2.3550  159.9840 C.3    41  GLU41       0.1161
     21  CD       145.5280    3.2170  159.2990 C.2    41  GLU41       0.3649
     22  OE1      144.3600    2.7900  159.1420 O.co2  41  GLU41      -0.2457
     23  OE2      145.9030    4.3420  158.9220 O.co2  41  GLU41      -0.2457
     24  N        147.4960   -1.1570  162.7750 N.am   42  CYS42      -0.1956
     25  CA       147.3650   -2.2760  163.7060 C.3    42  CYS42       0.1843
     26  C        146.9730   -1.7950  165.0800 C.2    42  CYS42       0.2625
     27  O        147.1200   -0.6170  165.3980 O.2    42  CYS42      -0.2714
     28  CB       148.6760   -3.0640  163.8170 C.3    42  CYS42       0.0997
     29  SG       149.3610   -3.5250  162.2260 S.3    42  CYS42      -0.0797
     30  N        146.4660   -2.7170  165.8900 N.am   43  ALA43      -0.1977
     31  CA       146.1840   -2.4040  167.2860 C.3    43  ALA43       0.1597
     32  C        146.5190   -3.6070  168.1270 C.2    43  ALA43       0.2287
     33  O        146.2350   -4.7520  167.7540 O.2    43  ALA43      -0.2864
     34  CB       144.7400   -1.9980  167.4790 C.3    43  ALA43       0.0319
     35  N        144.0930   -0.3680  174.3880 N.3    56  LEU56      -0.1245
     36  CA       144.2410   -0.8350  173.0230 C.3    56  LEU56       0.1561
     37  C        145.1960    0.1150  172.3360 C.2    56  LEU56       0.2260
     38  O        144.8990    1.2950  172.1790 O.2    56  LEU56      -0.2867
     39  CB       142.8970   -0.8890  172.2950 C.3    56  LEU56       0.0270
     40  CG       142.9820   -1.4150  170.8540 C.3    56  LEU56       0.0019
     41  CD1      143.4690   -2.8690  170.8480 C.3    56  LEU56       0.0001
     42  CD2      141.6300   -1.2740  170.1600 C.3    56  LEU56       0.0001
     43  N        147.4610    1.5090  169.4080 N.3    58  LYS58      -0.1231
     44  CA       147.4720    1.5580  167.9550 C.3    58  LYS58       0.1693
     45  C        148.8690    1.7920  167.4210 C.2    58  LYS58       0.2592
     46  O        149.6520    2.5560  167.9990 O.2    58  LYS58      -0.2718
     47  CB       146.5010    2.6340  167.4840 C.3    58  LYS58       0.0285
     48  CG       145.0790    2.3190  167.9650 C.3    58  LYS58       0.0035
     49  CD       144.0230    3.2930  167.4880 C.3    58  LYS58       0.0206
     50  CE       142.6300    2.7970  167.9280 C.3    58  LYS58       0.1093
     51  NZ       141.5430    3.6980  167.4590 N.3    58  LYS58      -0.1314
     52  N        149.2050    1.0950  166.3390 N.am   59  LEU59      -0.1966
     53  CA       150.4840    1.3350  165.7090 C.3    59  LEU59       0.1728
     54  C        150.4500    1.0760  164.2180 C.2    59  LEU59       0.2616
     55  O        149.6530    0.2800  163.7050 O.2    59  LEU59      -0.2715
     56  CB       151.5790    0.4940  166.3590 C.3    59  LEU59       0.0311
     57  CG       151.7240   -0.9850  166.0480 C.3    59  LEU59       0.0022
     58  CD1      153.0860   -1.4350  166.5560 C.3    59  LEU59       0.0001
     59  CD2      150.6140   -1.7960  166.6820 C.3    59  LEU59       0.0001
     60  N        151.3430    1.7730  163.5370 N.am   60  ARG60      -0.1977
     61  CA       151.4900    1.6410  162.1010 C.3    60  ARG60       0.1597
     62  C        152.6650    0.7300  161.7900 C.2    60  ARG60       0.2287
     63  O        153.7150    0.8100  162.4340 O.2    60  ARG60      -0.2864
     64  CB       151.6900    3.0170  161.4590 C.3    60  ARG60       0.0334
     65  CG       151.6310    2.9980  159.9390 C.3    60  ARG60       0.0492
     66  CD       151.5820    4.4080  159.3560 C.3    60  ARG60       0.2205
     67  NE       150.4980    5.1970  159.9510 N.pl3  60  ARG60      -0.0865
     68  CZ       149.2320    5.1690  159.5380 C.cat  60  ARG60       0.5346
     69  NH1      148.8740    4.3950  158.5220 N.pl3  60  ARG60       0.1354
     70  NH2      148.3220    5.9210  160.1450 N.pl3  60  ARG60       0.1354
     71  N        151.2000    5.0650  167.2550 N.3    77  GLU77      -0.1245
     72  CA       150.5220    6.3230  166.9610 C.3    77  GLU77       0.1567
     73  C        149.2420    6.4150  167.7840 C.2    77  GLU77       0.2260
     74  O        148.2770    5.7010  167.5050 O.2    77  GLU77      -0.2867
     75  CB       150.1890    6.4240  165.4740 C.3    77  GLU77       0.0388
     76  CG       151.3930    6.5130  164.5840 C.3    77  GLU77       0.1160
     77  CD       151.0250    6.7130  163.1170 C.2    77  GLU77       0.3649
     78  OE1      151.9550    6.8090  162.2940 O.co2  77  GLU77      -0.2457
     79  OE2      149.8180    6.7640  162.7970 O.co2  77  GLU77      -0.2457
@<TRIPOS>BOND
     1    10    11    2
     2    10     9    1
     3     9    12    1
     4     9     8    1
     5    12    14    1
     6    12    13    1
     7    69    68    1
     8    23    21   ar
     9    22    21   ar
    10    21    20    1
    11    66    65    1
    12    66    67    1
    13    15    16    1
    14    68    67    2
    15    68    70    1
    16    65    64    1
    17    20    19    1
    18    19    16    1
    19    16    17    1
    20    18    17    2
    21    64    61    1
    22    17    24   am
    23    62    61    1
    24    62    63    2
    25    61    60    1
    26    29    28    1
    27    78    77   ar
    28    24    25    1
    29    79    77   ar
    30    77    76    1
    31     6     5    1
    32    60    54   am
    33     3     4    2
    34     3     2    1
    35    55    54    2
    36    25    28    1
    37    25    26    1
    38    54    53    1
    39     2     5    1
    40     2     1    1
    41    76    75    1
    42     5     7    1
    43    26    27    2
    44    26    30   am
    45    75    72    1
    46    53    52    1
    47    53    56    1
    48    30    31    1
    49    57    56    1
    50    57    58    1
    51    57    59    1
    52    52    45   am
    53    72    71    1
    54    72    73    1
    55    31    34    1
    56    31    32    1
    57    45    44    1
    58    45    46    2
    59    51    50    1
    60    47    44    1
    61    47    48    1
    62    49    50    1
    63    49    48    1
    64    74    73    2
    65    33    32    2
    66    44    43    1
    67    42    40    1
    68    41    40    1
    69    40    39    1
    70    38    37    2
    71    39    36    1
    72    37    36    1
    73    36    35    1
