@<TRIPOS>MOLECULE
tmp/5f74A00.pdb
 181 165 0 0 0
SMALL
GASTEIGER

@<TRIPOS>ATOM
      1  N         20.9950   35.9810   -3.9030 N.3    43  ASN43      -0.1240
      2  CA        19.9980   36.9780   -3.5270 C.3    43  ASN43       0.1653
      3  C         18.5550   36.5320   -3.8200 C.2    43  ASN43       0.2266
      4  O         17.6420   36.8520   -3.0630 O.2    43  ASN43      -0.2867
      5  CB        20.3120   38.3140   -4.2060 C.3    43  ASN43       0.1155
      6  CG        21.5990   38.9530   -3.6640 C.2    43  ASN43       0.2627
      7  OD1       22.5260   39.2630   -4.4160 O.2    43  ASN43      -0.2716
      8  ND2       21.6570   39.1370   -2.3530 N.am   43  ASN43      -0.0877
      9  N         17.6610   34.2200   -0.9130 N.3    46  SER46      -0.1217
     10  CA        17.3970   35.0150    0.2730 C.3    46  SER46       0.1889
     11  C         16.0380   35.7180    0.2170 C.2    46  SER46       0.2288
     12  O         15.2570   35.6250    1.1600 O.2    46  SER46      -0.2866
     13  CB        18.5130   36.0300    0.4700 C.3    46  SER46       0.2089
     14  OG        18.3990   36.6260    1.7400 O.3    46  SER46      -0.2183
     15  N         12.9100   34.8680    2.7500 N.3    50  LYS50      -0.1245
     16  CA        12.5520   36.0170    3.5660 C.3    50  LYS50       0.1561
     17  C         11.0470   36.3270    3.4780 C.2    50  LYS50       0.2260
     18  O         10.4060   36.7110    4.4700 O.2    50  LYS50      -0.2867
     19  CB        13.3570   37.2340    3.1230 C.3    50  LYS50       0.0271
     20  CG        13.0140   38.5110    3.8650 C.3    50  LYS50       0.0035
     21  CD        13.5080   38.4290    5.3180 C.3    50  LYS50       0.0206
     22  CE        13.4250   39.7790    6.0230 C.3    50  LYS50       0.1093
     23  NZ        13.7690   39.6880    7.4680 N.3    50  LYS50      -0.1314
     24  N          5.5990   34.8520    9.9270 N.3    57  ARG57      -0.1245
     25  CA         5.9470   35.7110   11.0620 C.3    57  ARG57       0.1563
     26  C          4.8770   36.7710   11.2550 C.2    57  ARG57       0.2260
     27  O          4.4410   37.0520   12.3740 O.2    57  ARG57      -0.2867
     28  CB         7.3240   36.3750   10.8670 C.3    57  ARG57       0.0307
     29  CG         8.4590   35.3680   10.7140 C.3    57  ARG57       0.0489
     30  CD         9.7950   36.0430   10.4590 C.3    57  ARG57       0.2205
     31  NE        10.0980   37.0310   11.4850 N.pl3  57  ARG57      -0.0865
     32  CZ        10.7940   38.1380   11.2590 C.cat  57  ARG57       0.5346
     33  NH1       11.2390   38.4080   10.0380 N.pl3  57  ARG57       0.1354
     34  NH2       11.0420   38.9770   12.2460 N.pl3  57  ARG57       0.1354
     35  N          2.2510   37.1490   14.4450 N.3    61  ARG61      -0.1245
     36  CA         2.1440   38.3710   15.2240 C.3    61  ARG61       0.1563
     37  C          0.7010   38.8540   15.3310 C.2    61  ARG61       0.2260
     38  O          0.2660   39.2760   16.4090 O.2    61  ARG61      -0.2867
     39  CB         3.0220   39.4600   14.6180 C.3    61  ARG61       0.0307
     40  CG         4.4900   39.3050   14.9390 C.3    61  ARG61       0.0489
     41  CD         5.3220   40.3940   14.3040 C.3    61  ARG61       0.2205
     42  NE         6.7290   40.2390   14.6670 N.pl3  61  ARG61      -0.0865
     43  CZ         7.6390   41.2030   14.5830 C.cat  61  ARG61       0.5346
     44  NH1        7.2990   42.4050   14.1430 N.pl3  61  ARG61       0.1354
     45  NH2        8.8950   40.9640   14.9410 N.pl3  61  ARG61       0.1354
     46  N         27.5510   36.3880    4.5540 N.3   116  PHE116     -0.1241
     47  CA        26.1720   36.4940    4.1020 C.3   116  PHE116      0.1605
     48  C         25.3810   35.2750    4.5820 C.2   116  PHE116      0.2264
     49  O         24.3060   35.4060    5.1540 O.2   116  PHE116     -0.2867
     50  CB        26.1220   36.6170    2.5720 C.3   116  PHE116      0.0534
     51  CG        24.7310   36.6530    2.0070 C.ar  116  PHE116     -0.0203
     52  CD1       24.0100   35.4820    1.8090 C.ar  116  PHE116     -0.0042
     53  CD2       24.1420   37.8580    1.6630 C.ar  116  PHE116     -0.0042
     54  CE1       22.7250   35.5110    1.2900 C.ar  116  PHE116     -0.0003
     55  CE2       22.8510   37.8920    1.1460 C.ar  116  PHE116     -0.0003
     56  CZ        22.1480   36.7160    0.9600 C.ar  116  PHE116     -0.0000
     57  N         25.1440   35.1180    8.4880 N.3   119  LYS119     -0.1231
     58  CA        24.1180   36.0740    8.9170 C.3   119  LYS119      0.1693
     59  C         22.7060   35.5130    8.6850 C.2   119  LYS119      0.2591
     60  O         21.8090   35.6230    9.5280 O.2   119  LYS119     -0.2718
     61  CB        24.2940   37.4030    8.1710 C.3   119  LYS119      0.0285
     62  CG        23.1040   38.3420    8.2690 C.3   119  LYS119      0.0035
     63  CD        23.2530   39.5100    7.2960 C.3   119  LYS119      0.0206
     64  CE        21.9880   40.3610    7.2470 C.3   119  LYS119      0.1093
     65  NZ        20.8380   39.6530    6.5840 N.3   119  LYS119     -0.1314
     66  N         22.5200   34.9150    7.5210 N.am  120  MET120     -0.1979
     67  CA        21.2800   34.2190    7.1920 C.3   120  MET120      0.1605
     68  C         20.9370   33.1620    8.2440 C.2   120  MET120      0.2287
     69  O         19.7820   33.0570    8.6820 O.2   120  MET120     -0.2864
     70  CB        21.4170   33.5770    5.8150 C.3   120  MET120      0.0413
     71  CG        20.1550   33.4260    5.0610 C.3   120  MET120      0.0598
     72  SD        20.4660   33.0690    3.3060 S.3   120  MET120     -0.1393
     73  CE        18.8270   32.4720    2.8840 C.3   120  MET120      0.0692
     74  N         19.8240   34.8650   11.2980 N.3   123  ASP123     -0.1239
     75  CA        18.4440   35.2970   11.0620 C.3   123  ASP123      0.1674
     76  C         17.4260   34.1720   11.2620 C.2   123  ASP123      0.2266
     77  O         16.4410   34.3500   11.9830 O.2   123  ASP123     -0.2867
     78  CB        18.2940   35.8690    9.6460 C.3   123  ASP123      0.1410
     79  CG        19.0510   37.1730    9.4590 C.2   123  ASP123      0.3668
     80  OD1       19.2710   37.8880   10.4560 O.co2 123  ASP123     -0.2456
     81  OD2       19.4150   37.4980    8.3150 O.co2 123  ASP123     -0.2456
     82  N         17.1310   33.1030   14.6790 N.3   126  ARG126     -0.1231
     83  CA        16.4330   34.1820   15.3740 C.3   126  ARG126      0.1694
     84  C         14.9250   34.0730   15.1310 C.2   126  ARG126      0.2592
     85  O         14.1380   34.3140   16.0350 O.2   126  ARG126     -0.2718
     86  CB        16.9540   35.5700   14.9430 C.3   126  ARG126      0.0321
     87  CG        16.0990   36.7550   15.4650 C.3   126  ARG126      0.0489
     88  CD        16.8170   38.1010   15.3720 C.3   126  ARG126      0.2205
     89  NE        17.2660   38.4040   14.0160 N.pl3 126  ARG126     -0.0865
     90  CZ        16.5490   39.0770   13.1210 C.cat 126  ARG126      0.5346
     91  NH1       15.3380   39.5430   13.4410 N.pl3 126  ARG126      0.1354
     92  NH2       17.0450   39.2920   11.9040 N.pl3 126  ARG126      0.1354
     93  N         14.5120   33.7010   13.9240 N.am  127  TYR127     -0.1976
     94  CA        13.0780   33.5750   13.6760 C.3   127  TYR127      0.1639
     95  C         12.4960   32.3790   14.4510 C.2   127  TYR127      0.2290
     96  O         11.3930   32.4570   14.9630 O.2   127  TYR127     -0.2864
     97  CB        12.7760   33.4460   12.1730 C.3   127  TYR127      0.0560
     98  CG        13.3120   34.5920   11.3350 C.ar  127  TYR127     -0.0198
     99  CD1       13.4220   35.8630   11.8560 C.ar  127  TYR127     -0.0009
    100  CD2       13.7300   34.3870   10.0440 C.ar  127  TYR127     -0.0009
    101  CE1       13.9340   36.9000   11.1020 C.ar  127  TYR127      0.0417
    102  CE2       14.2380   35.4140    9.2840 C.ar  127  TYR127      0.0417
    103  CZ        14.3350   36.6640    9.8170 C.ar  127  TYR127      0.1957
    104  OH        14.8400   37.6810    9.0500 O.3   127  TYR127     -0.2866
    105  N         11.8790   33.6130   18.0000 N.3   130  GLU130     -0.1245
    106  CA        10.7190   34.4650   18.2310 C.3   130  GLU130      0.1567
    107  C          9.5020   33.6670   18.7170 C.2   130  GLU130      0.2260
    108  O          8.6690   34.1860   19.4650 O.2   130  GLU130     -0.2867
    109  CB        10.3660   35.2490   16.9640 C.3   130  GLU130      0.0388
    110  CG        11.2330   36.4920   16.7170 C.3   130  GLU130      0.1160
    111  CD        11.0510   37.0640   15.3100 C.2   130  GLU130      0.3649
    112  OE1       10.4240   36.3980   14.4670 O.co2 130  GLU130     -0.2457
    113  OE2       11.5400   38.1810   15.0400 O.co2 130  GLU130     -0.2457
    114  N         26.7750   44.0770    3.3410 N.3   165  ILE165     -0.1245
    115  CA        26.6400   42.8190    4.0720 C.3   165  ILE165      0.1561
    116  C         27.1190   42.9880    5.5170 C.2   165  ILE165      0.2260
    117  O         26.4610   42.5510    6.4650 O.2   165  ILE165     -0.2867
    118  CB        27.4400   41.6740    3.4140 C.3   165  ILE165      0.0252
    119  CG1       27.0880   41.5370    1.9290 C.3   165  ILE165      0.0019
    120  CG2       27.2100   40.3620    4.1650 C.3   165  ILE165      0.0019
    121  CD1       25.6410   41.3140    1.6790 C.3   165  ILE165      0.0001
    122  N         24.4780   45.1870    7.2210 N.3   168  GLY168     -0.1225
    123  CA        23.2740   44.3970    7.4110 C.3   168  GLY168      0.1811
    124  C         23.4150   43.4160    8.5560 C.2   168  GLY168      0.2280
    125  O         22.5090   43.2590    9.3930 O.2   168  GLY168     -0.2866
    126  N         23.1550   45.3360   11.6800 N.3   171  LEU171     -0.1231
    127  CA        21.7600   45.7040   11.9410 C.3   171  LEU171      0.1693
    128  C         21.0060   44.5530   12.5940 C.2   171  LEU171      0.2592
    129  O         20.3530   44.7310   13.6210 O.2   171  LEU171     -0.2718
    130  CB        21.0520   46.1110   10.6490 C.3   171  LEU171      0.0284
    131  CG        19.5880   46.5610   10.7350 C.3   171  LEU171      0.0019
    132  CD1       19.4480   47.9300   11.4050 C.3   171  LEU171      0.0001
    133  CD2       18.9890   46.5920    9.3290 C.3   171  LEU171      0.0001
    134  N         21.1020   43.3680   11.9960 N.am  172  ASN172     -0.1974
    135  CA        20.3400   42.2250   12.4860 C.3   172  ASN172      0.1688
    136  C         20.8540   41.6830   13.8270 C.2   172  ASN172      0.2292
    137  O         20.0700   41.2860   14.6980 O.2   172  ASN172     -0.2864
    138  CB        20.3340   41.1290   11.4250 C.3   172  ASN172      0.1181
    139  CG        19.4960   41.5130   10.2070 C.2   172  ASN172      0.2629
    140  OD1       19.1770   42.6850   10.0200 O.2   172  ASN172     -0.2716
    141  ND2       19.1220   40.5290    9.3920 N.am  172  ASN172     -0.0877
    142  N         19.5670   43.8000   16.4150 N.3   175  VAL175     -0.1245
    143  CA        18.1520   43.4680   16.6000 C.3   175  VAL175      0.1561
    144  C         18.0270   42.1920   17.4130 C.2   175  VAL175      0.2260
    145  O         17.1140   42.0380   18.2170 O.2   175  VAL175     -0.2867
    146  CB        17.4180   43.2870   15.2570 C.3   175  VAL175      0.0252
    147  CG1       16.1060   42.5670   15.4550 C.3   175  VAL175      0.0019
    148  CG2       17.2090   44.6270   14.5580 C.3   175  VAL175      0.0019
    149  N         15.7850   42.2860   20.6940 N.3   179  GLU179     -0.1245
    150  CA        14.4910   41.6290   20.7230 C.3   179  GLU179      0.1567
    151  C         14.5780   40.2300   21.2900 C.2   179  GLU179      0.2260
    152  O         13.6110   39.7330   21.8520 O.2   179  GLU179     -0.2867
    153  CB        13.8770   41.5980   19.3230 C.3   179  GLU179      0.0388
    154  CG        13.5020   42.9700   18.8020 C.3   179  GLU179      0.1160
    155  CD        12.8030   42.9120   17.4610 C.2   179  GLU179      0.3649
    156  OE1       12.5390   41.7910   16.9910 O.co2 179  GLU179     -0.2457
    157  OE2       12.5150   43.9830   16.8780 O.co2 179  GLU179     -0.2457
    158  N         21.3300   51.2460    4.6640 N.3   216  ILE216     -0.1245
    159  CA        21.4670   50.4490    5.8810 C.3   216  ILE216      0.1561
    160  C         22.0250   51.3090    7.0100 C.2   216  ILE216      0.2260
    161  O         21.5770   51.1900    8.1560 O.2   216  ILE216     -0.2867
    162  CB        22.3370   49.2000    5.6670 C.3   216  ILE216      0.0252
    163  CG1       21.6580   48.2680    4.6600 C.3   216  ILE216      0.0019
    164  CG2       22.5260   48.4570    6.9850 C.3   216  ILE216      0.0019
    165  CD1       22.6220   47.3190    3.9800 C.3   216  ILE216      0.0001
    166  N         19.0230   52.7890    8.4320 N.3   219  LEU219     -0.1245
    167  CA        18.2350   51.8780    9.2610 C.3   219  LEU219      0.1561
    168  C         18.8650   51.7190   10.6380 C.2   219  LEU219      0.2260
    169  O         18.1690   51.5560   11.6500 O.2   219  LEU219     -0.2867
    170  CB        18.1040   50.5190    8.5800 C.3   219  LEU219      0.0270
    171  CG        17.4080   50.4930    7.2220 C.3   219  LEU219      0.0019
    172  CD1       17.4550   49.1080    6.6240 C.3   219  LEU219      0.0001
    173  CD2       15.9710   50.9740    7.3490 C.3   219  LEU219      0.0001
    174  N         16.7780   52.4680   13.9630 N.3   223  ASN223     -0.1240
    175  CA        16.5720   51.5060   15.0440 C.3   223  ASN223      0.1653
    176  C         17.0250   52.1230   16.3450 C.2   223  ASN223      0.2266
    177  O         16.3530   52.0200   17.3700 O.2   223  ASN223     -0.2867
    178  CB        17.3260   50.1880   14.7900 C.3   223  ASN223      0.1155
    179  CG        16.6440   49.3110   13.7530 C.2   223  ASN223      0.2627
    180  OD1       15.6090   49.6750   13.1980 O.2   223  ASN223     -0.2716
    181  ND2       17.2310   48.1590   13.4740 N.am  223  ASN223     -0.0877
@<TRIPOS>BOND
     1     7     6    2
     2     5     6    1
     3     5     2    1
     4     1     2    1
     5     3     2    1
     6     3     4    2
     7     6     8   am
     8     9    10    1
     9    11    10    1
    10    11    12    2
    11    10    13    1
    12    13    14    1
    13    56    55   ar
    14    56    54   ar
    15    55    53   ar
    16    54    52   ar
    17    53    51   ar
    18   121   119    1
    19    52    51   ar
    20   119   118    1
    21    51    50    1
    22    50    47    1
    23    15    16    1
    24    73    72    1
    25    19    16    1
    26    19    20    1
    27    72    71    1
    28   114   115    1
    29   118   115    1
    30   118   120    1
    31    17    16    1
    32    17    18    2
    33    20    21    1
    34   165   163    1
    35   115   116    1
    36    47    46    1
    37    47    48    1
    38    48    49    2
    39   163   162    1
    40   158   159    1
    41    71    70    1
    42    21    22    1
    43   116   117    2
    44   162   159    1
    45   162   164    1
    46    70    67    1
    47   159   160    1
    48    22    23    1
    49    65    64    1
    50   172   171    1
    51   160   161    2
    52    67    66    1
    53    67    68    1
    54   122   123    1
    55   171   173    1
    56   171   170    1
    57    64    63    1
    58    63    62    1
    59   123   124    1
    60    66    59   am
    61    61    62    1
    62    61    58    1
    63    68    69    2
    64    81    79   ar
    65   166   167    1
    66    57    58    1
    67   124   125    2
    68   170   167    1
    69    59    58    1
    70    59    60    2
    71   104   103    1
    72   167   168    1
    73   102   103   ar
    74   102   100   ar
    75   133   131    1
    76   141   139   am
    77    79    78    1
    78    79    80   ar
    79    78    75    1
    80   103   101   ar
    81    24    25    1
    82   140   139    2
    83    33    32    1
    84   100    98   ar
    85   139   138    1
    86    30    29    1
    87    30    31    1
    88   168   169    2
    89   130   131    1
    90   130   127    1
    91    29    28    1
    92   131   132    1
    93    28    25    1
    94    25    26    1
    95    75    76    1
    96    75    74    1
    97   101    99   ar
    98    26    27    2
    99    32    31    2
   100    32    34    1
   101    76    77    2
   102    98    99   ar
   103    98    97    1
   104   138   135    1
   105   126   127    1
   106    92    90    1
   107   127   128    1
   108   134   135    1
   109   134   128   am
   110    97    94    1
   111   135   136    1
   112   128   129    2
   113    90    91    1
   114    90    89    2
   115   180   179    2
   116   181   179   am
   117    94    93    1
   118    94    95    1
   119   179   178    1
   120   136   137    2
   121    93    84   am
   122   174   175    1
   123    89    88    1
   124    44    43    1
   125    41    42    1
   126    41    40    1
   127    35    36    1
   128    95    96    2
   129   112   111   ar
   130   148   146    1
   131    43    42    2
   132    43    45    1
   133    39    40    1
   134    39    36    1
   135    82    83    1
   136   178   175    1
   137    86    83    1
   138    86    87    1
   139   113   111   ar
   140   175   176    1
   141    84    83    1
   142    84    85    2
   143    36    37    1
   144   146   147    1
   145   146   143    1
   146   111   110    1
   147    37    38    2
   148    88    87    1
   149   176   177    2
   150   142   143    1
   151   143   144    1
   152   110   109    1
   153   157   155   ar
   154   109   106    1
   155   156   155   ar
   156   144   145    2
   157   155   154    1
   158   105   106    1
   159   106   107    1
   160   107   108    2
   161   154   153    1
   162   153   150    1
   163   149   150    1
   164   150   151    1
   165   151   152    2
