@<TRIPOS>MOLECULE
tmp/5f76B00.pdb
 163 154 0 0 0
SMALL
GASTEIGER

@<TRIPOS>ATOM
      1  N         19.9170  -24.1980   40.3850 N.3    10  THR10      -0.1218
      2  CA        21.3080  -24.3470   40.7960 C.3    10  THR10       0.1862
      3  C         21.3920  -24.3880   42.3130 C.2    10  THR10       0.2287
      4  O         20.6710  -23.6670   43.0020 O.2    10  THR10      -0.2866
      5  CB        22.1470  -23.1880   40.2450 C.3    10  THR10       0.1770
      6  OG1       22.3290  -23.3630   38.8390 O.3    10  THR10      -0.2211
      7  CG2       23.5160  -23.1130   40.9220 C.3    10  THR10       0.0375
      8  N         17.1270  -28.8010   36.7690 N.3    53  HIS53      -0.1241
      9  CA        18.1400  -29.2720   35.8230 C.3    53  HIS53       0.1621
     10  C         18.4420  -30.7620   35.9480 C.2    53  HIS53       0.2264
     11  O         19.3900  -31.2510   35.3110 O.2    53  HIS53      -0.2867
     12  CB        19.4230  -28.4660   36.0090 C.3    53  HIS53       0.0745
     13  CG        19.2160  -26.9880   35.8740 C.ar   53  HIS53       0.0817
     14  ND1       19.3800  -26.3200   34.6810 N.ar   53  HIS53      -0.2268
     15  CD2       18.8250  -26.0580   36.7780 C.ar   53  HIS53       0.1154
     16  CE1       19.1110  -25.0370   34.8580 C.ar   53  HIS53       0.1986
     17  NE2       18.7680  -24.8530   36.1220 N.ar   53  HIS53      -0.2212
     18  N         22.6220  -31.8880   36.9820 N.3    57  HIS57      -0.1241
     19  CA        22.6260  -30.5940   36.2880 C.3    57  HIS57       0.1621
     20  C         23.1300  -30.7480   34.8570 C.2    57  HIS57       0.2264
     21  O         23.9790  -29.9870   34.3770 O.2    57  HIS57      -0.2867
     22  CB        23.4450  -29.5410   37.0480 C.3    57  HIS57       0.0745
     23  CG        23.0140  -28.1340   36.7760 C.ar   57  HIS57       0.0817
     24  ND1       22.3530  -27.3640   37.7110 N.ar   57  HIS57      -0.2268
     25  CD2       23.1310  -27.3600   35.6680 C.ar   57  HIS57       0.1154
     26  CE1       22.0730  -26.1830   37.1900 C.ar   57  HIS57       0.1986
     27  NE2       22.5370  -26.1530   35.9520 N.ar   57  HIS57      -0.2212
     28  N         19.4400  -24.3960   30.7420 N.3    61  PRO61      -0.2116
     29  CA        18.1750  -23.6500   30.8710 C.3    61  PRO61       0.1372
     30  C         17.2860  -23.7140   29.6380 C.2    61  PRO61       0.2244
     31  O         16.0640  -23.8710   29.7750 O.2    61  PRO61      -0.2868
     32  CB        18.6630  -22.2240   31.1570 C.3    61  PRO61       0.0268
     33  CG        19.9640  -22.4310   31.8980 C.3    61  PRO61       0.0207
     34  CD        20.5980  -23.5900   31.1740 C.3    61  PRO61       0.0892
     35  N         18.9250  -18.8510   40.6520 N.3    86  ALA86      -0.1231
     36  CA        20.1850  -18.1220   40.7830 C.3    86  ALA86       0.1694
     37  C         20.2570  -17.0030   39.7440 C.2    86  ALA86       0.2592
     38  O         19.7410  -17.1320   38.6340 O.2    86  ALA86      -0.2718
     39  CB        21.3680  -19.0780   40.6120 C.3    86  ALA86       0.0304
     40  N         20.9090  -15.8940   40.1000 N.am   87  CYS87      -0.1956
     41  CA        20.8530  -14.7200   39.2360 C.3    87  CYS87       0.1843
     42  C         22.0510  -13.8150   39.4900 C.2    87  CYS87       0.2626
     43  O         22.7390  -13.9320   40.5030 O.2    87  CYS87      -0.2714
     44  CB        19.5610  -13.9240   39.4520 C.3    87  CYS87       0.0997
     45  SG        19.5210  -13.0980   41.0640 S.3    87  CYS87      -0.0797
     46  N         22.2800  -12.9030   38.5520 N.am   88  GLY88      -0.1954
     47  CA        23.2610  -11.8370   38.7050 C.3    88  GLY88       0.1869
     48  C         22.5680  -10.5060   38.9420 C.2    88  GLY88       0.2309
     49  O         21.4930  -10.2560   38.4000 O.2    88  GLY88      -0.2863
     50  N         17.2400  -14.2490   30.1760 N.3   180  ILE180     -0.1245
     51  CA        17.9690  -14.4460   28.9320 C.3   180  ILE180      0.1561
     52  C         18.0170  -15.9390   28.6410 C.2   180  ILE180      0.2260
     53  O         17.8340  -16.7820   29.5270 O.2   180  ILE180     -0.2867
     54  CB        19.3900  -13.8440   28.9970 C.3   180  ILE180      0.0252
     55  CG1       20.1760  -14.4370   30.1730 C.3   180  ILE180      0.0019
     56  CG2       19.3390  -12.2950   29.0750 C.3   180  ILE180      0.0019
     57  CD1       21.6470  -14.0120   30.1840 C.3   180  ILE180      0.0001
     58  N         23.1190  -20.4370   26.7860 N.3   183  PRO183     -0.2116
     59  CA        23.8180  -20.7310   28.0380 C.3   183  PRO183      0.1372
     60  C         24.8780  -19.6930   28.4190 C.2   183  PRO183      0.2244
     61  O         25.2910  -19.6990   29.5670 O.2   183  PRO183     -0.2868
     62  CB        24.4830  -22.0800   27.7480 C.3   183  PRO183      0.0268
     63  CG        24.7700  -22.0160   26.2630 C.3   183  PRO183      0.0207
     64  CD        23.5280  -21.3560   25.7060 C.3   183  PRO183      0.0892
     65  N         26.7980  -16.2430   29.5160 N.3   185  PHE185     -0.1227
     66  CA        26.4820  -15.0500   30.2920 C.3   185  PHE185      0.1736
     67  C         26.4380  -13.8240   29.3680 C.2   185  PHE185      0.2596
     68  O         26.8600  -13.8710   28.2110 O.2   185  PHE185     -0.2718
     69  CB        27.5030  -14.8460   31.4180 C.3   185  PHE185      0.0547
     70  CG        27.4920  -15.9380   32.4670 C.ar  185  PHE185     -0.0202
     71  CD1       26.4230  -16.0710   33.3470 C.ar  185  PHE185     -0.0042
     72  CD2       28.5690  -16.8070   32.5940 C.ar  185  PHE185     -0.0042
     73  CE1       26.4180  -17.0760   34.3230 C.ar  185  PHE185     -0.0003
     74  CE2       28.5740  -17.8100   33.5630 C.ar  185  PHE185     -0.0003
     75  CZ        27.4920  -17.9510   34.4260 C.ar  185  PHE185     -0.0000
     76  N         25.9030  -12.7170   29.8880 N.am  186  SER186     -0.1952
     77  CA        25.7270  -11.5100   29.0900 C.3   186  SER186      0.1924
     78  C         27.0670  -10.8380   28.8150 C.2   186  SER186      0.2314
     79  O         28.0180  -10.9650   29.5900 O.2   186  SER186     -0.2863
     80  CB        24.8130  -10.5140   29.8070 C.3   186  SER186      0.2116
     81  OG        23.5850  -11.1200   30.2080 O.3   186  SER186     -0.2180
     82  N         19.3780  -10.5990   36.4780 N.3   202  VAL202     -0.1231
     83  CA        19.3840  -11.3520   35.2280 C.3   202  VAL202      0.1692
     84  C         19.5580  -12.8330   35.5490 C.2   202  VAL202      0.2592
     85  O         20.3180  -13.2040   36.4520 O.2   202  VAL202     -0.2718
     86  CB        20.4840  -10.8450   34.2630 C.3   202  VAL202      0.0266
     87  CG1       21.8330  -10.7220   34.9730 C.3   202  VAL202      0.0020
     88  CG2       20.5860  -11.7500   33.0170 C.3   202  VAL202      0.0020
     89  N         18.8430  -13.6780   34.8120 N.am  203  ASN203     -0.1960
     90  CA        18.7180  -15.0960   35.1230 C.3   203  ASN203      0.1819
     91  C         18.2430  -15.7900   33.8520 C.2   203  ASN203      0.2621
     92  O         17.8180  -15.1320   32.9030 O.2   203  ASN203     -0.2715
     93  CB        17.7750  -15.2840   36.3260 C.3   203  ASN203      0.1195
     94  CG        17.0230  -16.5950   36.3000 C.2   203  ASN203      0.2630
     95  OD1       15.9780  -16.7080   35.6590 O.2   203  ASN203     -0.2716
     96  ND2       17.5490  -17.5950   37.0000 N.am  203  ASN203     -0.0877
     97  N         18.3480  -17.1290   33.8240 N.am  204  MET204     -0.1963
     98  CA        18.0580  -17.8940   32.6130 C.3   204  MET204      0.1736
     99  C         16.8720  -18.8480   32.7100 C.2   204  MET204      0.2617
    100  O         16.5760  -19.5260   31.7150 O.2   204  MET204     -0.2715
    101  CB        19.2810  -18.7230   32.1900 C.3   204  MET204      0.0427
    102  CG        20.5410  -17.9050   31.8650 C.3   204  MET204      0.0599
    103  SD        21.9810  -18.9700   31.5640 S.3   204  MET204     -0.1393
    104  CE        23.2700  -17.7110   31.4470 C.3   204  MET204      0.0692
    105  N         16.1820  -18.9310   33.8580 N.am  205  THR205     -0.1951
    106  CA        15.2280  -20.0170   34.0980 C.3   205  THR205      0.1897
    107  C         13.8330  -19.6000   34.5550 C.2   205  THR205      0.2313
    108  O         12.9430  -20.4600   34.5900 O.2   205  THR205     -0.2863
    109  CB        15.7940  -20.9930   35.1420 C.3   205  THR205      0.1794
    110  OG1       16.0770  -20.2790   36.3550 O.3   205  THR205     -0.2208
    111  CG2       17.0760  -21.6370   34.6300 C.3   205  THR205      0.0378
    112  N         23.8860  -14.5050   43.2050 N.3   227  THR227     -0.1203
    113  CA        25.1510  -15.2090   43.3440 C.3   227  THR227      0.1994
    114  C         26.3290  -14.4140   42.7960 C.2   227  THR227      0.2617
    115  O         27.4820  -14.7710   43.0650 O.2   227  THR227     -0.2717
    116  CB        25.0580  -16.5660   42.6410 C.3   227  THR227      0.1784
    117  OG1       24.7030  -16.3700   41.2700 O.3   227  THR227     -0.2211
    118  CG2       23.9800  -17.4290   43.2950 C.3   227  THR227      0.0376
    119  N         26.0640  -13.3360   42.0610 N.am  228  ASP228     -0.1973
    120  CA        27.1070  -12.5440   41.4240 C.3   228  ASP228      0.1709
    121  C         26.5320  -11.1850   41.0670 C.2   228  ASP228      0.2293
    122  O         25.3160  -11.0090   40.9800 O.2   228  ASP228     -0.2864
    123  CB        27.6340  -13.2290   40.1590 C.3   228  ASP228      0.1436
    124  CG        26.5160  -13.5680   39.1660 C.2   228  ASP228      0.3671
    125  OD1       25.8660  -14.6310   39.3300 O.co2 228  ASP228     -0.2456
    126  OD2       26.2970  -12.7780   38.2170 O.co2 228  ASP228     -0.2456
    127  N         26.2060   -9.0960   37.7950 N.3   230  ASP230     -0.1239
    128  CA        26.3970   -9.2330   36.3650 C.3   230  ASP230      0.1674
    129  C         27.5830   -8.3540   35.9610 C.2   230  ASP230      0.2266
    130  O         28.0360   -7.4940   36.7210 O.2   230  ASP230     -0.2867
    131  CB        25.1160   -8.8570   35.6220 C.3   230  ASP230      0.1410
    132  CG        25.0250   -9.4880   34.2340 C.2   230  ASP230      0.3668
    133  OD1       25.4260  -10.6630   34.0690 O.co2 230  ASP230     -0.2456
    134  OD2       24.5440   -8.8010   33.3100 O.co2 230  ASP230     -0.2456
    135  N         31.5290  -12.6740   36.8750 N.3   239  VAL239     -0.1245
    136  CA        30.6580  -13.8410   37.0020 C.3   239  VAL239      0.1561
    137  C         31.2360  -15.0210   36.2310 C.2   239  VAL239      0.2260
    138  O         31.7210  -14.8860   35.1000 O.2   239  VAL239     -0.2867
    139  CB        29.2240  -13.5290   36.5360 C.3   239  VAL239      0.0252
    140  CG1       29.2150  -13.0170   35.1080 C.3   239  VAL239      0.0019
    141  CG2       28.3350  -14.7780   36.6560 C.3   239  VAL239      0.0019
    142  N         30.8900  -19.7590   36.5140 N.3   241  VAL241     -0.1245
    143  CA        30.2130  -20.8740   37.1740 C.3   241  VAL241      0.1561
    144  C         30.7620  -21.0800   38.5820 C.2   241  VAL241      0.2260
    145  O         30.0040  -21.2710   39.5430 O.2   241  VAL241     -0.2867
    146  CB        30.3500  -22.1500   36.3210 C.3   241  VAL241      0.0252
    147  CG1       29.8630  -23.3660   37.0930 C.3   241  VAL241      0.0019
    148  CG2       29.5910  -22.0000   35.0160 C.3   241  VAL241      0.0019
    149  N         29.4700  -18.6260   41.1330 N.3   244  VAL244     -0.1231
    150  CA        28.0500  -18.8150   41.4170 C.3   244  VAL244      0.1692
    151  C         27.8640  -19.9600   42.4000 C.2   244  VAL244      0.2591
    152  O         27.1230  -19.8470   43.3840 O.2   244  VAL244     -0.2718
    153  CB        27.2650  -19.0580   40.1140 C.3   244  VAL244      0.0266
    154  CG1       25.8360  -19.4930   40.4190 C.3   244  VAL244      0.0020
    155  CG2       27.2750  -17.8050   39.2470 C.3   244  VAL244      0.0020
    156  N         28.5400  -21.0810   42.1500 N.am  245  LEU245     -0.1980
    157  CA        28.3920  -22.2380   43.0240 C.3   245  LEU245      0.1596
    158  C         28.9320  -21.9460   44.4180 C.2   245  LEU245      0.2287
    159  O         28.3730  -22.4140   45.4180 O.2   245  LEU245     -0.2864
    160  CB        29.1010  -23.4450   42.4130 C.3   245  LEU245      0.0297
    161  CG        28.6070  -23.9300   41.0390 C.3   245  LEU245      0.0022
    162  CD1       29.4190  -25.1340   40.5870 C.3   245  LEU245      0.0001
    163  CD2       27.1190  -24.2770   41.0660 C.3   245  LEU245      0.0001
@<TRIPOS>BOND
     1    64    63    1
     2    64    58    1
     3    63    62    1
     4    58    59    1
     5    62    59    1
     6    59    60    1
     7    68    67    2
     8    60    61    2
     9    52    51    1
    10    52    53    2
    11    78    77    1
    12    78    79    2
    13    51    54    1
    14    51    50    1
    15    54    56    1
    16    54    55    1
    17    77    80    1
    18    77    76    1
    19    67    76   am
    20    67    66    1
    21    65    66    1
    22    30    31    2
    23    30    29    1
    24    80    81    1
    25    55    57    1
    26    66    69    1
    27    28    29    1
    28    28    34    1
    29    29    32    1
    30    32    33    1
    31    34    33    1
    32    69    70    1
    33   104   103    1
    34   103   102    1
    35   100    99    2
    36   102   101    1
    37   101    98    1
    38    70    72   ar
    39    70    71   ar
    40    72    74   ar
    41    98    99    1
    42    98    97    1
    43    99   105   am
    44    92    91    2
    45    88    86    1
    46   134   132   ar
    47    71    73   ar
    48    74    75   ar
    49    97    91   am
    50    91    90    1
    51   105   106    1
    52   133   132   ar
    53   106   107    1
    54   106   109    1
    55   132   131    1
    56    86    87    1
    57    86    83    1
    58    73    75   ar
    59    21    20    2
    60   107   108    2
    61   111   109    1
    62    14    16   ar
    63    14    13   ar
    64    89    90    1
    65    89    84   am
    66    20    19    1
    67    16    17   ar
    68   148   146    1
    69   138   137    2
    70   140   139    1
    71    90    93    1
    72   109   110    1
    73    83    84    1
    74    83    82    1
    75    11    10    2
    76    84    85    2
    77   131   128    1
    78    95    94    2
    79    25    27   ar
    80    25    23   ar
    81     9    10    1
    82     9    12    1
    83     9     8    1
    84    13    12    1
    85    13    15   ar
    86    27    26   ar
    87   129   128    1
    88   129   130    2
    89    17    15   ar
    90   137   136    1
    91    19    18    1
    92    19    22    1
    93    94    93    1
    94    94    96   am
    95   146   147    1
    96   146   143    1
    97   128   127    1
    98   142   143    1
    99   139   141    1
   100   139   136    1
   101    23    22    1
   102    23    24   ar
   103   135   136    1
   104   143   144    1
   105    26    24   ar
   106   126   124   ar
   107    49    48    2
   108    46    47    1
   109    46    42   am
   110   144   145    2
   111    38    37    2
   112    47    48    1
   113     6     5    1
   114   124   125   ar
   115   124   123    1
   116    41    44    1
   117    41    42    1
   118    41    40    1
   119   155   153    1
   120    44    45    1
   121    42    43    2
   122    37    40   am
   123    37    36    1
   124   153   154    1
   125   153   150    1
   126   123   120    1
   127     5     2    1
   128     5     7    1
   129     1     2    1
   130   162   161    1
   131    39    36    1
   132    35    36    1
   133     2     3    1
   134   122   121    2
   135   161   163    1
   136   161   160    1
   137   121   120    1
   138   149   150    1
   139   117   116    1
   140   150   151    1
   141   120   119    1
   142   119   114   am
   143   156   151   am
   144   156   157    1
   145     3     4    2
   146   151   152    2
   147   160   157    1
   148   116   118    1
   149   116   113    1
   150   114   115    2
   151   114   113    1
   152   157   158    1
   153   112   113    1
   154   158   159    2
