@<TRIPOS>MOLECULE
tmp/5f79A00.pdb
 158 150 0 0 0
SMALL
GASTEIGER

@<TRIPOS>ATOM
      1  N        -58.1450    2.0380    2.3480 N.3     1  SER1       -0.1217
      2  CA       -57.2430    0.9230    2.6350 C.3     1  SER1        0.1889
      3  C        -55.9250    1.3810    3.3410 C.2     1  SER1        0.2288
      4  O        -54.8310    1.4180    2.7530 O.2     1  SER1       -0.2866
      5  CB       -56.9830    0.0820    1.3850 C.3     1  SER1        0.2089
      6  OG       -56.6750    0.8690    0.2450 O.3     1  SER1       -0.2183
      7  N        -53.2490    0.6810    6.4050 N.3     3  PHE3       -0.1227
      8  CA       -52.6830   -0.3610    7.2750 C.3     3  PHE3        0.1736
      9  C        -51.4760    0.1310    8.0990 C.2     3  PHE3        0.2596
     10  O        -50.9310    1.1930    7.8110 O.2     3  PHE3       -0.2718
     11  CB       -52.3420   -1.6420    6.4780 C.3     3  PHE3        0.0547
     12  CG       -51.2730   -1.4590    5.4300 C.ar    3  PHE3       -0.0202
     13  CD1      -49.9340   -1.6470    5.7420 C.ar    3  PHE3       -0.0042
     14  CD2      -51.6070   -1.0810    4.1310 C.ar    3  PHE3       -0.0042
     15  CE1      -48.9510   -1.4560    4.7830 C.ar    3  PHE3       -0.0003
     16  CE2      -50.6210   -0.9000    3.1650 C.ar    3  PHE3       -0.0003
     17  CZ       -49.3020   -1.0990    3.4940 C.ar    3  PHE3       -0.0000
     18  N        -51.0510   -0.6530    9.1030 N.am    4  SER4       -0.1938
     19  CA       -49.9080   -0.3130    9.9460 C.3     4  SER4        0.2055
     20  C        -48.7120   -1.2710    9.7150 C.2     4  SER4        0.2643
     21  O        -48.9220   -2.4610    9.4870 O.2     4  SER4       -0.2714
     22  CB       -50.3250   -0.3050   11.4120 C.3     4  SER4        0.2130
     23  OG       -49.3070    0.2480   12.2310 O.3     4  SER4       -0.2179
     24  N        -47.4670   -0.7460    9.7500 N.am    5  PHE5       -0.1973
     25  CA       -46.2310   -1.5380    9.5930 C.3     5  PHE5        0.1639
     26  C        -45.0360   -0.7800   10.1050 C.2     5  PHE5        0.2290
     27  O        -44.8100    0.3390    9.6780 O.2     5  PHE5       -0.2864
     28  CB       -46.0120   -2.0210    8.1340 C.3     5  PHE5        0.0560
     29  CG       -44.7490   -2.8300    7.9060 C.ar    5  PHE5       -0.0200
     30  CD1      -44.5440   -4.0410    8.5710 C.ar    5  PHE5       -0.0042
     31  CD2      -43.7640   -2.3820    7.0320 C.ar    5  PHE5       -0.0042
     32  CE1      -43.3670   -4.7760    8.3740 C.ar    5  PHE5       -0.0003
     33  CE2      -42.5930   -3.1270    6.8230 C.ar    5  PHE5       -0.0003
     34  CZ       -42.4080   -4.3230    7.4840 C.ar    5  PHE5       -0.0000
     35  N        -52.5230    4.1440    0.7670 N.3    12  ARG12      -0.1245
     36  CA       -52.3360    4.1400   -0.6840 C.3    12  ARG12       0.1563
     37  C        -53.0060    5.3670   -1.3050 C.2    12  ARG12       0.2260
     38  O        -54.1650    5.6570   -0.9920 O.2    12  ARG12      -0.2867
     39  CB       -52.8680    2.8380   -1.2880 C.3    12  ARG12       0.0307
     40  CG       -52.4160    2.5770   -2.7130 C.3    12  ARG12       0.0489
     41  CD       -52.6500    1.1330   -3.1050 C.3    12  ARG12       0.2205
     42  NE       -54.0770    0.8050   -3.1080 N.pl3  12  ARG12      -0.0865
     43  CZ       -54.5820   -0.4010   -3.3470 C.cat  12  ARG12       0.5346
     44  NH1      -53.7800   -1.4300   -3.5970 N.pl3  12  ARG12       0.1354
     45  NH2      -55.8910   -0.5900   -3.3290 N.pl3  12  ARG12       0.1354
     46  N        -52.8470   -3.4510   -6.6310 N.3    17  SER17      -0.1217
     47  CA       -52.0030   -4.6390   -6.4760 C.3    17  SER17       0.1889
     48  C        -52.7710   -5.9210   -6.1640 C.2    17  SER17       0.2288
     49  O        -53.8440   -5.8940   -5.5450 O.2    17  SER17      -0.2866
     50  CB       -50.9050   -4.4210   -5.4400 C.3    17  SER17       0.2089
     51  OG       -51.3930   -4.5050   -4.1130 O.3    17  SER17      -0.2183
     52  N        -45.4590  -12.7260    1.1460 N.3    35  ARG35      -0.1245
     53  CA       -46.6410  -12.3500    0.3890 C.3    35  ARG35       0.1563
     54  C        -46.2910  -11.0850   -0.4280 C.2    35  ARG35       0.2260
     55  O        -46.1100  -10.0080    0.1240 O.2    35  ARG35      -0.2867
     56  CB       -47.8660  -12.1740    1.2950 C.3    35  ARG35       0.0307
     57  CG       -49.1410  -12.0150    0.4860 C.3    35  ARG35       0.0489
     58  CD       -50.3620  -12.2110    1.3380 C.3    35  ARG35       0.2205
     59  NE       -50.7200  -13.6270    1.4230 N.pl3  35  ARG35      -0.0865
     60  CZ       -51.7640  -14.0900    2.1000 C.cat  35  ARG35       0.5346
     61  NH1      -52.5570  -13.2560    2.7670 N.pl3  35  ARG35       0.1354
     62  NH2      -52.0220  -15.3910    2.1210 N.pl3  35  ARG35       0.1354
     63  N        -46.8710   -8.1470   -3.2270 N.3    37  HIS37      -0.1241
     64  CA       -47.8750   -7.2830   -3.8240 C.3    37  HIS37       0.1621
     65  C        -47.3300   -6.8320   -5.1570 C.2    37  HIS37       0.2264
     66  O        -46.2760   -6.1980   -5.2600 O.2    37  HIS37      -0.2867
     67  CB       -48.2300   -6.0940   -2.9220 C.3    37  HIS37       0.0745
     68  CG       -48.9390   -6.5080   -1.6750 C.ar   37  HIS37       0.0817
     69  ND1      -50.3260   -6.3860   -1.5510 N.ar   37  HIS37      -0.2268
     70  CD2      -48.4340   -7.0510   -0.5350 C.ar   37  HIS37       0.1154
     71  CE1      -50.6070   -6.8190   -0.3260 C.ar   37  HIS37       0.1986
     72  NE2      -49.5000   -7.2460    0.3160 N.ar   37  HIS37      -0.2212
     73  N        -47.5920    1.0940   -6.9330 N.3    41  GLU41      -0.1245
     74  CA       -48.3860    1.7930   -5.9230 C.3    41  GLU41       0.1567
     75  C        -47.6450    2.9780   -5.3530 C.2    41  GLU41       0.2260
     76  O        -46.4110    3.0000   -5.3500 O.2    41  GLU41      -0.2867
     77  CB       -48.7250    0.8370   -4.7700 C.3    41  GLU41       0.0388
     78  CG       -49.6470   -0.2980   -5.1580 C.3    41  GLU41       0.1160
     79  CD       -49.8580   -1.3430   -4.0880 C.2    41  GLU41       0.3649
     80  OE1      -48.8580   -1.8820   -3.5570 O.co2  41  GLU41      -0.2457
     81  OE2      -51.0350   -1.6870   -3.8450 O.co2  41  GLU41      -0.2457
     82  N        -47.8300    5.5450   -1.7210 N.3    43  PHE43      -0.1241
     83  CA       -48.3390    5.6070   -0.3550 C.3    43  PHE43       0.1605
     84  C        -47.8150    6.8160    0.3720 C.2    43  PHE43       0.2264
     85  O        -46.7190    7.3090    0.0670 O.2    43  PHE43      -0.2867
     86  CB       -47.8370    4.3910    0.4680 C.3    43  PHE43       0.0534
     87  CG       -48.1600    3.0080   -0.0330 C.ar   43  PHE43      -0.0203
     88  CD1      -47.3240    2.3670   -0.9390 C.ar   43  PHE43      -0.0042
     89  CD2      -49.2680    2.3170    0.4490 C.ar   43  PHE43      -0.0042
     90  CE1      -47.6210    1.0790   -1.3930 C.ar   43  PHE43      -0.0003
     91  CE2      -49.5710    1.0370   -0.0140 C.ar   43  PHE43      -0.0003
     92  CZ       -48.7480    0.4250   -0.9270 C.ar   43  PHE43      -0.0000
     93  N        -43.5190    2.7660   -5.3180 N.3    56  LYS56      -0.1245
     94  CA       -42.9440    1.4410   -5.5460 C.3    56  LYS56       0.1561
     95  C        -43.6280    0.5830   -6.6270 C.2    56  LYS56       0.2260
     96  O        -44.8460    0.5700   -6.7360 O.2    56  LYS56      -0.2867
     97  CB       -42.8840    0.6550   -4.2240 C.3    56  LYS56       0.0271
     98  CG       -44.2470    0.2090   -3.6690 C.3    56  LYS56       0.0035
     99  CD       -44.1210   -0.9310   -2.6920 C.3    56  LYS56       0.0206
    100  CE       -43.7280   -2.2410   -3.3270 C.3    56  LYS56       0.1093
    101  NZ       -44.6670   -3.3090   -2.9250 N.3    56  LYS56      -0.1314
    102  N        -40.4600   -3.0560    3.4870 N.3    84  PHE84      -0.1241
    103  CA       -41.7760   -3.0210    2.8420 C.3    84  PHE84       0.1605
    104  C        -41.7080   -3.1550    1.3090 C.2    84  PHE84       0.2264
    105  O        -42.5750   -3.7860    0.7330 O.2    84  PHE84      -0.2867
    106  CB       -42.5240   -1.7340    3.2500 C.3    84  PHE84       0.0534
    107  CG       -43.8810   -1.5870    2.6090 C.ar   84  PHE84      -0.0203
    108  CD1      -44.9950   -2.2200    3.1460 C.ar   84  PHE84      -0.0042
    109  CD2      -44.0530   -0.7960    1.4760 C.ar   84  PHE84      -0.0042
    110  CE1      -46.2570   -2.0340    2.5820 C.ar   84  PHE84      -0.0003
    111  CE2      -45.3100   -0.6510    0.8890 C.ar   84  PHE84      -0.0003
    112  CZ       -46.4060   -1.2610    1.4520 C.ar   84  PHE84      -0.0000
    113  N        -39.7990   -4.9680   -0.4180 N.3    86  GLN86      -0.1245
    114  CA       -39.5100   -6.3890   -0.6670 C.3    86  GLN86       0.1566
    115  C        -38.3910   -6.5900   -1.7010 C.2    86  GLN86       0.2260
    116  O        -38.2560   -7.6800   -2.2510 O.2    86  GLN86      -0.2867
    117  CB       -40.7760   -7.1860   -1.0600 C.3    86  GLN86       0.0367
    118  CG       -41.8280   -7.3130    0.0240 C.3    86  GLN86       0.0905
    119  CD       -43.1490   -7.8330   -0.5030 C.2    86  GLN86       0.2608
    120  OE1      -43.6380   -7.4600   -1.5890 O.2    86  GLN86      -0.2717
    121  NE2      -43.8360   -8.5730    0.3470 N.am   86  GLN86      -0.0878
    122  N        -47.1010  -19.5630   10.6190 N.3   107  ARG107     -0.1245
    123  CA       -48.0520  -18.4720   10.8720 C.3   107  ARG107      0.1563
    124  C        -47.3350  -17.1350   11.1590 C.2   107  ARG107      0.2260
    125  O        -47.9230  -16.0720   10.9240 O.2   107  ARG107     -0.2867
    126  CB       -49.0470  -18.8390   11.9910 C.3   107  ARG107      0.0307
    127  CG       -50.3160  -17.9840   11.9860 C.3   107  ARG107      0.0489
    128  CD       -51.4420  -18.6250   12.7670 C.3   107  ARG107      0.2205
    129  NE       -52.2320  -17.6320   13.4980 N.pl3 107  ARG107     -0.0865
    130  CZ       -53.2980  -17.9160   14.2410 C.cat 107  ARG107      0.5346
    131  NH1      -53.7250  -19.1690   14.3540 N.pl3 107  ARG107      0.1354
    132  NH2      -53.9490  -16.9490   14.8740 N.pl3 107  ARG107      0.1354
    133  N        -44.6260  -13.8780   10.8350 N.3   109  ASN109     -0.1240
    134  CA       -44.4020  -12.9930    9.7000 C.3   109  ASN109      0.1653
    135  C        -42.9350  -12.7870    9.3350 C.2   109  ASN109      0.2266
    136  O        -42.1860  -12.1750   10.1070 O.2   109  ASN109     -0.2867
    137  CB       -45.0960  -11.6520    9.8780 C.3   109  ASN109      0.1155
    138  CG       -45.7050  -11.1510    8.6010 C.2   109  ASN109      0.2627
    139  OD1      -46.9150  -11.2040    8.4160 O.2   109  ASN109     -0.2716
    140  ND2      -44.8850  -10.7600    7.6530 N.am  109  ASN109     -0.0877
    141  N        -41.8040  -10.6950    7.1060 N.3   111  MET111     -0.1230
    142  CA       -41.6670   -9.2490    6.9310 C.3   111  MET111      0.1702
    143  C        -41.3440   -8.5830    8.2830 C.2   111  MET111      0.2592
    144  O        -40.4840   -7.7070    8.3410 O.2   111  MET111     -0.2718
    145  CB       -42.9390   -8.6420    6.3120 C.3   111  MET111      0.0401
    146  CG       -43.2040   -9.1220    4.8890 C.3   111  MET111      0.0596
    147  SD       -41.9820   -8.5290    3.6960 S.3   111  MET111     -0.1393
    148  CE       -42.3480   -6.7710    3.7220 C.3   111  MET111      0.0692
    149  N        -41.9790   -9.0410    9.3670 N.am  112  HIS112     -0.1976
    150  CA       -41.6700   -8.5340   10.7000 C.3   112  HIS112      0.1656
    151  C        -40.3070   -9.0670   11.1900 C.2   112  HIS112      0.2291
    152  O        -39.6260   -8.3900   11.9610 O.2   112  HIS112     -0.2864
    153  CB       -42.7950   -8.8530   11.6920 C.3   112  HIS112      0.0771
    154  CG       -43.9470   -7.8960   11.5850 C.ar  112  HIS112      0.0820
    155  ND1      -45.0610   -8.1850   10.8100 N.ar  112  HIS112     -0.2267
    156  CD2      -44.1080   -6.6730   12.1370 C.ar  112  HIS112      0.1154
    157  CE1      -45.8700   -7.1510   10.9430 C.ar  112  HIS112      0.1986
    158  NE2      -45.3420   -6.2170   11.7320 N.ar  112  HIS112     -0.2212
@<TRIPOS>BOND
     1    73    74    1
     2    96    95    2
     3    46    47    1
     4    95    94    1
     5    47    48    1
     6    47    50    1
     7    48    49    2
     8    74    75    1
     9    74    77    1
    10    94    93    1
    11    94    97    1
    12    50    51    1
    13    75    76    2
    14    66    65    2
    15    78    77    1
    16    78    79    1
    17    65    64    1
    18    97    98    1
    19    79    81   ar
    20    79    80   ar
    21    64    63    1
    22    64    67    1
    23    98    99    1
    24    44    43    1
    25    43    45    1
    26    43    42    2
    27   100   101    1
    28   100    99    1
    29    42    41    1
    30    41    40    1
    31    67    68    1
    32    40    39    1
    33   116   115    2
    34    82    83    1
    35   115   114    1
    36    68    69   ar
    37    68    70   ar
    38   120   119    2
    39    69    71   ar
    40    90    88   ar
    41    90    92   ar
    42    37    38    2
    43    37    36    1
    44    39    36    1
    45   117   114    1
    46   117   118    1
    47    88    87   ar
    48    92    91   ar
    49    36    35    1
    50   114   113    1
    51    70    72   ar
    52   119   118    1
    53   119   121   am
    54    54    55    2
    55    54    53    1
    56    83    84    1
    57    83    86    1
    58    71    72   ar
    59    87    89   ar
    60    87    86    1
    61    91    89   ar
    62    85    84    2
    63     6     5    1
    64    53    52    1
    65    53    56    1
    66    57    56    1
    67    57    58    1
    68   105   104    2
    69   111   112   ar
    70   111   109   ar
    71   104   103    1
    72    58    59    1
    73     5     2    1
    74    59    60    2
    75   112   110   ar
    76   109   107   ar
    77    60    62    1
    78    60    61    1
    79     1     2    1
    80   110   108   ar
    81   107   108   ar
    82   107   106    1
    83     2     3    1
    84     4     3    2
    85   103   106    1
    86   103   102    1
    87    16    17   ar
    88    16    14   ar
    89    17    15   ar
    90   147   148    1
    91   147   146    1
    92    14    12   ar
    93    15    13   ar
    94   146   145    1
    95    12    13   ar
    96    12    11    1
    97   145   142    1
    98     7     8    1
    99    11     8    1
   100    33    31   ar
   101    33    34   ar
   102   142   141    1
   103   142   143    1
   104    31    29   ar
   105     8     9    1
   106    34    32   ar
   107   140   138   am
   108    10     9    2
   109    29    28    1
   110    29    30   ar
   111     9    18   am
   112    28    25    1
   113   143   144    2
   114   143   149   am
   115    32    30   ar
   116   139   138    2
   117   138   137    1
   118    18    19    1
   119   135   134    1
   120   135   136    2
   121   149   150    1
   122    21    20    2
   123    25    24    1
   124    25    26    1
   125    27    26    2
   126   134   137    1
   127   134   133    1
   128    20    24   am
   129    20    19    1
   130    19    22    1
   131   122   123    1
   132   150   151    1
   133   150   153    1
   134   155   157   ar
   135   155   154   ar
   136   123   124    1
   137   123   126    1
   138   125   124    2
   139   157   158   ar
   140   151   152    2
   141    22    23    1
   142   154   153    1
   143   154   156   ar
   144   158   156   ar
   145   127   126    1
   146   127   128    1
   147   128   129    1
   148   129   130    2
   149   130   131    1
   150   130   132    1
