@<TRIPOS>MOLECULE
tmp/5f7hE00.pdb
 90 89 0 0 0
SMALL
GASTEIGER

@<TRIPOS>ATOM
      1  N         63.8070    3.5760   81.1640 N.3    38  TYR38      -0.1227
      2  CA        64.2730    4.9340   80.9130 C.3    38  TYR38       0.1736
      3  C         65.7500    4.9710   80.5130 C.2    38  TYR38       0.2596
      4  O         66.4680    3.9850   80.6790 O.2    38  TYR38      -0.2718
      5  CB        64.0430    5.7930   82.1450 C.3    38  TYR38       0.0548
      6  CG        62.6090    5.8230   82.6240 C.ar   38  TYR38      -0.0200
      7  CD1       61.7490    6.8430   82.2350 C.ar   38  TYR38      -0.0009
      8  CD2       62.1200    4.8470   83.4860 C.ar   38  TYR38      -0.0009
      9  CE1       60.4360    6.8840   82.6830 C.ar   38  TYR38       0.0417
     10  CE2       60.8090    4.8800   83.9370 C.ar   38  TYR38       0.0417
     11  CZ        59.9740    5.9030   83.5340 C.ar   38  TYR38       0.1957
     12  OH        58.6690    5.9500   83.9730 O.3    38  TYR38      -0.2866
     13  N         66.1880    6.1130   79.9860 N.am   39  SER39      -0.1952
     14  CA        67.5710    6.2960   79.5280 C.3    39  SER39       0.1924
     15  C         68.5820    5.8600   80.5890 C.2    39  SER39       0.2314
     16  O         68.3300    6.0130   81.7860 O.2    39  SER39      -0.2863
     17  CB        67.8200    7.7520   79.1190 C.3    39  SER39       0.2116
     18  OG        69.0390    7.8810   78.4040 O.3    39  SER39      -0.2180
     19  N         65.3910   -0.8500   74.0030 N.3    90  ARG90      -0.1245
     20  CA        65.9450    0.5090   73.9430 C.3    90  ARG90       0.1563
     21  C         67.4110    0.5590   73.4990 C.2    90  ARG90       0.2260
     22  O         68.3050    0.0880   74.2010 O.2    90  ARG90      -0.2867
     23  CB        65.8060    1.2090   75.2900 C.3    90  ARG90       0.0307
     24  CG        66.4850    2.5650   75.3390 C.3    90  ARG90       0.0489
     25  CD        66.1870    3.3130   76.6260 C.3    90  ARG90       0.2205
     26  NE        66.0960    4.7480   76.3630 N.pl3  90  ARG90      -0.0865
     27  CZ        65.1160    5.5400   76.7900 C.cat  90  ARG90       0.5346
     28  NH1       64.1300    5.0640   77.5340 N.pl3  90  ARG90       0.1354
     29  NH2       65.1290    6.8170   76.4730 N.pl3  90  ARG90       0.1354
     30  N         71.7340    5.7930   72.3530 N.3    93  VAL93      -0.1245
     31  CA        72.6350    6.5320   71.4820 C.3    93  VAL93       0.1561
     32  C         73.1660    7.7190   72.2730 C.2    93  VAL93       0.2260
     33  O         72.4030    8.3730   72.9920 O.2    93  VAL93      -0.2867
     34  CB        71.9140    7.0300   70.2090 C.3    93  VAL93       0.0252
     35  CG1       72.8480    7.8780   69.3490 C.3    93  VAL93       0.0019
     36  CG2       71.3460    5.8400   69.4050 C.3    93  VAL93       0.0019
     37  N         73.8210   11.0820   73.5020 N.3    95  GLY95      -0.1210
     38  CA        73.1220   12.3250   73.2700 C.3    95  GLY95       0.1956
     39  C         71.7840   12.3900   73.9730 C.2    95  GLY95       0.2612
     40  O         71.4950   11.6200   74.8850 O.2    95  GLY95      -0.2717
     41  N         70.9580   13.3280   73.5400 N.am   96  TRP96      -0.1962
     42  CA        69.6410   13.5010   74.1270 C.3    96  TRP96       0.1771
     43  C         68.5690   13.3620   73.0480 C.2    96  TRP96       0.2620
     44  O         68.8310   13.6320   71.8720 O.2    96  TRP96      -0.2715
     45  CB        69.5470   14.8710   74.8130 C.3    96  TRP96       0.0590
     46  CG        70.2790   14.9420   76.1230 C.ar   96  TRP96       0.0006
     47  CD1       69.7760   14.6460   77.3620 C.ar   96  TRP96       0.0946
     48  CD2       71.6410   15.3340   76.3260 C.ar   96  TRP96       0.0152
     49  NE1       70.7430   14.8300   78.3210 N.ar   96  TRP96      -0.2442
     50  CE2       71.8980   15.2550   77.7110 C.ar   96  TRP96       0.0810
     51  CE3       72.6740   15.7490   75.4700 C.ar   96  TRP96       0.0012
     52  CZ2       73.1430   15.5750   78.2610 C.ar   96  TRP96       0.0191
     53  CZ3       73.9120   16.0710   76.0180 C.ar   96  TRP96       0.0001
     54  CH2       74.1340   15.9780   77.3980 C.ar   96  TRP96       0.0015
     55  N         67.3740   12.9370   73.4560 N.am   97  PHE97      -0.1960
     56  CA        66.2390   12.7570   72.5460 C.3    97  PHE97       0.1771
     57  C         66.6310   12.0150   71.2670 C.2    97  PHE97       0.2620
     58  O         66.1050   12.2900   70.2030 O.2    97  PHE97      -0.2715
     59  CB        65.6390   14.1120   72.1650 C.3    97  PHE97       0.0574
     60  CG        65.2160   14.9530   73.3390 C.ar   97  PHE97      -0.0200
     61  CD1       66.0300   15.9720   73.8030 C.ar   97  PHE97      -0.0042
     62  CD2       63.9940   14.7380   73.9610 C.ar   97  PHE97      -0.0042
     63  CE1       65.6450   16.7560   74.8730 C.ar   97  PHE97      -0.0003
     64  CE2       63.6020   15.5100   75.0350 C.ar   97  PHE97      -0.0003
     65  CZ        64.4290   16.5290   75.4910 C.ar   97  PHE97      -0.0000
     66  N         67.5710   11.0890   71.3670 N.am   98  ASN98      -0.1958
     67  CA        68.0570   10.4140   70.1780 C.3    98  ASN98       0.1819
     68  C         68.0900    8.8930   70.3270 C.2    98  ASN98       0.2621
     69  O         68.6420    8.1760   69.4840 O.2    98  ASN98      -0.2715
     70  CB        69.4250   10.9710   69.7720 C.3    98  ASN98       0.1195
     71  CG        70.5500   10.6040   70.7550 C.2    98  ASN98       0.2630
     72  OD1       70.3280   10.0660   71.8470 O.2    98  ASN98      -0.2716
     73  ND2       71.7720   10.9220   70.3580 N.am   98  ASN98      -0.0877
     74  N         67.4980    8.4070   71.4100 N.am   99  ASP99      -0.1971
     75  CA        67.4700    6.9810   71.6720 C.3    99  ASP99       0.1709
     76  C         66.4590    6.2700   70.7580 C.2    99  ASP99       0.2293
     77  O         65.5630    6.9080   70.1830 O.2    99  ASP99      -0.2864
     78  CB        67.1700    6.7340   73.1490 C.3    99  ASP99       0.1436
     79  CG        68.4270    6.6410   73.9790 C.2    99  ASP99       0.3671
     80  OD1       69.5080    6.9020   73.4170 O.co2  99  ASP99      -0.2456
     81  OD2       68.3400    6.2960   75.1780 O.co2  99  ASP99      -0.2456
     82  N         63.6450    3.1680   70.3610 N.3   101  LYS101     -0.1245
     83  CA        62.7750    2.1750   70.9840 C.3   101  LYS101      0.1561
     84  C         62.2030    1.2410   69.9310 C.2   101  LYS101      0.2260
     85  O         61.7590    1.6630   68.8780 O.2   101  LYS101     -0.2867
     86  CB        61.6490    2.8450   71.7770 C.3   101  LYS101      0.0271
     87  CG        62.1500    3.7260   72.8910 C.3   101  LYS101      0.0035
     88  CD        61.0520    4.4570   73.6320 C.3   101  LYS101      0.0206
     89  CE        61.6920    5.5600   74.4820 C.3   101  LYS101      0.1093
     90  NZ        60.7530    6.3070   75.3530 N.3   101  LYS101     -0.1314
@<TRIPOS>BOND
     1    85    84    2
     2    35    34    1
     3    36    34    1
     4    69    68    2
     5    70    67    1
     6    70    71    1
     7    84    83    1
     8    67    68    1
     9    67    66    1
    10    77    76    2
    11    58    57    2
    12    34    31    1
    13    68    74   am
    14    73    71   am
    15    82    83    1
    16    71    72    2
    17    76    75    1
    18    83    86    1
    19    57    66   am
    20    57    56    1
    21    74    75    1
    22    31    32    1
    23    31    30    1
    24    75    78    1
    25    86    87    1
    26    44    43    2
    27    59    56    1
    28    59    60    1
    29    32    33    2
    30    56    55    1
    31    87    88    1
    32    43    55   am
    33    43    42    1
    34    78    79    1
    35    38    37    1
    36    38    39    1
    37    60    61   ar
    38    60    62   ar
    39    80    79   ar
    40    21    20    1
    41    21    22    2
    42    41    39   am
    43    41    42    1
    44    88    89    1
    45    61    63   ar
    46    20    19    1
    47    20    23    1
    48    62    64   ar
    49    39    40    2
    50    79    81   ar
    51    42    45    1
    52    89    90    1
    53    45    46    1
    54    63    65   ar
    55    64    65   ar
    56    23    24    1
    57    24    25    1
    58    51    53   ar
    59    51    48   ar
    60    53    54   ar
    61    46    48   ar
    62    46    47   ar
    63    48    50   ar
    64    26    25    1
    65    26    27    2
    66    29    27    1
    67    27    28    1
    68    47    49   ar
    69    54    52   ar
    70    50    52   ar
    71    50    49   ar
    72    18    17    1
    73    17    14    1
    74    14    13    1
    75    14    15    1
    76    13     3   am
    77     3     4    2
    78     3     2    1
    79    15    16    2
    80     2     1    1
    81     2     5    1
    82     5     6    1
    83     7     6   ar
    84     7     9   ar
    85     6     8   ar
    86     9    11   ar
    87     8    10   ar
    88    11    10   ar
    89    11    12    1
