@<TRIPOS>MOLECULE
tmp/5f7jE00.pdb
 94 87 0 0 0
SMALL
GASTEIGER

@<TRIPOS>ATOM
      1  N         19.1610  -22.3360  -38.3820 N.3    88  ALA88      -0.1231
      2  CA        17.9240  -21.5800  -38.4960 C.3    88  ALA88       0.1694
      3  C         17.9520  -20.4030  -37.5270 C.2    88  ALA88       0.2592
      4  O         18.5550  -20.4700  -36.4490 O.2    88  ALA88      -0.2718
      5  CB        16.7240  -22.4830  -38.2080 C.3    88  ALA88       0.0304
      6  N         17.3030  -19.3070  -37.9150 N.am   89  CYS89      -0.1956
      7  CA        17.3720  -18.1290  -37.0710 C.3    89  CYS89       0.1843
      8  C         16.1340  -17.2770  -37.2940 C.2    89  CYS89       0.2626
      9  O         15.4100  -17.4380  -38.2800 O.2    89  CYS89      -0.2714
     10  CB        18.6390  -17.3230  -37.3600 C.3    89  CYS89       0.0997
     11  SG        18.5970  -16.4780  -38.9610 S.3    89  CYS89      -0.0797
     12  N         15.9130  -16.3520  -36.3680 N.am   90  GLY90      -0.1954
     13  CA        14.8740  -15.3470  -36.5070 C.3    90  GLY90       0.1869
     14  C         15.4850  -14.0110  -36.8920 C.2    90  GLY90       0.2309
     15  O         16.5740  -13.6660  -36.4410 O.2    90  GLY90      -0.2863
     16  N         21.1470  -16.8890  -28.0560 N.3   182  ILE182     -0.1245
     17  CA        20.5150  -17.0060  -26.7600 C.3   182  ILE182      0.1561
     18  C         20.6000  -18.4610  -26.3320 C.2   182  ILE182      0.2260
     19  O         20.8530  -19.3600  -27.1410 O.2   182  ILE182     -0.2867
     20  CB        19.0590  -16.5080  -26.8000 C.3   182  ILE182      0.0252
     21  CG1       18.2430  -17.3630  -27.7730 C.3   182  ILE182      0.0019
     22  CG2       19.0160  -15.0100  -27.1630 C.3   182  ILE182      0.0019
     23  CD1       16.7970  -16.8990  -27.9460 C.3   182  ILE182      0.0001
     24  N         12.0260  -19.4550  -26.7540 N.3   187  PHE187     -0.1241
     25  CA        12.2790  -18.2940  -27.5980 C.3   187  PHE187      0.1605
     26  C         12.2310  -17.0190  -26.7540 C.2   187  PHE187      0.2264
     27  O         11.8430  -17.0360  -25.5760 O.2   187  PHE187     -0.2867
     28  CB        11.2570  -18.2230  -28.7260 C.3   187  PHE187      0.0534
     29  CG        11.3610  -19.3670  -29.7190 C.ar  187  PHE187     -0.0203
     30  CD1       12.4380  -19.4590  -30.5840 C.ar  187  PHE187     -0.0042
     31  CD2       10.3590  -20.3280  -29.7930 C.ar  187  PHE187     -0.0042
     32  CE1       12.5320  -20.5080  -31.4920 C.ar  187  PHE187     -0.0003
     33  CE2       10.4410  -21.3750  -30.7040 C.ar  187  PHE187     -0.0003
     34  CZ        11.5210  -21.4660  -31.5520 C.ar  187  PHE187     -0.0000
     35  N         18.6640  -13.7900  -34.5040 N.3   204  VAL204     -0.1231
     36  CA        18.7630  -14.4710  -33.2180 C.3   204  VAL204      0.1692
     37  C         18.7750  -15.9710  -33.4720 C.2   204  VAL204      0.2592
     38  O         18.0060  -16.4820  -34.2960 O.2   204  VAL204     -0.2718
     39  CB        17.6060  -14.0720  -32.2630 C.3   204  VAL204      0.0266
     40  CG1       16.2530  -14.1720  -32.9650 C.3   204  VAL204      0.0020
     41  CG2       17.6480  -14.9150  -30.9710 C.3   204  VAL204      0.0020
     42  N         19.6470  -16.6730  -32.7720 N.am  205  ASN205     -0.1960
     43  CA        19.7030  -18.1230  -32.8940 C.3   205  ASN205      0.1819
     44  C         20.1290  -18.6910  -31.5520 C.2   205  ASN205      0.2621
     45  O         20.2970  -17.9590  -30.5710 O.2   205  ASN205     -0.2715
     46  CB        20.6420  -18.5450  -34.0320 C.3   205  ASN205      0.1195
     47  CG        22.1040  -18.6460  -33.6040 C.2   205  ASN205      0.2630
     48  OD1       22.7710  -19.6330  -33.9240 O.2   205  ASN205     -0.2716
     49  ND2       22.6240  -17.6200  -32.9490 N.am  205  ASN205     -0.0877
     50  N         20.3130  -20.0100  -31.5140 N.am  206  MET206     -0.1977
     51  CA        20.6490  -20.6890  -30.2690 C.3   206  MET206      0.1605
     52  C         21.9200  -21.5240  -30.3100 C.2   206  MET206      0.2287
     53  O         22.3310  -22.0250  -29.2510 O.2   206  MET206     -0.2864
     54  CB        19.4910  -21.5920  -29.8280 C.3   206  MET206      0.0413
     55  CG        18.2170  -20.8410  -29.4900 C.3   206  MET206      0.0598
     56  SD        16.9390  -21.9620  -28.8740 S.3   206  MET206     -0.1393
     57  CE        15.4920  -20.8880  -28.8380 C.3   206  MET206      0.0692
     58  N         14.1440  -18.0530  -40.7690 N.3   229  THR229     -0.1203
     59  CA        12.8890  -18.7740  -40.8160 C.3   229  THR229      0.1994
     60  C         11.7240  -17.9610  -40.2780 C.2   229  THR229      0.2617
     61  O         10.5740  -18.3490  -40.4920 O.2   229  THR229     -0.2717
     62  CB        13.0080  -20.1010  -40.0450 C.3   229  THR229      0.1784
     63  OG1       13.4830  -19.8380  -38.7270 O.3   229  THR229     -0.2211
     64  CG2       14.0240  -21.0030  -40.7020 C.3   229  THR229      0.0376
     65  N         11.9830  -16.8220  -39.6370 N.am  230  ASP230     -0.1973
     66  CA        10.9400  -16.0600  -38.9530 C.3   230  ASP230      0.1709
     67  C         11.4630  -14.6640  -38.6300 C.2   230  ASP230      0.2293
     68  O         12.6550  -14.3780  -38.7670 O.2   230  ASP230     -0.2864
     69  CB        10.4930  -16.7680  -37.6690 C.3   230  ASP230      0.1436
     70  CG        11.6550  -17.0700  -36.7440 C.2   230  ASP230      0.3671
     71  OD1       12.3360  -18.0990  -36.9730 O.co2 230  ASP230     -0.2456
     72  OD2       11.9000  -16.2730  -35.8080 O.co2 230  ASP230     -0.2456
     73  N         11.3190  -13.3460  -35.5210 N.3   232  ASP232     -0.1239
     74  CA        11.3650  -13.4040  -34.0430 C.3   232  ASP232      0.1674
     75  C          9.9860  -13.0000  -33.5100 C.2   232  ASP232      0.2266
     76  O          8.9730  -13.5510  -33.9670 O.2   232  ASP232     -0.2867
     77  CB        12.5490  -12.5850  -33.5290 C.3   232  ASP232      0.1410
     78  CG        12.9580  -12.9750  -32.1010 C.2   232  ASP232      0.3668
     79  OD1       12.8120  -14.1630  -31.7350 O.co2 232  ASP232     -0.2456
     80  OD2       13.4130  -12.0960  -31.3390 O.co2 232  ASP232     -0.2456
     81  N          7.4880  -16.1730  -33.6450 N.3   241  VAL241     -0.1245
     82  CA         8.1490  -17.4390  -33.9190 C.3   241  VAL241      0.1561
     83  C          7.5250  -18.5630  -33.0920 C.2   241  VAL241      0.2260
     84  O          7.0690  -18.3630  -31.9560 O.2   241  VAL241     -0.2867
     85  CB         9.6620  -17.3050  -33.6670 C.3   241  VAL241      0.0252
     86  CG1        9.9350  -16.7160  -32.2780 C.3   241  VAL241      0.0019
     87  CG2       10.3820  -18.6370  -33.8620 C.3   241  VAL241      0.0019
     88  N          9.3680  -22.2440  -37.7230 N.3   246  VAL246     -0.1245
     89  CA        10.7730  -22.5020  -38.0340 C.3   246  VAL246      0.1561
     90  C         10.9050  -23.6830  -38.9870 C.2   246  VAL246      0.2260
     91  O         11.6880  -23.6410  -39.9370 O.2   246  VAL246     -0.2867
     92  CB        11.5820  -22.7360  -36.7430 C.3   246  VAL246      0.0252
     93  CG1       13.0340  -23.1220  -37.0860 C.3   246  VAL246      0.0019
     94  CG2       11.5250  -21.5070  -35.8390 C.3   246  VAL246      0.0019
@<TRIPOS>BOND
     1    59    58    1
     2    59    60    1
     3    59    62    1
     4    64    62    1
     5    61    60    2
     6    60    65   am
     7    62    63    1
     8    91    90    2
     9    65    66    1
    10    90    89    1
    11    11    10    1
    12    66    67    1
    13    66    69    1
    14    68    67    2
    15     2     1    1
    16     2     5    1
    17     2     3    1
    18     9     8    2
    19    89    88    1
    20    89    92    1
    21     6     3   am
    22     6     7    1
    23    69    70    1
    24     3     4    2
    25    10     7    1
    26     8     7    1
    27     8    12   am
    28    93    92    1
    29    71    70   ar
    30    14    13    1
    31    14    15    2
    32    70    72   ar
    33    92    94    1
    34    13    12    1
    35    73    74    1
    36    35    36    1
    37    38    37    2
    38    74    77    1
    39    74    75    1
    40    46    47    1
    41    46    43    1
    42    76    75    2
    43    48    47    2
    44    82    85    1
    45    82    81    1
    46    82    83    1
    47    87    85    1
    48    85    86    1
    49    47    49   am
    50    77    78    1
    51    37    36    1
    52    37    42   am
    53    36    39    1
    54    83    84    2
    55    40    39    1
    56    43    42    1
    57    43    44    1
    58    39    41    1
    59    78    79   ar
    60    78    80   ar
    61    44    50   am
    62    44    45    2
    63    34    32   ar
    64    34    33   ar
    65    50    51    1
    66    32    30   ar
    67    33    31   ar
    68    30    29   ar
    69    52    51    1
    70    52    53    2
    71    51    54    1
    72    54    55    1
    73    31    29   ar
    74    29    28    1
    75    55    56    1
    76    56    57    1
    77    28    25    1
    78    16    17    1
    79    23    21    1
    80    21    20    1
    81    25    24    1
    82    25    26    1
    83    22    20    1
    84    19    18    2
    85    20    17    1
    86    17    18    1
    87    26    27    2
