@<TRIPOS>MOLECULE
tmp/5f7qB01.pdb
 78 75 0 0 0
SMALL
GASTEIGER

@<TRIPOS>ATOM
      1  N        109.0630  -35.2400  105.5730 N.3   152  LEU152     -0.1231
      2  CA       107.8860  -34.8440  106.3220 C.3   152  LEU152      0.1693
      3  C        107.7850  -33.2940  106.2240 C.2   152  LEU152      0.2592
      4  O        108.7070  -32.5650  106.6080 O.2   152  LEU152     -0.2718
      5  CB       108.0630  -35.3620  107.7510 C.3   152  LEU152      0.0284
      6  CG       106.9860  -35.1590  108.7950 C.3   152  LEU152      0.0019
      7  CD1      105.6420  -35.6570  108.3000 C.3   152  LEU152      0.0001
      8  CD2      107.4190  -35.8610  110.0780 C.3   152  LEU152      0.0001
      9  N        106.6630  -32.8020  105.7040 N.am  153  VAL153     -0.1966
     10  CA       106.4920  -31.3800  105.4390 C.3   153  VAL153      0.1727
     11  C        105.3090  -30.6730  106.1390 C.2   153  VAL153      0.2616
     12  O        104.1970  -31.1680  106.1410 O.2   153  VAL153     -0.2715
     13  CB       106.3260  -31.2210  103.9100 C.3   153  VAL153      0.0290
     14  CG1      106.0500  -29.7930  103.5050 C.3   153  VAL153      0.0023
     15  CG2      107.5740  -31.7310  103.1860 C.3   153  VAL153      0.0023
     16  N        105.5720  -29.5050  106.7270 N.am  154  ASN154     -0.1958
     17  CA       104.5080  -28.6640  107.2700 C.3   154  ASN154      0.1819
     18  C        104.1590  -27.7260  106.1340 C.2   154  ASN154      0.2621
     19  O        104.8660  -26.7520  105.8900 O.2   154  ASN154     -0.2715
     20  CB       104.9290  -27.8740  108.5100 C.3   154  ASN154      0.1195
     21  CG       103.7870  -27.0490  109.0860 C.2   154  ASN154      0.2630
     22  OD1      102.8890  -26.6430  108.3660 O.2   154  ASN154     -0.2716
     23  ND2      103.8330  -26.7820  110.3860 N.am  154  ASN154     -0.0877
     24  N        103.0780  -28.0290  105.4280 N.am  155  ARG155     -0.1963
     25  CA       102.6740  -27.2230  104.2710 C.3   155  ARG155      0.1729
     26  C        102.1340  -25.8420  104.6210 C.2   155  ARG155      0.2616
     27  O        102.2170  -24.9400  103.7960 O.2   155  ARG155     -0.2715
     28  CB       101.7000  -27.9940  103.3910 C.3   155  ARG155      0.0348
     29  CG       102.3730  -29.1960  102.7550 C.3   155  ARG155      0.0492
     30  CD       101.4450  -29.9640  101.8470 C.3   155  ARG155      0.2205
     31  NE       100.2090  -30.2190  102.5470 N.pl3 155  ARG155     -0.0865
     32  CZ        99.0140  -29.7050  102.2680 C.cat 155  ARG155      0.5346
     33  NH1       97.9940  -30.0340  103.0510 N.pl3 155  ARG155      0.1354
     34  NH2       98.8120  -28.9140  101.2250 N.pl3 155  ARG155      0.1354
     35  N        101.5860  -25.6710  105.8190 N.am  156  LYS156     -0.1977
     36  CA       101.1400  -24.3450  106.2320 C.3   156  LYS156      0.1596
     37  C        102.3700  -23.4200  106.2830 C.2   156  LYS156      0.2287
     38  O        102.4610  -22.4490  105.5300 O.2   156  LYS156     -0.2864
     39  CB       100.4510  -24.3680  107.6020 C.3   156  LYS156      0.0298
     40  CG        99.1310  -25.1340  107.6460 C.3   156  LYS156      0.0038
     41  CD        98.4200  -24.9970  108.9880 C.3   156  LYS156      0.0206
     42  CE        97.9180  -23.5770  109.2400 C.3   156  LYS156      0.1093
     43  NZ        97.3600  -23.4080  110.6110 N.3   156  LYS156     -0.1314
     44  N        110.0330  -30.5340  108.1870 N.3   161  ILE161     -0.1245
     45  CA       110.1710  -30.9320  109.5830 C.3   161  ILE161      0.1561
     46  C        111.2800  -31.9410  109.6790 C.2   161  ILE161      0.2260
     47  O        112.1270  -31.8550  110.5490 O.2   161  ILE161     -0.2867
     48  CB       108.8660  -31.5390  110.1240 C.3   161  ILE161      0.0252
     49  CG1      107.7610  -30.4680  110.0930 C.3   161  ILE161      0.0019
     50  CG2      109.0780  -32.1140  111.5360 C.3   161  ILE161      0.0019
     51  CD1      106.3650  -31.0050  110.3110 C.3   161  ILE161      0.0001
     52  N         95.2590  -34.3510  109.5790 N.3   234  ALA234     -0.1231
     53  CA        95.1460  -33.2220  110.5070 C.3   234  ALA234      0.1694
     54  C         96.1510  -32.1180  110.2110 C.2   234  ALA234      0.2592
     55  O         97.3050  -32.4160  109.9700 O.2   234  ALA234     -0.2718
     56  CB        95.3370  -33.7240  111.9170 C.3   234  ALA234      0.0304
     57  N         95.6790  -30.8590  110.2250 N.am  235  GLN235     -0.1966
     58  CA        96.4870  -29.6560  109.9560 C.3   235  GLN235      0.1733
     59  C         97.1380  -29.6930  108.5640 C.2   235  GLN235      0.2617
     60  O         98.1330  -28.9960  108.3270 O.2   235  GLN235     -0.2715
     61  CB        97.6380  -29.5050  110.9660 C.3   235  GLN235      0.0408
     62  CG        97.3750  -29.8550  112.4160 C.3   235  GLN235      0.0908
     63  CD        96.5520  -28.8520  113.1630 C.2   235  GLN235      0.2608
     64  OE1       95.7950  -28.0660  112.5820 O.2   235  GLN235     -0.2717
     65  NE2       96.6880  -28.8790  114.4830 N.am  235  GLN235     -0.0878
     66  N         96.6190  -30.5170  107.6580 N.am  236  GLY236     -0.1940
     67  CA        97.2360  -30.6330  106.3400 C.3   236  GLY236      0.2014
     68  C         98.4570  -31.5560  106.2790 C.2   236  GLY236      0.2639
     69  O         99.1340  -31.6220  105.2440 O.2   236  GLY236     -0.2714
     70  N         98.7410  -32.2560  107.3800 N.am  237  GLY237     -0.1939
     71  CA        99.8440  -33.2110  107.4500 C.3   237  GLY237      0.2014
     72  C         99.4970  -34.4750  106.6590 C.2   237  GLY237      0.2638
     73  O         98.4430  -35.0990  106.8870 O.2   237  GLY237     -0.2714
     74  N        100.3840  -34.8660  105.7380 N.am  238  ALA238     -0.1977
     75  CA       100.1650  -36.0580  104.9250 C.3   238  ALA238      0.1597
     76  C        100.0830  -37.3210  105.7440 C.2   238  ALA238      0.2287
     77  O        100.7170  -37.4380  106.7870 O.2   238  ALA238     -0.2864
     78  CB       101.2760  -36.2120  103.8970 C.3   238  ALA238      0.0319
@<TRIPOS>BOND
     1    34    32    1
     2    30    31    1
     3    30    29    1
     4    32    31    2
     5    32    33    1
     6    29    28    1
     7    15    13    1
     8    28    25    1
     9    14    13    1
    10    27    26    2
    11    78    75    1
    12    13    10    1
    13    25    26    1
    14    25    24    1
    15    26    35   am
    16    75    74    1
    17    75    76    1
    18    69    68    2
    19    24    18   am
    20    10     9    1
    21    10    11    1
    22    38    37    2
    23     1     2    1
    24     9     3   am
    25    74    72   am
    26    76    77    2
    27    35    36    1
    28    19    18    2
    29    18    17    1
    30    11    12    2
    31    11    16   am
    32     3     2    1
    33     3     4    2
    34    36    37    1
    35    36    39    1
    36    68    67    1
    37    68    70   am
    38     2     5    1
    39    67    66    1
    40    72    73    2
    41    72    71    1
    42    16    17    1
    43    17    20    1
    44    70    71    1
    45    39    40    1
    46    40    41    1
    47    66    59   am
    48     5     6    1
    49    44    45    1
    50     7     6    1
    51    60    59    2
    52    22    21    2
    53    20    21    1
    54    59    58    1
    55     6     8    1
    56    41    42    1
    57    21    23   am
    58    42    43    1
    59    52    53    1
    60    45    46    1
    61    45    48    1
    62    46    47    2
    63    58    57    1
    64    58    61    1
    65    55    54    2
    66    49    48    1
    67    49    51    1
    68    48    50    1
    69    54    57   am
    70    54    53    1
    71    53    56    1
    72    61    62    1
    73    62    63    1
    74    64    63    2
    75    63    65   am
