@<TRIPOS>MOLECULE
tmp/5f7qA01.pdb
 87 84 0 0 0
SMALL
GASTEIGER

@<TRIPOS>ATOM
      1  N         76.9190  -52.4420  103.9740 N.3   151  LEU151     -0.1231
      2  CA        77.5260  -51.7050  102.8960 C.3   151  LEU151      0.1693
      3  C         76.4510  -50.8180  102.2530 C.2   151  LEU151      0.2592
      4  O         75.3970  -51.3050  101.8800 O.2   151  LEU151     -0.2718
      5  CB        78.0970  -52.7510  101.9400 C.3   151  LEU151      0.0284
      6  CG        79.2070  -52.3650  101.0010 C.3   151  LEU151      0.0019
      7  CD1       80.3610  -51.7350  101.7660 C.3   151  LEU151      0.0001
      8  CD2       79.6570  -53.6150  100.2630 C.3   151  LEU151      0.0001
      9  N         76.7240  -49.5170  102.1450 N.am  152  VAL152     -0.1966
     10  CA        75.7470  -48.5440  101.6520 C.3   152  VAL152      0.1727
     11  C         76.1970  -47.7280  100.4500 C.2   152  VAL152      0.2616
     12  O         77.2890  -47.1810  100.4230 O.2   152  VAL152     -0.2715
     13  CB        75.3800  -47.5310  102.7640 C.3   152  VAL152      0.0290
     14  CG1       74.3720  -46.4960  102.2620 C.3   152  VAL152      0.0023
     15  CG2       74.8090  -48.2530  103.9900 C.3   152  VAL152      0.0023
     16  N         75.3250  -47.6710   99.4470 N.am  153  ASN153     -0.1958
     17  CA        75.5380  -46.8480   98.2880 C.3   153  ASN153      0.1819
     18  C         74.8210  -45.5730   98.6550 C.2   153  ASN153      0.2621
     19  O         73.5930  -45.5390   98.6180 O.2   153  ASN153     -0.2715
     20  CB        74.9140  -47.4710   97.0520 C.3   153  ASN153      0.1195
     21  CG        75.0660  -46.6000   95.8130 C.2   153  ASN153      0.2630
     22  OD1       75.3850  -45.4190   95.9010 O.2   153  ASN153     -0.2716
     23  ND2       74.8140  -47.1870   94.6480 N.am  153  ASN153     -0.0877
     24  N         75.5900  -44.5420   99.0200 N.am  154  ARG154     -0.1963
     25  CA        75.0330  -43.2530   99.4480 C.3   154  ARG154      0.1729
     26  C         74.5530  -42.3680   98.3080 C.2   154  ARG154      0.2616
     27  O         73.6990  -41.5170   98.5270 O.2   154  ARG154     -0.2715
     28  CB        75.9900  -42.5080  100.3770 C.3   154  ARG154      0.0348
     29  CG        76.2440  -43.2650  101.6860 C.3   154  ARG154      0.0492
     30  CD        77.0060  -42.4530  102.7200 C.3   154  ARG154      0.2205
     31  NE        78.1060  -41.7990  102.0770 N.pl3 154  ARG154     -0.0865
     32  CZ        78.3040  -40.4880  101.9290 C.cat 154  ARG154      0.5346
     33  NH1       79.3570  -40.1010  101.2330 N.pl3 154  ARG154      0.1354
     34  NH2       77.5240  -39.5750  102.4760 N.pl3 154  ARG154      0.1354
     35  N         75.0980  -42.5460   97.1080 N.am  155  LYS155     -0.1963
     36  CA        74.5720  -41.8090   95.9430 C.3   155  LYS155      0.1728
     37  C         73.0860  -42.1490   95.6930 C.2   155  LYS155      0.2616
     38  O         72.3020  -41.2590   95.3650 O.2   155  LYS155     -0.2715
     39  CB        75.3850  -42.0600   94.6540 C.3   155  LYS155      0.0311
     40  CG        76.3200  -40.9210   94.2480 C.3   155  LYS155      0.0038
     41  CD        76.8500  -41.1360   92.8280 C.3   155  LYS155      0.0206
     42  CE        77.2400  -39.8370   92.1170 C.3   155  LYS155      0.1093
     43  NZ        78.3380  -39.0420   92.7410 N.3   155  LYS155     -0.1314
     44  N         72.7300  -43.4270   95.8890 N.am  156  LYS156     -0.1977
     45  CA        71.3770  -43.9490   95.6600 C.3   156  LYS156      0.1596
     46  C         70.5620  -44.2860   96.9270 C.2   156  LYS156      0.2287
     47  O         69.3650  -44.5260   96.8280 O.2   156  LYS156     -0.2864
     48  CB        71.4590  -45.2210   94.7860 C.3   156  LYS156      0.0298
     49  CG        71.9920  -45.0230   93.3740 C.3   156  LYS156      0.0038
     50  CD        71.0080  -44.2170   92.5320 C.3   156  LYS156      0.0206
     51  CE        71.5230  -43.9620   91.1270 C.3   156  LYS156      0.1093
     52  NZ        70.6670  -42.9890   90.3900 N.3   156  LYS156     -0.1314
     53  N         73.7570  -52.0470   99.7240 N.3   160  ILE160     -0.1245
     54  CA        74.3550  -52.9620   98.7480 C.3   160  ILE160      0.1561
     55  C         74.3510  -54.3460   99.3320 C.2   160  ILE160      0.2260
     56  O         74.0090  -55.3080   98.6540 O.2   160  ILE160     -0.2867
     57  CB        75.7810  -52.5260   98.3720 C.3   160  ILE160      0.0252
     58  CG1       75.7200  -51.2100   97.5890 C.3   160  ILE160      0.0019
     59  CG2       76.4850  -53.5940   97.5450 C.3   160  ILE160      0.0019
     60  CD1       77.0460  -50.4630   97.5290 C.3   160  ILE160      0.0001
     61  N         85.5800  -43.2730   96.8140 N.3   233  ALA233     -0.1231
     62  CA        84.9490  -42.9950   95.5250 C.3   233  ALA233      0.1694
     63  C         83.4270  -43.0740   95.5530 C.2   233  ALA233      0.2592
     64  O         82.8650  -44.0240   96.0860 O.2   233  ALA233     -0.2718
     65  CB        85.4850  -43.9460   94.4820 C.3   233  ALA233      0.0304
     66  N         82.7800  -42.0520   94.9800 N.am  234  GLN234     -0.1966
     67  CA        81.3100  -41.9810   94.8280 C.3   234  GLN234      0.1733
     68  C         80.6060  -42.0080   96.1800 C.2   234  GLN234      0.2617
     69  O         79.4540  -42.4030   96.2740 O.2   234  GLN234     -0.2715
     70  CB        80.7980  -43.1590   94.0050 C.3   234  GLN234      0.0408
     71  CG        81.5760  -43.5200   92.7410 C.3   234  GLN234      0.0908
     72  CD        81.5260  -42.4710   91.6490 C.2   234  GLN234      0.2608
     73  OE1       80.5740  -41.6860   91.5530 O.2   234  GLN234     -0.2717
     74  NE2       82.5530  -42.4730   90.7850 N.am  234  GLN234     -0.0878
     75  N         81.3180  -41.6060   97.2190 N.am  235  GLY235     -0.1940
     76  CA        80.7880  -41.6190   98.5570 C.3   235  GLY235      0.2014
     77  C         80.7410  -42.9810   99.2310 C.2   235  GLY235      0.2639
     78  O         80.1040  -43.1240  100.2720 O.2   235  GLY235     -0.2714
     79  N         81.3940  -43.9760   98.6400 N.am  236  GLY236     -0.1939
     80  CA        81.4390  -45.2920   99.2150 C.3   236  GLY236      0.2014
     81  C         82.4770  -45.3350  100.2970 C.2   236  GLY236      0.2638
     82  O         83.6460  -45.0800  100.0270 O.2   236  GLY236     -0.2714
     83  N         82.0670  -45.6660  101.5160 N.am  237  ALA237     -0.1977
     84  CA        83.0050  -45.6850  102.6440 C.3   237  ALA237      0.1597
     85  C         84.0820  -46.7470  102.5070 C.2   237  ALA237      0.2287
     86  O         83.9160  -47.7670  101.8140 O.2   237  ALA237     -0.2864
     87  CB        82.2630  -45.8640  103.9710 C.3   237  ALA237      0.0319
@<TRIPOS>BOND
     1    52    51    1
     2    74    72   am
     3    51    50    1
     4    73    72    2
     5    72    71    1
     6    42    43    1
     7    42    41    1
     8    50    49    1
     9    71    70    1
    10    41    40    1
    11    49    48    1
    12    70    67    1
    13    40    39    1
    14    65    62    1
    15    23    21   am
    16    39    36    1
    17    48    45    1
    18    67    66    1
    19    67    68    1
    20    66    63   am
    21    38    37    2
    22    62    63    1
    23    62    61    1
    24    63    64    2
    25    45    44    1
    26    45    46    1
    27    37    44   am
    28    37    36    1
    29    21    22    2
    30    21    20    1
    31    36    35    1
    32    68    69    2
    33    68    75   am
    34    47    46    2
    35    20    17    1
    36    35    26   am
    37    75    76    1
    38    60    58    1
    39    59    57    1
    40    58    57    1
    41    17    18    1
    42    17    16    1
    43    26    27    2
    44    26    25    1
    45    57    54    1
    46    76    77    1
    47    19    18    2
    48    79    80    1
    49    79    77   am
    50    56    55    2
    51    18    24   am
    52    54    55    1
    53    54    53    1
    54    24    25    1
    55    80    81    1
    56    77    78    2
    57    16    11   am
    58    25    28    1
    59    82    81    2
    60     8     6    1
    61    81    83   am
    62    28    29    1
    63    12    11    2
    64    11    10    1
    65     6     7    1
    66     6     5    1
    67    33    32    1
    68    83    84    1
    69    10     9    1
    70    10    13    1
    71    29    30    1
    72    86    85    2
    73     4     3    2
    74    32    31    2
    75    32    34    1
    76     5     2    1
    77    31    30    1
    78     9     3   am
    79     3     2    1
    80    14    13    1
    81    85    84    1
    82    84    87    1
    83    13    15    1
    84     2     1    1
