@<TRIPOS>MOLECULE
tmp/5f7qB02.pdb
 100 97 0 0 0
SMALL
GASTEIGER

@<TRIPOS>ATOM
      1  N        101.1110  -44.1250  104.6370 N.3   241  PHE241     -0.1241
      2  CA       100.7980  -45.5390  104.4870 C.3   241  PHE241      0.1605
      3  C        102.0540  -46.4170  104.3740 C.2   241  PHE241      0.2264
      4  O        102.0340  -47.6030  104.7780 O.2   241  PHE241     -0.2867
      5  CB        99.9060  -45.7300  103.2750 C.3   241  PHE241      0.0534
      6  CG        99.3000  -47.0870  103.1820 C.ar  241  PHE241     -0.0203
      7  CD1       98.1160  -47.3690  103.8610 C.ar  241  PHE241     -0.0042
      8  CD2       99.8870  -48.0780  102.3940 C.ar  241  PHE241     -0.0042
      9  CE1       97.5330  -48.6240  103.7750 C.ar  241  PHE241     -0.0003
     10  CE2       99.3140  -49.3300  102.3140 C.ar  241  PHE241     -0.0003
     11  CZ        98.1360  -49.6090  103.0020 C.ar  241  PHE241     -0.0000
     12  N        103.1440  -47.9860  107.6970 N.3   244  THR244     -0.1203
     13  CA       102.1930  -48.8190  108.4420 C.3   244  THR244      0.1994
     14  C        102.9820  -50.0460  108.8170 C.2   244  THR244      0.2619
     15  O        103.9060  -50.4460  108.1020 O.2   244  THR244     -0.2717
     16  CB       100.9440  -49.2210  107.6440 C.3   244  THR244      0.1784
     17  OG1      101.3250  -49.7250  106.3640 O.3   244  THR244     -0.2211
     18  CG2      100.0310  -48.0260  107.4520 C.3   244  THR244      0.0376
     19  N        102.6520  -50.6320  109.9480 N.am  245  THR245     -0.1938
     20  CA       103.3640  -51.8180  110.4040 C.3   245  THR245      0.2028
     21  C        102.7820  -53.0530  109.7540 C.2   245  THR245      0.2642
     22  O        101.6080  -53.3680  109.9750 O.2   245  THR245     -0.2714
     23  CB       103.2280  -52.0050  111.9380 C.3   245  THR245      0.1808
     24  OG1      103.5780  -50.7970  112.6280 O.3   245  THR245     -0.2208
     25  CG2      104.0980  -53.1650  112.4320 C.3   245  THR245      0.0379
     26  N        103.5710  -53.7580  108.9450 N.am  246  ILE246     -0.1963
     27  CA       103.0860  -55.0490  108.3990 C.3   246  ILE246      0.1727
     28  C        103.6870  -56.2200  109.1550 C.2   246  ILE246      0.2616
     29  O        103.1670  -57.3270  109.0990 O.2   246  ILE246     -0.2715
     30  CB       103.3510  -55.2430  106.9040 C.3   246  ILE246      0.0290
     31  CG1      104.8200  -55.5040  106.6050 C.3   246  ILE246      0.0022
     32  CG2      102.8580  -54.0400  106.1370 C.3   246  ILE246      0.0023
     33  CD1      105.0020  -55.9290  105.1750 C.3   246  ILE246      0.0001
     34  N        104.8000  -55.9690  109.8390 N.am  247  GLN247     -0.1964
     35  CA       105.4620  -57.0040  110.5940 C.3   247  GLN247      0.1718
     36  C        105.9350  -56.4940  111.9610 C.2   247  GLN247      0.2458
     37  O        106.9960  -55.8840  112.0660 O.2   247  GLN247     -0.2730
     38  CB       106.6420  -57.5910  109.7730 C.3   247  GLN247      0.0407
     39  CG       107.3560  -58.7460  110.4720 C.3   247  GLN247      0.0908
     40  CD       106.3960  -59.8690  110.8560 C.2   247  GLN247      0.2608
     41  OE1      105.6340  -60.3670  110.0180 O.2   247  GLN247     -0.2717
     42  NE2      106.4140  -60.2610  112.1280 N.am  247  GLN247     -0.0878
     43  N        105.1430  -56.7320  113.0180 N.am  248  PRO248     -0.2727
     44  CA       105.6120  -56.3310  114.3630 C.3   248  PRO248      0.1402
     45  C        107.0330  -56.8660  114.6600 C.2   248  PRO248      0.2269
     46  O        107.3420  -58.0310  114.3170 O.2   248  PRO248     -0.2865
     47  CB       104.5940  -56.9920  115.3050 C.3   248  PRO248      0.0296
     48  CG       103.3630  -57.1380  114.4850 C.3   248  PRO248      0.0237
     49  CD       103.8000  -57.3370  113.0590 C.3   248  PRO248      0.0939
     50  N        105.8090  -51.1170  106.2040 N.3   261  LEU261     -0.1245
     51  CA       105.5620  -51.6380  104.8500 C.3   261  LEU261      0.1561
     52  C        106.6950  -51.3030  103.8830 C.2   261  LEU261      0.2260
     53  O        107.0590  -52.1250  103.0560 O.2   261  LEU261     -0.2867
     54  CB       104.2580  -51.0540  104.2940 C.3   261  LEU261      0.0270
     55  CG       103.8090  -51.5020  102.8950 C.3   261  LEU261      0.0019
     56  CD1      103.5530  -52.9930  102.8140 C.3   261  LEU261      0.0001
     57  CD2      102.5520  -50.7550  102.5040 C.3   261  LEU261      0.0001
     58  N        104.6650  -58.6480   99.1810 N.3   315  TYR315     -0.1241
     59  CA       104.3590  -57.6800  100.2260 C.3   315  TYR315      0.1605
     60  C        103.7360  -56.4250   99.6180 C.2   315  TYR315      0.2264
     61  O        102.8700  -55.7800  100.2110 O.2   315  TYR315     -0.2867
     62  CB       105.6070  -57.3190  101.0340 C.3   315  TYR315      0.0534
     63  CG       106.2230  -58.4560  101.8230 C.ar  315  TYR315     -0.0201
     64  CD1      105.5490  -59.0350  102.8930 C.ar  315  TYR315     -0.0009
     65  CD2      107.5100  -58.9050  101.5380 C.ar  315  TYR315     -0.0009
     66  CE1      106.1220  -60.0670  103.6210 C.ar  315  TYR315      0.0417
     67  CE2      108.0980  -59.9290  102.2640 C.ar  315  TYR315      0.0417
     68  CZ       107.4070  -60.5030  103.3020 C.ar  315  TYR315      0.1957
     69  OH       108.0140  -61.4980  104.0200 O.3   315  TYR315     -0.2866
     70  N         99.9910  -57.1490   98.9760 N.3   318  TYR318     -0.1227
     71  CA        99.1720  -57.0530  100.1740 C.3   318  TYR318      0.1736
     72  C         99.0270  -55.5960  100.5800 C.2   318  TYR318      0.2596
     73  O         97.9780  -55.1880  101.0620 O.2   318  TYR318     -0.2718
     74  CB        99.7060  -57.9230  101.3240 C.3   318  TYR318      0.0548
     75  CG        99.4420  -59.4000  101.1170 C.ar  318  TYR318     -0.0200
     76  CD1       98.1640  -59.9250  101.3150 C.ar  318  TYR318     -0.0009
     77  CD2      100.4550  -60.2750  100.7160 C.ar  318  TYR318     -0.0009
     78  CE1       97.9000  -61.2600  101.1200 C.ar  318  TYR318      0.0417
     79  CE2      100.2020  -61.6250  100.5180 C.ar  318  TYR318      0.0417
     80  CZ        98.9240  -62.1070  100.7200 C.ar  318  TYR318      0.1957
     81  OH        98.6450  -63.4340  100.5360 O.3   318  TYR318     -0.2866
     82  N        100.0700  -54.8110  100.3540 N.am  319  GLY319     -0.1957
     83  CA       100.0090  -53.3950  100.6570 C.3   319  GLY319      0.1869
     84  C         98.9390  -52.7190   99.8200 C.2   319  GLY319      0.2309
     85  O         98.1410  -51.9540  100.3350 O.2   319  GLY319     -0.2863
     86  N         95.3320  -53.6030  100.7540 N.3   322  ASN322     -0.1240
     87  CA        94.9050  -52.8110  101.9080 C.3   322  ASN322      0.1653
     88  C         94.6800  -51.3290  101.6050 C.2   322  ASN322      0.2266
     89  O         93.9120  -50.6590  102.3140 O.2   322  ASN322     -0.2867
     90  CB        95.8290  -53.0390  103.0920 C.3   322  ASN322      0.1155
     91  CG        95.6500  -54.4120  103.6820 C.2   322  ASN322      0.2627
     92  OD1       94.7270  -55.1190  103.3100 O.2   322  ASN322     -0.2716
     93  ND2       96.5030  -54.7870  104.6210 N.am  322  ASN322     -0.0877
     94  N         90.9740  -50.0070  102.5250 N.3   326  THR326     -0.1218
     95  CA        90.9610  -48.8340  103.3990 C.3   326  THR326      0.1862
     96  C         90.3170  -47.5910  102.8120 C.2   326  THR326      0.2287
     97  O         89.4600  -46.9570  103.4580 O.2   326  THR326     -0.2866
     98  CB        92.4100  -48.4510  103.8010 C.3   326  THR326      0.1770
     99  OG1       93.0150  -49.5240  104.5420 O.3   326  THR326     -0.2211
    100  CG2       92.4540  -47.1640  104.6580 C.3   326  THR326      0.0375
@<TRIPOS>BOND
     1    70    71    1
     2    58    59    1
     3    60    61    2
     4    60    59    1
     5    84    85    2
     6    84    83    1
     7    71    72    1
     8    71    74    1
     9    59    62    1
    10    82    72   am
    11    82    83    1
    12    79    77   ar
    13    79    80   ar
    14    81    80    1
    15    72    73    2
    16    77    75   ar
    17    80    78   ar
    18    86    87    1
    19    62    63    1
    20    75    76   ar
    21    75    74    1
    22    78    76   ar
    23    65    63   ar
    24    65    67   ar
    25    88    87    1
    26    88    89    2
    27    63    64   ar
    28    87    90    1
    29    67    68   ar
    30    10     8   ar
    31    10    11   ar
    32     8     6   ar
    33    57    55    1
    34    94    95    1
    35    96    95    1
    36    96    97    2
    37    56    55    1
    38    64    66   ar
    39    55    54    1
    40    11     9   ar
    41    53    52    2
    42    90    91    1
    43     6     5    1
    44     6     7   ar
    45     5     2    1
    46    68    66   ar
    47    68    69    1
    48    92    91    2
    49    95    98    1
    50    91    93   am
    51     9     7   ar
    52    98    99    1
    53    98   100    1
    54    52    51    1
    55    54    51    1
    56     3     2    1
    57     3     4    2
    58     2     1    1
    59    51    50    1
    60    33    31    1
    61    32    30    1
    62    17    16    1
    63    31    30    1
    64    30    27    1
    65    18    16    1
    66    16    13    1
    67    12    13    1
    68    15    14    2
    69    27    26    1
    70    27    28    1
    71    13    14    1
    72    14    19   am
    73    26    21   am
    74    29    28    2
    75    28    34   am
    76    21    22    2
    77    21    20    1
    78    38    39    1
    79    38    35    1
    80    34    35    1
    81    19    20    1
    82    41    40    2
    83    20    23    1
    84    39    40    1
    85    35    36    1
    86    40    42   am
    87    23    25    1
    88    23    24    1
    89    36    37    2
    90    36    43   am
    91    43    49    1
    92    43    44    1
    93    49    48    1
    94    46    45    2
    95    44    45    1
    96    44    47    1
    97    48    47    1
