@<TRIPOS>MOLECULE
tmp/5f7qB00.pdb
 113 107 0 0 0
SMALL
GASTEIGER

@<TRIPOS>ATOM
      1  N        103.0780  -28.0290  105.4280 N.3   155  ARG155     -0.1231
      2  CA       102.6740  -27.2230  104.2710 C.3   155  ARG155      0.1694
      3  C        102.1340  -25.8420  104.6210 C.2   155  ARG155      0.2591
      4  O        102.2170  -24.9400  103.7960 O.2   155  ARG155     -0.2718
      5  CB       101.7000  -27.9940  103.3910 C.3   155  ARG155      0.0321
      6  CG       102.3730  -29.1960  102.7550 C.3   155  ARG155      0.0489
      7  CD       101.4450  -29.9640  101.8470 C.3   155  ARG155      0.2205
      8  NE       100.2090  -30.2190  102.5470 N.pl3 155  ARG155     -0.0865
      9  CZ        99.0140  -29.7050  102.2680 C.cat 155  ARG155      0.5346
     10  NH1       97.9940  -30.0340  103.0510 N.pl3 155  ARG155      0.1354
     11  NH2       98.8120  -28.9140  101.2250 N.pl3 155  ARG155      0.1354
     12  N        101.5860  -25.6710  105.8190 N.am  156  LYS156     -0.1980
     13  CA       101.1400  -24.3450  106.2320 C.3   156  LYS156      0.1596
     14  C        102.3700  -23.4200  106.2830 C.2   156  LYS156      0.2287
     15  O        102.4610  -22.4490  105.5300 O.2   156  LYS156     -0.2864
     16  CB       100.4510  -24.3680  107.6020 C.3   156  LYS156      0.0298
     17  CG        99.1310  -25.1340  107.6460 C.3   156  LYS156      0.0038
     18  CD        98.4200  -24.9970  108.9880 C.3   156  LYS156      0.0206
     19  CE        97.9180  -23.5770  109.2400 C.3   156  LYS156      0.1093
     20  NZ        97.3600  -23.4080  110.6110 N.3   156  LYS156     -0.1314
     21  N        105.9920  -23.0060   97.3140 N.3   187  TYR187     -0.1241
     22  CA       105.3660  -24.1490   97.9450 C.3   187  TYR187      0.1605
     23  C        106.2260  -25.3860   97.9320 C.2   187  TYR187      0.2264
     24  O        106.9840  -25.6280   96.9950 O.2   187  TYR187     -0.2867
     25  CB       104.0230  -24.4600   97.2850 C.3   187  TYR187      0.0534
     26  CG       103.0590  -23.3040   97.3010 C.ar  187  TYR187     -0.0201
     27  CD1      102.5370  -22.8230   98.5050 C.ar  187  TYR187     -0.0009
     28  CD2      102.6420  -22.6980   96.1110 C.ar  187  TYR187     -0.0009
     29  CE1      101.6440  -21.7570   98.5180 C.ar  187  TYR187      0.0417
     30  CE2      101.7440  -21.6360   96.1180 C.ar  187  TYR187      0.0417
     31  CZ       101.2530  -21.1740   97.3190 C.ar  187  TYR187      0.1957
     32  OH       100.3900  -20.1280   97.3240 O.3   187  TYR187     -0.2866
     33  N        106.0450  -29.7250   98.9550 N.3   189  ASP189     -0.1239
     34  CA       105.2620  -30.8870   99.3250 C.3   189  ASP189      0.1674
     35  C        106.0960  -32.1220   99.0540 C.2   189  ASP189      0.2266
     36  O        107.1060  -32.0410   98.3950 O.2   189  ASP189     -0.2867
     37  CB       103.9630  -30.9150   98.5270 C.3   189  ASP189      0.1410
     38  CG       102.8300  -31.7190   99.2350 C.2   189  ASP189      0.3668
     39  OD1      103.1290  -32.6610  100.0100 O.co2 189  ASP189     -0.2456
     40  OD2      101.6440  -31.3950   98.9910 O.co2 189  ASP189     -0.2456
     41  N         99.5650  -34.6570   91.8220 N.3   197  LEU197     -0.1245
     42  CA        99.0400  -33.4800   91.1590 C.3   197  LEU197      0.1561
     43  C         99.2290  -33.6300   89.6780 C.2   197  LEU197      0.2260
     44  O         98.3320  -33.3040   88.9030 O.2   197  LEU197     -0.2867
     45  CB        99.7380  -32.1860   91.5830 C.3   197  LEU197      0.0270
     46  CG        99.2120  -31.4410   92.7750 C.3   197  LEU197      0.0019
     47  CD1       99.9960  -30.1360   92.9300 C.3   197  LEU197      0.0001
     48  CD2       97.7270  -31.1570   92.5860 C.3   197  LEU197      0.0001
     49  N         90.4160  -34.2770   94.9440 N.3   229  GLN229     -0.1231
     50  CA        91.1510  -33.7430   96.0710 C.3   229  GLN229      0.1698
     51  C         92.1030  -34.7890   96.6420 C.2   229  GLN229      0.2592
     52  O         91.7450  -35.9540   96.8450 O.2   229  GLN229     -0.2718
     53  CB        90.2130  -33.2790   97.1720 C.3   229  GLN229      0.0381
     54  CG        89.2940  -32.1590   96.7140 C.3   229  GLN229      0.0905
     55  CD        88.4610  -31.6030   97.8540 C.2   229  GLN229      0.2608
     56  OE1       88.9940  -31.3200   98.9350 O.2   229  GLN229     -0.2717
     57  NE2       87.1490  -31.4340   97.6210 N.am  229  GLN229     -0.0878
     58  N         93.3140  -34.3540   96.9200 N.am  230  ILE230     -0.1980
     59  CA        94.3040  -35.2220   97.4960 C.3   230  ILE230      0.1595
     60  C         94.0210  -35.3130   99.0010 C.2   230  ILE230      0.2287
     61  O         93.7620  -34.3180   99.6520 O.2   230  ILE230     -0.2864
     62  CB        95.7140  -34.6800   97.2330 C.3   230  ILE230      0.0276
     63  CG1       95.9770  -34.6820   95.7270 C.3   230  ILE230      0.0022
     64  CG2       96.7490  -35.5330   97.9610 C.3   230  ILE230      0.0022
     65  CD1       97.3120  -34.0730   95.3280 C.3   230  ILE230      0.0001
     66  N         94.7380  -35.3480  102.8130 N.3   232  TYR232     -0.1241
     67  CA        95.7190  -34.9510  103.8020 C.3   232  TYR232      0.1605
     68  C         95.0250  -35.1250  105.1140 C.2   232  TYR232      0.2264
     69  O         93.8060  -34.9530  105.1970 O.2   232  TYR232     -0.2867
     70  CB        96.1590  -33.4890  103.6840 C.3   232  TYR232      0.0534
     71  CG        97.0010  -33.2070  102.4830 C.ar  232  TYR232     -0.0201
     72  CD1       96.4170  -32.8710  101.2770 C.ar  232  TYR232     -0.0009
     73  CD2       98.3810  -33.2940  102.5440 C.ar  232  TYR232     -0.0009
     74  CE1       97.1870  -32.6130  100.1620 C.ar  232  TYR232      0.0417
     75  CE2       99.1670  -33.0430  101.4230 C.ar  232  TYR232      0.0417
     76  CZ        98.5630  -32.7010  100.2370 C.ar  232  TYR232      0.1957
     77  OH        99.3080  -32.4600   99.1090 O.3   232  TYR232     -0.2866
     78  N        102.0380  -27.3150   91.9950 N.3   384  LEU384     -0.1245
     79  CA       101.7240  -26.7920   93.3510 C.3   384  LEU384      0.1561
     80  C        101.3690  -25.3230   93.2420 C.2   384  LEU384      0.2260
     81  O        100.4410  -24.8590   93.8680 O.2   384  LEU384     -0.2867
     82  CB       102.9220  -26.8970   94.2960 C.3   384  LEU384      0.0270
     83  CG       103.3360  -28.2890   94.7460 C.3   384  LEU384      0.0019
     84  CD1      104.7150  -28.2180   95.3730 C.3   384  LEU384      0.0001
     85  CD2      102.2830  -28.8770   95.6910 C.3   384  LEU384      0.0001
     86  N         98.0710  -24.9780   90.6990 N.3   387  HIS387     -0.1226
     87  CA        96.8600  -25.4290   91.3200 C.3   387  HIS387      0.1752
     88  C         96.3420  -24.3630   92.2390 C.2   387  HIS387      0.2595
     89  O         95.1550  -24.0700   92.2470 O.2   387  HIS387     -0.2718
     90  CB        97.1220  -26.6820   92.1310 C.3   387  HIS387      0.0759
     91  CG        95.8990  -27.2610   92.7720 C.ar  387  HIS387      0.0818
     92  ND1       95.2120  -28.3270   92.2330 N.ar  387  HIS387     -0.2268
     93  CD2       95.2390  -26.9230   93.9040 C.ar  387  HIS387      0.1154
     94  CE1       94.1860  -28.6280   93.0060 C.ar  387  HIS387      0.1986
     95  NE2       94.1770  -27.7880   94.0270 N.ar  387  HIS387     -0.2212
     96  N         97.2650  -23.7970   93.0100 N.am  388  GLN388     -0.1979
     97  CA        96.9620  -22.8040   94.0060 C.3   388  GLN388      0.1601
     98  C         96.5850  -21.4710   93.3890 C.2   388  GLN388      0.2287
     99  O         95.7770  -20.7500   93.9480 O.2   388  GLN388     -0.2864
    100  CB        98.1510  -22.6390   94.9580 C.3   388  GLN388      0.0394
    101  CG        97.7990  -21.9690   96.2770 C.3   388  GLN388      0.0908
    102  CD        96.9530  -22.8460   97.2140 C.2   388  GLN388      0.2608
    103  OE1       96.3840  -23.8820   96.8190 O.2   388  GLN388     -0.2717
    104  NE2       96.8930  -22.4420   98.4750 N.am  388  GLN388     -0.0878
    105  N         92.9720  -22.0470   91.6380 N.3   391  GLN391     -0.1245
    106  CA        91.8980  -22.5350   92.4580 C.3   391  GLN391      0.1566
    107  C         90.9470  -21.3860   92.8240 C.2   391  GLN391      0.2260
    108  O         91.3850  -20.2650   93.1480 O.2   391  GLN391     -0.2867
    109  CB        92.4200  -23.1580   93.7070 C.3   391  GLN391      0.0367
    110  CG        91.3440  -23.8980   94.4570 C.3   391  GLN391      0.0905
    111  CD        91.9020  -24.6660   95.6220 C.2   391  GLN391      0.2608
    112  OE1       91.7250  -25.8880   95.7100 O.2   391  GLN391     -0.2717
    113  NE2       92.6270  -23.9670   96.5050 N.am  391  GLN391     -0.0878
@<TRIPOS>BOND
     1    44    43    2
     2    43    42    1
     3    86    87    1
     4    42    45    1
     5    42    41    1
     6    87    90    1
     7    87    88    1
     8    45    46    1
     9   105   106    1
    10    78    79    1
    11    90    91    1
    12    92    91   ar
    13    92    94   ar
    14    88    89    2
    15    88    96   am
    16   106   107    1
    17   106   109    1
    18    48    46    1
    19    91    93   ar
    20    46    47    1
    21   107   108    2
    22    94    95   ar
    23    96    97    1
    24    80    79    1
    25    80    81    2
    26    79    82    1
    27    98    99    2
    28    98    97    1
    29   109   110    1
    30    93    95   ar
    31    97   100    1
    32    82    83    1
    33   110   111    1
    34    83    84    1
    35    83    85    1
    36    49    50    1
    37   100   101    1
    38    65    63    1
    39   111   112    2
    40   111   113   am
    41    63    62    1
    42    50    51    1
    43    50    53    1
    44    28    30   ar
    45    28    26   ar
    46    30    31   ar
    47   101   102    1
    48    51    52    2
    49    51    58   am
    50    54    53    1
    51    54    55    1
    52   103   102    2
    53    58    59    1
    54    24    23    2
    55   102   104   am
    56    62    59    1
    57    62    64    1
    58    25    26    1
    59    25    22    1
    60    26    27   ar
    61    21    22    1
    62    31    32    1
    63    31    29   ar
    64    59    60    1
    65    57    55   am
    66    55    56    2
    67    23    22    1
    68    36    35    2
    69    27    29   ar
    70    37    38    1
    71    37    34    1
    72    33    34    1
    73    40    38   ar
    74    60    61    2
    75    35    34    1
    76    77    76    1
    77    38    39   ar
    78    74    76   ar
    79    74    72   ar
    80    76    75   ar
    81    11     9    1
    82    72    71   ar
    83    75    73   ar
    84     7     8    1
    85     7     6    1
    86     9     8    2
    87     9    10    1
    88    71    73   ar
    89    71    70    1
    90     6     5    1
    91    66    67    1
    92     5     2    1
    93    70    67    1
    94     4     3    2
    95    67    68    1
    96     2     3    1
    97     2     1    1
    98     3    12   am
    99    68    69    2
   100    15    14    2
   101    12    13    1
   102    13    14    1
   103    13    16    1
   104    16    17    1
   105    17    18    1
   106    18    19    1
   107    19    20    1
