@<TRIPOS>MOLECULE
tmp/5f7rB01.pdb
 126 120 0 0 0
SMALL
GASTEIGER

@<TRIPOS>ATOM
      1  N         44.2010   82.4680   88.1080 N.3     7  LYS7       -0.1231
      2  CA        43.5210   83.6960   88.5350 C.3     7  LYS7        0.1693
      3  C         42.9580   84.3860   87.3120 C.2     7  LYS7        0.2592
      4  O         43.6960   84.6960   86.3580 O.2     7  LYS7       -0.2718
      5  CB        44.4770   84.6580   89.2400 C.3     7  LYS7        0.0285
      6  CG        43.7520   85.8260   89.9000 C.3     7  LYS7        0.0035
      7  CD        44.6970   86.9040   90.3760 C.3     7  LYS7        0.0206
      8  CE        43.9210   88.0100   91.0780 C.3     7  LYS7        0.1093
      9  NZ        44.6970   89.2660   91.2410 N.3     7  LYS7       -0.1314
     10  N         41.6410   84.5350   87.3050 N.am    8  VAL8       -0.1966
     11  CA        40.9540   85.1790   86.2090 C.3     8  VAL8        0.1727
     12  C         40.7960   86.6520   86.5940 C.2     8  VAL8        0.2616
     13  O         39.9260   87.0090   87.3890 O.2     8  VAL8       -0.2715
     14  CB        39.5910   84.5130   85.9290 C.3     8  VAL8        0.0290
     15  CG1       38.8740   85.2160   84.7740 C.3     8  VAL8        0.0023
     16  CG2       39.7730   83.0260   85.6190 C.3     8  VAL8        0.0023
     17  N         41.6500   87.4890   86.0250 N.am    9  GLU9       -0.1963
     18  CA        41.5320   88.9420   86.1390 C.3     9  GLU9        0.1733
     19  C         40.6980   89.4550   84.9810 C.2     9  GLU9        0.2616
     20  O         40.2580   88.6740   84.1420 O.2     9  GLU9       -0.2715
     21  CB        42.9180   89.5950   86.1990 C.3     9  GLU9        0.0429
     22  CG        43.7180   89.1940   87.4320 C.3     9  GLU9        0.1163
     23  CD        45.0270   89.9530   87.6050 C.2     9  GLU9        0.3649
     24  OE1       45.5930   89.9190   88.7200 O.co2   9  GLU9       -0.2457
     25  OE2       45.4550   90.6370   86.6540 O.co2   9  GLU9       -0.2457
     26  N         40.5350   90.7630   84.8740 N.am   10  GLU10      -0.1977
     27  CA        39.6780   91.3130   83.8520 C.3    10  GLU10       0.1602
     28  C         40.3950   91.4840   82.5160 C.2    10  GLU10       0.2287
     29  O         39.7510   91.4290   81.4890 O.2    10  GLU10      -0.2864
     30  CB        39.0400   92.6170   84.3220 C.3    10  GLU10       0.0415
     31  CG        38.1430   92.4110   85.5670 C.3    10  GLU10       0.1163
     32  CD        38.9490   92.3160   86.8470 C.2    10  GLU10       0.3649
     33  OE1       39.8900   93.1570   87.0220 O.co2  10  GLU10      -0.2457
     34  OE2       38.6610   91.4160   87.6660 O.co2  10  GLU10      -0.2457
     35  N         36.6690   86.8320   90.2670 N.3    69  SER69      -0.1217
     36  CA        35.8090   87.8710   90.8360 C.3    69  SER69       0.1889
     37  C         34.3590   87.4000   90.9300 C.2    69  SER69       0.2288
     38  O         33.9030   86.5770   90.1290 O.2    69  SER69      -0.2866
     39  CB        35.8620   89.1340   89.9670 C.3    69  SER69       0.2089
     40  OG        35.5990   88.8230   88.6200 O.3    69  SER69      -0.2183
     41  N         32.4640   92.3360   87.3760 N.3    84  MET84      -0.1245
     42  CA        33.8040   92.7040   86.8750 C.3    84  MET84       0.1570
     43  C         34.0430   92.1650   85.4820 C.2    84  MET84       0.2261
     44  O         34.6890   92.8050   84.6670 O.2    84  MET84      -0.2867
     45  CB        34.9220   92.1480   87.7740 C.3    84  MET84       0.0387
     46  CG        35.0680   92.8620   89.0950 C.3    84  MET84       0.0595
     47  SD        35.6790   94.5470   88.8280 S.3    84  MET84      -0.1393
     48  CE        37.4060   94.4710   89.2260 C.3    84  MET84       0.0692
     49  N         38.3400   85.4020   94.3640 N.3   110  ASN110     -0.1240
     50  CA        39.7340   85.7730   94.3670 C.3   110  ASN110      0.1653
     51  C         40.3140   86.0970   95.7340 C.2   110  ASN110      0.2266
     52  O         41.3290   85.5240   96.1360 O.2   110  ASN110     -0.2867
     53  CB        40.0400   86.8920   93.3520 C.3   110  ASN110      0.1155
     54  CG        39.1080   88.1030   93.4350 C.2   110  ASN110      0.2627
     55  OD1       38.5560   88.4650   94.4850 O.2   110  ASN110     -0.2716
     56  ND2       38.9640   88.7670   92.2930 N.am  110  ASN110     -0.0877
     57  N         41.6520   93.9140   99.7660 N.3   134  SER134     -0.1202
     58  CA        42.4920   94.0600   98.5640 C.3   134  SER134      0.2020
     59  C         42.2830   95.3890   97.8330 C.2   134  SER134      0.2619
     60  O         41.1570   95.8320   97.6350 O.2   134  SER134     -0.2717
     61  CB        42.3240   92.8540   97.6300 C.3   134  SER134      0.2103
     62  OG        41.0640   92.8290   96.9860 O.3   134  SER134     -0.2182
     63  N         43.3910   96.0060   97.4320 N.am  135  VAL135     -0.1965
     64  CA        43.3930   97.2620   96.6920 C.3   135  VAL135      0.1727
     65  C         44.0210   97.0420   95.2960 C.2   135  VAL135      0.2617
     66  O         45.0000   96.3100   95.1520 O.2   135  VAL135     -0.2715
     67  CB        44.1460   98.3740   97.4590 C.3   135  VAL135      0.0290
     68  CG1       45.5610   97.9580   97.8320 C.3   135  VAL135      0.0023
     69  CG2       44.2150   99.6410   96.6370 C.3   135  VAL135      0.0023
     70  N         43.3670   97.5810   94.2750 N.am  136  GLY136     -0.1940
     71  CA        43.8590   97.5020   92.9090 C.3   136  GLY136      0.2014
     72  C         42.6810   97.7390   91.9790 C.2   136  GLY136      0.2639
     73  O         42.0090   98.7700   92.0750 O.2   136  GLY136     -0.2714
     74  N         42.4040   96.7590   91.1260 N.am  137  ALA137     -0.1963
     75  CA        41.3910   96.9320   90.0810 C.3   137  ALA137      0.1728
     76  C         39.9880   97.1540   90.6960 C.2   137  ALA137      0.2617
     77  O         39.2050   98.0020   90.2220 O.2   137  ALA137     -0.2715
     78  CB        41.3970   95.7410   89.1520 C.3   137  ALA137      0.0334
     79  N         39.6870   96.3800   91.7350 N.am  138  GLY138     -0.1940
     80  CA        38.5040   96.5600   92.5510 C.3   138  GLY138      0.2014
     81  C         38.9020   96.5220   94.0090 C.2   138  GLY138      0.2639
     82  O         40.1030   96.5140   94.3430 O.2   138  GLY138     -0.2714
     83  N         37.9020   96.4020   94.8740 N.am  139  LEU139     -0.1963
     84  CA        38.0990   96.4140   96.3280 C.3   139  LEU139      0.1728
     85  C         37.4640   95.1280   96.8550 C.2   139  LEU139      0.2616
     86  O         36.2670   94.9150   96.6840 O.2   139  LEU139     -0.2715
     87  CB        37.4170   97.6750   96.9030 C.3   139  LEU139      0.0311
     88  CG        37.5610   98.1160   98.3670 C.3   139  LEU139      0.0022
     89  CD1       36.8240   97.2220   99.3470 C.3   139  LEU139      0.0001
     90  CD2       39.0120   98.2570   98.7570 C.3   139  LEU139      0.0001
     91  N         38.2930   94.2200   97.3610 N.am  140  GLY140     -0.1955
     92  CA        37.8290   92.9450   97.9190 C.3   140  GLY140      0.1869
     93  C         37.9690   92.8540   99.4330 C.2   140  GLY140      0.2309
     94  O         38.7710   93.5600  100.0400 O.2   140  GLY140     -0.2863
     95  N         33.8680  100.7570   95.8110 N.3   181  GLU181     -0.1245
     96  CA        34.7870  100.4380   94.7020 C.3   181  GLU181      0.1567
     97  C         34.9240  101.5460   93.6540 C.2   181  GLU181      0.2260
     98  O         35.9520  101.6900   92.9940 O.2   181  GLU181     -0.2867
     99  CB        34.2680   99.1680   94.0170 C.3   181  GLU181      0.0388
    100  CG        35.2010   98.5470   93.0100 C.3   181  GLU181      0.1160
    101  CD        34.9460   97.0660   92.9380 C.2   181  GLU181      0.3649
    102  OE1       34.3650   96.6140   91.9460 O.co2 181  GLU181     -0.2457
    103  OE2       35.2540   96.3800   93.9280 O.co2 181  GLU181     -0.2457
    104  N         47.4130   94.3550   94.1150 N.3   253  GLU253     -0.1245
    105  CA        48.3790   94.8910   93.1430 C.3   253  GLU253      0.1567
    106  C         48.5240   96.3940   93.3000 C.2   253  GLU253      0.2260
    107  O         49.5430   96.9570   92.9480 O.2   253  GLU253     -0.2867
    108  CB        47.9090   94.5570   91.7230 C.3   253  GLU253      0.0388
    109  CG        47.8680   93.0680   91.4430 C.3   253  GLU253      0.1160
    110  CD        46.6220   92.3450   91.8980 C.2   253  GLU253      0.3649
    111  OE1       46.6380   91.1020   91.7320 O.co2 253  GLU253     -0.2457
    112  OE2       45.6220   92.9770   92.3940 O.co2 253  GLU253     -0.2457
    113  N         48.0320   85.2190   95.1170 N.3   293  TRP293     -0.1241
    114  CA        46.7000   84.9340   94.5920 C.3   293  TRP293      0.1605
    115  C         46.7040   83.5170   93.9980 C.2   293  TRP293      0.2264
    116  O         45.7430   82.7490   94.1870 O.2   293  TRP293     -0.2867
    117  CB        46.2430   85.9290   93.5070 C.3   293  TRP293      0.0550
    118  CG        46.1020   87.3660   93.9850 C.ar  293  TRP293      0.0003
    119  CD1       47.0920   88.3020   94.0350 C.ar  293  TRP293      0.0946
    120  CD2       44.9190   88.0200   94.4810 C.ar  293  TRP293      0.0152
    121  NE1       46.6110   89.4820   94.5330 N.ar  293  TRP293     -0.2442
    122  CE2       45.2900   89.3440   94.8230 C.ar  293  TRP293      0.0810
    123  CE3       43.6000   87.6090   94.7100 C.ar  293  TRP293      0.0012
    124  CZ2       44.3890   90.2730   95.3430 C.ar  293  TRP293      0.0191
    125  CZ3       42.6910   88.5430   95.2330 C.ar  293  TRP293      0.0001
    126  CH2       43.1000   89.8610   95.5370 C.ar  293  TRP293      0.0015
@<TRIPOS>BOND
     1    29    28    2
     2    28    27    1
     3    27    30    1
     4    27    26    1
     5    20    19    2
     6    30    31    1
     7    44    43    2
     8    15    14    1
     9    26    19   am
    10    19    18    1
    11    43    42    1
    12    31    32    1
    13    16    14    1
    14    14    11    1
    15    17    18    1
    16    17    12   am
    17    18    21    1
    18    21    22    1
    19    11    12    1
    20    11    10    1
    21     4     3    2
    22    12    13    2
    23    25    23   ar
    24    32    33   ar
    25    32    34   ar
    26    42    41    1
    27    42    45    1
    28    10     3   am
    29     3     2    1
    30    22    23    1
    31    23    24   ar
    32    45    46    1
    33     1     2    1
    34     2     5    1
    35    40    39    1
    36    47    46    1
    37    47    48    1
    38    78    75    1
    39     5     6    1
    40     6     7    1
    41    39    36    1
    42    75    76    1
    43    75    74    1
    44    38    37    2
    45    77    76    2
    46    35    36    1
    47     7     8    1
    48    76    79   am
    49    36    37    1
    50     8     9    1
    51    74    72   am
    52   109   108    1
    53   109   110    1
    54   108   105    1
    55   111   110   ar
    56    79    80    1
    57   110   112   ar
    58   102   101   ar
    59    72    73    2
    60    72    71    1
    61    56    54   am
    62    80    81    1
    63    71    70    1
    64   101   100    1
    65   101   103   ar
    66   107   106    2
    67    98    97    2
    68   100    99    1
    69   105   106    1
    70   105   104    1
    71    53    54    1
    72    53    50    1
    73    54    55    2
    74   117   118    1
    75   117   114    1
    76    97    96    1
    77   118   119   ar
    78   118   120   ar
    79   115   116    2
    80   115   114    1
    81    81    82    2
    82    81    83   am
    83    99    96    1
    84   119   121   ar
    85    70    65   am
    86    49    50    1
    87    50    51    1
    88   120   123   ar
    89   120   122   ar
    90   121   122   ar
    91   114   113    1
    92    96    95    1
    93   123   125   ar
    94   122   124   ar
    95    83    84    1
    96    66    65    2
    97   125   126   ar
    98    65    64    1
    99   124   126   ar
   100    51    52    2
   101    84    85    1
   102    84    87    1
   103    69    67    1
   104    86    85    2
   105    64    63    1
   106    64    67    1
   107    85    91   am
   108    87    88    1
   109    62    61    1
   110    91    92    1
   111    63    59   am
   112    67    68    1
   113    61    58    1
   114    60    59    2
   115    59    58    1
   116    92    93    1
   117    88    90    1
   118    88    89    1
   119    58    57    1
   120    93    94    2
