@<TRIPOS>MOLECULE
tmp/5f7rB00.pdb
 142 135 0 0 0
SMALL
GASTEIGER

@<TRIPOS>ATOM
      1  N         40.5350   90.7630   84.8740 N.3    10  GLU10      -0.1245
      2  CA        39.6780   91.3130   83.8520 C.3    10  GLU10       0.1567
      3  C         40.3950   91.4840   82.5160 C.2    10  GLU10       0.2260
      4  O         39.7510   91.4290   81.4890 O.2    10  GLU10      -0.2867
      5  CB        39.0400   92.6170   84.3220 C.3    10  GLU10       0.0388
      6  CG        38.1430   92.4110   85.5670 C.3    10  GLU10       0.1160
      7  CD        38.9490   92.3160   86.8470 C.2    10  GLU10       0.3649
      8  OE1       39.8900   93.1570   87.0220 O.co2  10  GLU10      -0.2457
      9  OE2       38.6610   91.4160   87.6660 O.co2  10  GLU10      -0.2457
     10  N         36.6690   86.8320   90.2670 N.3    69  SER69      -0.1202
     11  CA        35.8090   87.8710   90.8360 C.3    69  SER69       0.2020
     12  C         34.3590   87.4000   90.9300 C.2    69  SER69       0.2619
     13  O         33.9030   86.5770   90.1290 O.2    69  SER69      -0.2717
     14  CB        35.8620   89.1340   89.9670 C.3    69  SER69       0.2103
     15  OG        35.5990   88.8230   88.6200 O.3    69  SER69      -0.2182
     16  N         33.6480   87.9230   91.9270 N.am   70  GLY70      -0.1956
     17  CA        32.1940   87.8940   91.9750 C.3    70  GLY70       0.1869
     18  C         31.6440   86.8120   92.8880 C.2    70  GLY70       0.2309
     19  O         32.3510   86.2450   93.7200 O.2    70  GLY70      -0.2863
     20  N         30.2150   90.9110   87.9240 N.3    83  THR83      -0.1203
     21  CA        30.0130   92.1420   87.1900 C.3    83  THR83       0.1994
     22  C         31.3610   92.7430   86.7490 C.2    83  THR83       0.2617
     23  O         31.4060   93.5520   85.8230 O.2    83  THR83      -0.2717
     24  CB        29.1570   93.1330   88.0240 C.3    83  THR83       0.1784
     25  OG1       29.8720   93.5650   89.1850 O.3    83  THR83      -0.2211
     26  CG2       27.9060   92.4550   88.4710 C.3    83  THR83       0.0376
     27  N         32.4640   92.3360   87.3760 N.am   84  MET84      -0.1979
     28  CA        33.8040   92.7040   86.8750 C.3    84  MET84       0.1605
     29  C         34.0430   92.1650   85.4820 C.2    84  MET84       0.2287
     30  O         34.6890   92.8050   84.6670 O.2    84  MET84      -0.2864
     31  CB        34.9220   92.1480   87.7740 C.3    84  MET84       0.0413
     32  CG        35.0680   92.8620   89.0950 C.3    84  MET84       0.0598
     33  SD        35.6790   94.5470   88.8280 S.3    84  MET84      -0.1393
     34  CE        37.4060   94.4710   89.2260 C.3    84  MET84       0.0692
     35  N         36.1410   82.8030   95.2500 N.3   109  LYS109     -0.1231
     36  CA        36.3740   84.2090   95.0080 C.3   109  LYS109      0.1693
     37  C         37.8310   84.5460   95.2250 C.2   109  LYS109      0.2592
     38  O         38.4770   84.0400   96.1540 O.2   109  LYS109     -0.2718
     39  CB        35.5140   85.0780   95.9280 C.3   109  LYS109      0.0285
     40  CG        35.6660   86.5750   95.6840 C.3   109  LYS109      0.0035
     41  CD        34.5790   87.3520   96.4160 C.3   109  LYS109      0.0206
     42  CE        34.6630   87.1360   97.9130 C.3   109  LYS109      0.1093
     43  NZ        33.9070   88.1990   98.6320 N.3   109  LYS109     -0.1314
     44  N         38.3400   85.4020   94.3640 N.am  110  ASN110     -0.1960
     45  CA        39.7340   85.7730   94.3670 C.3   110  ASN110      0.1819
     46  C         40.3140   86.0970   95.7340 C.2   110  ASN110      0.2621
     47  O         41.3290   85.5240   96.1360 O.2   110  ASN110     -0.2715
     48  CB        40.0400   86.8920   93.3520 C.3   110  ASN110      0.1195
     49  CG        39.1080   88.1030   93.4350 C.2   110  ASN110      0.2630
     50  OD1       38.5560   88.4650   94.4850 O.2   110  ASN110     -0.2716
     51  ND2       38.9640   88.7670   92.2930 N.am  110  ASN110     -0.0877
     52  N         39.6620   87.0050   96.4730 N.am  111  ILE111     -0.1977
     53  CA        40.2330   87.4540   97.7460 C.3   111  ILE111      0.1596
     54  C         40.1580   86.3710   98.8470 C.2   111  ILE111      0.2287
     55  O         41.0250   86.3030   99.7160 O.2   111  ILE111     -0.2864
     56  CB        39.5980   88.7980   98.1820 C.3   111  ILE111      0.0276
     57  CG1       40.2090   89.3510   99.4730 C.3   111  ILE111      0.0022
     58  CG2       38.0990   88.6430   98.3660 C.3   111  ILE111      0.0022
     59  CD1       41.6600   89.6170   99.4100 C.3   111  ILE111      0.0001
     60  N         41.6520   93.9140   99.7660 N.3   134  SER134     -0.1217
     61  CA        42.4920   94.0600   98.5640 C.3   134  SER134      0.1889
     62  C         42.2830   95.3890   97.8330 C.2   134  SER134      0.2288
     63  O         41.1570   95.8320   97.6350 O.2   134  SER134     -0.2866
     64  CB        42.3240   92.8540   97.6300 C.3   134  SER134      0.2089
     65  OG        41.0640   92.8290   96.9860 O.3   134  SER134     -0.2183
     66  N         42.4040   96.7590   91.1260 N.3   137  ALA137     -0.1231
     67  CA        41.3910   96.9320   90.0810 C.3   137  ALA137      0.1694
     68  C         39.9880   97.1540   90.6960 C.2   137  ALA137      0.2593
     69  O         39.2050   98.0020   90.2220 O.2   137  ALA137     -0.2718
     70  CB        41.3970   95.7410   89.1520 C.3   137  ALA137      0.0304
     71  N         39.6870   96.3800   91.7350 N.am  138  GLY138     -0.1942
     72  CA        38.5040   96.5600   92.5510 C.3   138  GLY138      0.2014
     73  C         38.9020   96.5220   94.0090 C.2   138  GLY138      0.2639
     74  O         40.1030   96.5140   94.3430 O.2   138  GLY138     -0.2714
     75  N         37.9020   96.4020   94.8740 N.am  139  LEU139     -0.1963
     76  CA        38.0990   96.4140   96.3280 C.3   139  LEU139      0.1728
     77  C         37.4640   95.1280   96.8550 C.2   139  LEU139      0.2616
     78  O         36.2670   94.9150   96.6840 O.2   139  LEU139     -0.2715
     79  CB        37.4170   97.6750   96.9030 C.3   139  LEU139      0.0311
     80  CG        37.5610   98.1160   98.3670 C.3   139  LEU139      0.0022
     81  CD1       36.8240   97.2220   99.3470 C.3   139  LEU139      0.0001
     82  CD2       39.0120   98.2570   98.7570 C.3   139  LEU139      0.0001
     83  N         38.2930   94.2200   97.3610 N.am  140  GLY140     -0.1955
     84  CA        37.8290   92.9450   97.9190 C.3   140  GLY140      0.1869
     85  C         37.9690   92.8540   99.4330 C.2   140  GLY140      0.2309
     86  O         38.7710   93.5600  100.0400 O.2   140  GLY140     -0.2863
     87  N         31.2710   91.2710   99.7160 N.3   159  GLU159     -0.1245
     88  CA        31.1780   92.2080   98.5830 C.3   159  GLU159      0.1567
     89  C         31.2000   93.6480   99.0830 C.2   159  GLU159      0.2260
     90  O         30.3000   94.4780   98.7940 O.2   159  GLU159     -0.2867
     91  CB        29.9800   91.9030   97.6770 C.3   159  GLU159      0.0388
     92  CG        30.1890   90.6590   96.8220 C.3   159  GLU159      0.1160
     93  CD        31.3900   90.7020   95.8840 C.2   159  GLU159      0.3649
     94  OE1       31.8130   91.8030   95.4280 O.co2 159  GLU159     -0.2457
     95  OE2       31.9010   89.6150   95.5480 O.co2 159  GLU159     -0.2457
     96  N         33.2060   95.9950   98.3920 N.3   161  GLY161     -0.1210
     97  CA        33.3410   96.9460   97.3100 C.3   161  GLY161      0.1956
     98  C         32.0230   97.5360   96.8960 C.2   161  GLY161      0.2611
     99  O         31.9810   98.6190   96.3090 O.2   161  GLY161     -0.2717
    100  N         30.9400   96.8210   97.1840 N.am  162  HIS162     -0.1975
    101  CA        29.5940   97.2380   96.7780 C.3   162  HIS162      0.1656
    102  C         28.7280   97.6500   97.9450 C.2   162  HIS162      0.2291
    103  O         27.4950   97.6550   97.8520 O.2   162  HIS162     -0.2864
    104  CB        28.9800   96.1590   95.8840 C.3   162  HIS162      0.0771
    105  CG        29.9140   95.7830   94.7970 C.ar  162  HIS162      0.0820
    106  ND1       30.2110   96.6570   93.7690 N.ar  162  HIS162     -0.2267
    107  CD2       30.8250   94.7910   94.7190 C.ar  162  HIS162      0.1154
    108  CE1       31.2120   96.1710   93.0610 C.ar  162  HIS162      0.1986
    109  NE2       31.6030   95.0400   93.6160 N.ar  162  HIS162     -0.2212
    110  N         29.6470   99.0830   88.0270 N.3   173  HIS173     -0.1241
    111  CA        29.3920   97.9310   87.1890 C.3   173  HIS173      0.1621
    112  C         28.3970   96.9410   87.7930 C.2   173  HIS173      0.2264
    113  O         27.7670   96.1790   87.0480 O.2   173  HIS173     -0.2867
    114  CB        30.6980   97.2190   86.8070 C.3   173  HIS173      0.0745
    115  CG        31.5680   96.8870   87.9750 C.ar  173  HIS173      0.0817
    116  ND1       31.4070   95.7390   88.7200 N.ar  173  HIS173     -0.2268
    117  CD2       32.6150   97.5470   88.5210 C.ar  173  HIS173      0.1154
    118  CE1       32.2890   95.7260   89.7050 C.ar  173  HIS173      0.1986
    119  NE2       33.0530   96.7950   89.5880 N.ar  173  HIS173     -0.2212
    120  N         33.8680  100.7570   95.8110 N.3   181  GLU181     -0.1245
    121  CA        34.7870  100.4380   94.7020 C.3   181  GLU181      0.1567
    122  C         34.9240  101.5460   93.6540 C.2   181  GLU181      0.2260
    123  O         35.9520  101.6900   92.9940 O.2   181  GLU181     -0.2867
    124  CB        34.2680   99.1680   94.0170 C.3   181  GLU181      0.0388
    125  CG        35.2010   98.5470   93.0100 C.3   181  GLU181      0.1160
    126  CD        34.9460   97.0660   92.9380 C.2   181  GLU181      0.3649
    127  OE1       34.3650   96.6140   91.9460 O.co2 181  GLU181     -0.2457
    128  OE2       35.2540   96.3800   93.9280 O.co2 181  GLU181     -0.2457
    129  N         48.0320   85.2190   95.1170 N.3   293  TRP293     -0.1241
    130  CA        46.7000   84.9340   94.5920 C.3   293  TRP293      0.1605
    131  C         46.7040   83.5170   93.9980 C.2   293  TRP293      0.2264
    132  O         45.7430   82.7490   94.1870 O.2   293  TRP293     -0.2867
    133  CB        46.2430   85.9290   93.5070 C.3   293  TRP293      0.0550
    134  CG        46.1020   87.3660   93.9850 C.ar  293  TRP293      0.0003
    135  CD1       47.0920   88.3020   94.0350 C.ar  293  TRP293      0.0946
    136  CD2       44.9190   88.0200   94.4810 C.ar  293  TRP293      0.0152
    137  NE1       46.6110   89.4820   94.5330 N.ar  293  TRP293     -0.2442
    138  CE2       45.2900   89.3440   94.8230 C.ar  293  TRP293      0.0810
    139  CE3       43.6000   87.6090   94.7100 C.ar  293  TRP293      0.0012
    140  CZ2       44.3890   90.2730   95.3430 C.ar  293  TRP293      0.0191
    141  CZ3       42.6910   88.5430   95.2330 C.ar  293  TRP293      0.0001
    142  CH2       43.1000   89.8610   95.5370 C.ar  293  TRP293      0.0015
@<TRIPOS>BOND
     1     4     3    2
     2     3     2    1
     3     2     5    1
     4     2     1    1
     5     5     6    1
     6    30    29    2
     7    29    28    1
     8     6     7    1
     9    23    22    2
    10    22    21    1
    11    22    27   am
    12   114   111    1
    13   114   115    1
    14     7     8   ar
    15     7     9   ar
    16    28    27    1
    17    28    31    1
    18   113   112    2
    19   111   112    1
    20   111   110    1
    21    21    20    1
    22    21    24    1
    23    31    32    1
    24   115   117   ar
    25   115   116   ar
    26    24    26    1
    27    24    25    1
    28   117   119   ar
    29    15    14    1
    30   116   118   ar
    31    33    32    1
    32    33    34    1
    33    70    67    1
    34   119   118   ar
    35    14    11    1
    36    67    68    1
    37    67    66    1
    38    13    12    2
    39    69    68    2
    40    10    11    1
    41    68    71   am
    42    11    12    1
    43    12    16   am
    44    71    72    1
    45    16    17    1
    46   127   126   ar
    47    17    18    1
    48    51    49   am
    49    72    73    1
    50    18    19    2
    51   126   125    1
    52   126   128   ar
    53   123   122    2
    54   125   124    1
    55   108   109   ar
    56   108   106   ar
    57    48    49    1
    58    48    45    1
    59    49    50    2
    60   133   134    1
    61   133   130    1
    62   109   107   ar
    63   122   121    1
    64   106   105   ar
    65   134   135   ar
    66   134   136   ar
    67   131   132    2
    68   131   130    1
    69    73    74    2
    70    73    75   am
    71   124   121    1
    72   135   137   ar
    73    44    45    1
    74    44    37   am
    75    45    46    1
    76   136   139   ar
    77   136   138   ar
    78   137   138   ar
    79   130   129    1
    80   121   120    1
    81   139   141   ar
    82   107   105   ar
    83   105   104    1
    84   138   140   ar
    85    75    76    1
    86    36    37    1
    87    36    35    1
    88    36    39    1
    89    37    38    2
    90   141   142   ar
    91   140   142   ar
    92    94    93   ar
    93    95    93   ar
    94    40    39    1
    95    40    41    1
    96    46    47    2
    97    46    52   am
    98    93    92    1
    99   104   101    1
   100    99    98    2
   101    76    77    1
   102    76    79    1
   103    41    42    1
   104    52    53    1
   105    78    77    2
   106   101   100    1
   107   101   102    1
   108    92    91    1
   109    77    83   am
   110    98   100   am
   111    98    97    1
   112    79    80    1
   113    65    64    1
   114    97    96    1
   115    83    84    1
   116    64    61    1
   117    63    62    2
   118    91    88    1
   119    53    56    1
   120    53    54    1
   121    62    61    1
   122   103   102    2
   123    42    43    1
   124    84    85    1
   125    56    58    1
   126    56    57    1
   127    80    82    1
   128    80    81    1
   129    61    60    1
   130    88    89    1
   131    88    87    1
   132    90    89    2
   133    54    55    2
   134    59    57    1
   135    85    86    2
