@<TRIPOS>MOLECULE
tmp/5f7sB01.pdb
 102 103 0 0 0
SMALL
GASTEIGER

@<TRIPOS>ATOM
      1  N        466.0380   36.3730  -10.1510 N.3    12  PRO12      -0.2102
      2  CA       467.2660   36.8680  -10.8280 C.3    12  PRO12       0.1504
      3  C        468.4480   37.3800   -9.9510 C.2    12  PRO12       0.2575
      4  O        469.5790   37.4650  -10.4420 O.2    12  PRO12      -0.2718
      5  CB       466.7550   38.0370  -11.6870 C.3    12  PRO12       0.0282
      6  CG       465.2610   37.9530  -11.6830 C.3    12  PRO12       0.0208
      7  CD       464.8530   37.1980  -10.4650 C.3    12  PRO12       0.0893
      8  N        468.1700   37.8200   -8.7270 N.am   13  TYR13      -0.1977
      9  CA       469.1910   38.3050   -7.8080 C.3    13  TYR13       0.1639
     10  C        469.1610   37.5960   -6.4450 C.2    13  TYR13       0.2290
     11  O        469.6010   38.1560   -5.4510 O.2    13  TYR13      -0.2864
     12  CB       469.0390   39.8260   -7.5930 C.3    13  TYR13       0.0560
     13  CG       469.0090   40.6830   -8.8610 C.ar   13  TYR13      -0.0198
     14  CD1      470.1800   40.9730   -9.5660 C.ar   13  TYR13      -0.0009
     15  CD2      467.8070   41.2500   -9.3170 C.ar   13  TYR13      -0.0009
     16  CE1      470.1480   41.7590  -10.7220 C.ar   13  TYR13       0.0417
     17  CE2      467.7690   42.0430  -10.4510 C.ar   13  TYR13       0.0417
     18  CZ       468.9390   42.2970  -11.1580 C.ar   13  TYR13       0.1957
     19  OH       468.8880   43.0880  -12.2770 O.3    13  TYR13      -0.2866
     20  N        479.0430   48.1130  -12.9640 N.3   163  ARG163     -0.1231
     21  CA       478.6680   46.7840  -13.4300 C.3   163  ARG163      0.1694
     22  C        477.1440   46.6980  -13.2400 C.2   163  ARG163      0.2592
     23  O        476.6320   47.0800  -12.1880 O.2   163  ARG163     -0.2718
     24  CB       479.3150   45.6790  -12.5940 C.3   163  ARG163      0.0321
     25  CG       480.8240   45.6860  -12.6350 C.3   163  ARG163      0.0489
     26  CD       481.4110   44.5040  -11.8820 C.3   163  ARG163      0.2205
     27  NE       482.8600   44.6010  -11.9010 N.pl3 163  ARG163     -0.0865
     28  CZ       483.5770   45.4060  -11.1100 C.cat 163  ARG163      0.5346
     29  NH1      482.9840   46.1970  -10.1980 N.pl3 163  ARG163      0.1354
     30  NH2      484.9010   45.4360  -11.2390 N.pl3 163  ARG163      0.1354
     31  N        476.4370   46.1780  -14.2340 N.am  164  LEU164     -0.1966
     32  CA       474.9980   46.0580  -14.1650 C.3   164  LEU164      0.1728
     33  C        474.5620   44.9220  -15.0450 C.2   164  LEU164      0.2616
     34  O        475.3950   44.2370  -15.6330 O.2   164  LEU164     -0.2715
     35  CB       474.3390   47.3530  -14.6630 C.3   164  LEU164      0.0311
     36  CG       474.7150   47.8310  -16.0760 C.3   164  LEU164      0.0022
     37  CD1      473.5520   48.4960  -16.7910 C.3   164  LEU164      0.0001
     38  CD2      475.9350   48.7250  -16.0790 C.3   164  LEU164      0.0001
     39  N        473.2540   44.7200  -15.1290 N.am  165  ASP165     -0.1971
     40  CA       472.6720   43.7160  -16.0240 C.3   165  ASP165      0.1709
     41  C        471.3550   44.2360  -16.5720 C.2   165  ASP165      0.2293
     42  O        470.9200   45.3150  -16.2170 O.2   165  ASP165     -0.2864
     43  CB       472.5140   42.3520  -15.3290 C.3   165  ASP165      0.1436
     44  CG       471.4540   42.3400  -14.2070 C.2   165  ASP165      0.3671
     45  OD1      471.0230   43.3970  -13.7170 O.co2 165  ASP165     -0.2456
     46  OD2      471.0650   41.2240  -13.8130 O.co2 165  ASP165     -0.2456
     47  N        469.8010   49.6350   -5.2070 N.3   178  HIS178     -0.1226
     48  CA       470.0280   48.2660   -5.6330 C.3   178  HIS178      0.1752
     49  C        470.5390   48.1450   -7.0700 C.2   178  HIS178      0.2596
     50  O        470.9700   47.0760   -7.4570 O.2   178  HIS178     -0.2718
     51  CB       468.7450   47.4290   -5.4610 C.3   178  HIS178      0.0759
     52  CG       468.2890   47.3120   -4.0340 C.ar  178  HIS178      0.0818
     53  ND1      468.8300   46.4020   -3.1520 N.ar  178  HIS178     -0.2268
     54  CD2      467.3570   47.9980   -3.3350 C.ar  178  HIS178      0.1154
     55  CE1      468.2540   46.5340   -1.9700 C.ar  178  HIS178      0.1986
     56  NE2      467.3530   47.4950   -2.0540 N.ar  178  HIS178     -0.2212
     57  N        470.5010   49.2230   -7.8560 N.am  179  HIS179     -0.1961
     58  CA       470.9920   49.2070   -9.2520 C.3   179  HIS179      0.1787
     59  C        470.2070   48.1920  -10.1180 C.2   179  HIS179      0.2620
     60  O        470.7790   47.3730  -10.8360 O.2   179  HIS179     -0.2715
     61  CB       472.5210   48.9410   -9.2920 C.3   179  HIS179      0.0785
     62  CG       473.3230   49.8250   -8.3620 C.ar  179  HIS179      0.0821
     63  ND1      473.6070   51.1490   -8.6410 N.ar  179  HIS179     -0.2267
     64  CD2      473.9140   49.5620   -7.1700 C.ar  179  HIS179      0.1154
     65  CE1      474.3060   51.6700   -7.6460 C.ar  179  HIS179      0.1986
     66  NE2      474.5200   50.7240   -6.7470 N.ar  179  HIS179     -0.2212
     67  N        468.8830   48.2580  -10.0080 N.am  180  ARG180     -0.1977
     68  CA       467.9610   47.3940  -10.7320 C.3   180  ARG180      0.1597
     69  C        466.9260   48.2500  -11.4520 C.2   180  ARG180      0.2287
     70  O        466.8810   49.4740  -11.2690 O.2   180  ARG180     -0.2864
     71  CB       467.2790   46.4200   -9.7590 C.3   180  ARG180      0.0334
     72  CG       468.2550   45.4630   -9.1000 C.3   180  ARG180      0.0492
     73  CD       467.6610   44.7050   -7.9230 C.3   180  ARG180      0.2205
     74  NE       468.7050   43.9100   -7.2780 N.pl3 180  ARG180     -0.0865
     75  CZ       468.5680   43.2080   -6.1490 C.cat 180  ARG180      0.5346
     76  NH1      467.4170   43.1930   -5.4780 N.pl3 180  ARG180      0.1354
     77  NH2      469.6130   42.5340   -5.6690 N.pl3 180  ARG180      0.1354
     78  N        468.9810   37.3300  -20.8090 N.3   207  ARG207     -0.1245
     79  CA       469.6960   38.1960  -19.8800 C.3   207  ARG207      0.1563
     80  C        471.1200   38.5120  -20.3510 C.2   207  ARG207      0.2260
     81  O        471.7920   37.6690  -20.9250 O.2   207  ARG207     -0.2867
     82  CB       469.7230   37.5360  -18.5010 C.3   207  ARG207      0.0307
     83  CG       470.4360   38.3240  -17.4090 C.3   207  ARG207      0.0489
     84  CD       470.1440   37.6480  -16.0730 C.3   207  ARG207      0.2205
     85  NE       470.4940   38.4440  -14.8960 N.pl3 207  ARG207     -0.0865
     86  CZ       470.2750   38.0400  -13.6440 C.cat 207  ARG207      0.5346
     87  NH1      470.6000   38.8140  -12.6170 N.pl3 207  ARG207      0.1354
     88  NH2      469.7380   36.8540  -13.4150 N.pl3 207  ARG207      0.1354
     89  N        474.7680   40.9140  -19.1010 N.3   209  TRP209     -0.1241
     90  CA       475.5320   41.5940  -18.0580 C.3   209  TRP209      0.1605
     91  C        476.5750   42.4910  -18.7330 C.2   209  TRP209      0.2264
     92  O        477.0870   42.1630  -19.8240 O.2   209  TRP209     -0.2867
     93  CB       476.2510   40.6010  -17.1620 C.3   209  TRP209      0.0550
     94  CG       475.3840   39.7100  -16.3570 C.ar  209  TRP209      0.0003
     95  CD1      475.0170   39.8930  -15.0570 C.ar  209  TRP209      0.0946
     96  CD2      474.7970   38.4640  -16.7710 C.ar  209  TRP209      0.0152
     97  NE1      474.2400   38.8310  -14.6300 N.ar  209  TRP209     -0.2442
     98  CE2      474.0880   37.9460  -15.6630 C.ar  209  TRP209      0.0810
     99  CE3      474.8050   37.7420  -17.9600 C.ar  209  TRP209      0.0012
    100  CZ2      473.3900   36.7530  -15.7120 C.ar  209  TRP209      0.0191
    101  CZ3      474.1190   36.5250  -18.0060 C.ar  209  TRP209      0.0001
    102  CH2      473.4200   36.0460  -16.8840 C.ar  209  TRP209      0.0015
@<TRIPOS>BOND
     1    81    80    2
     2    78    79    1
     3    80    79    1
     4    79    82    1
     5    92    91    2
     6    89    90    1
     7    91    90    1
     8    82    83    1
     9    90    93    1
    10   101    99   ar
    11   101   102   ar
    12    99    96   ar
    13    83    84    1
    14    93    94    1
    15   102   100   ar
    16    37    36    1
    17    96    94   ar
    18    96    98   ar
    19    41    42    2
    20    41    40    1
    21    94    95   ar
    22    38    36    1
    23    36    35    1
    24    84    85    1
    25    40    43    1
    26    40    39    1
    27   100    98   ar
    28    98    97   ar
    29    34    33    2
    30    43    44    1
    31    39    33   am
    32    95    97   ar
    33    33    32    1
    34    85    86    2
    35    35    32    1
    36    31    32    1
    37    31    22   am
    38    44    46   ar
    39    44    45   ar
    40    86    88    1
    41    86    87    1
    42    21    22    1
    43    21    20    1
    44    21    24    1
    45    22    23    2
    46    25    24    1
    47    25    26    1
    48    19    18    1
    49    27    26    1
    50    27    28    2
    51     5     6    1
    52     5     2    1
    53     6     7    1
    54    69    70    2
    55    69    68    1
    56    30    28    1
    57    18    16   ar
    58    18    17   ar
    59    28    29    1
    60    60    59    2
    61     2     1    1
    62     2     3    1
    63    68    67    1
    64    68    71    1
    65    16    14   ar
    66     7     1    1
    67    17    15   ar
    68     4     3    2
    69    59    67   am
    70    59    58    1
    71     3     8   am
    72    71    72    1
    73    14    13   ar
    74    15    13   ar
    75    61    58    1
    76    61    62    1
    77    58    57    1
    78    72    73    1
    79    13    12    1
    80     8     9    1
    81    63    62   ar
    82    63    65   ar
    83    62    64   ar
    84    73    74    1
    85    57    49   am
    86     9    12    1
    87     9    10    1
    88    65    66   ar
    89    50    49    2
    90    74    75    2
    91    64    66   ar
    92    49    48    1
    93    10    11    2
    94    75    77    1
    95    75    76    1
    96    48    51    1
    97    48    47    1
    98    51    52    1
    99    52    54   ar
   100    52    53   ar
   101    54    56   ar
   102    53    55   ar
   103    56    55   ar
