@<TRIPOS>MOLECULE
tmp/5f7vA00.pdb
 114 111 0 0 0
SMALL
GASTEIGER

@<TRIPOS>ATOM
      1  N         29.9490  -16.1330   73.9250 N.3    40  PHE40      -0.1241
      2  CA        29.6780  -14.9890   73.0420 C.3    40  PHE40       0.1605
      3  C         28.5780  -15.2840   72.0360 C.2    40  PHE40       0.2264
      4  O         27.7720  -14.4100   71.7560 O.2    40  PHE40      -0.2867
      5  CB        30.9720  -14.5610   72.3050 C.3    40  PHE40       0.0534
      6  CG        30.8090  -13.3610   71.4250 C.ar   40  PHE40      -0.0203
      7  CD1       30.7240  -12.0850   71.9600 C.ar   40  PHE40      -0.0042
      8  CD2       30.7670  -13.5050   70.0450 C.ar   40  PHE40      -0.0042
      9  CE1       30.6070  -11.0000   71.1190 C.ar   40  PHE40      -0.0003
     10  CE2       30.6460  -12.4120   69.2000 C.ar   40  PHE40      -0.0003
     11  CZ        30.5580  -11.1570   69.7510 C.ar   40  PHE40      -0.0000
     12  N         29.2690   -3.0040   68.9120 N.3    65  GLU65      -0.1245
     13  CA        28.2830   -3.0880   67.8410 C.3    65  GLU65       0.1567
     14  C         26.8900   -3.4330   68.3440 C.2    65  GLU65       0.2260
     15  O         25.9690   -3.2720   67.5590 O.2    65  GLU65      -0.2867
     16  CB        28.7780   -3.9970   66.7130 C.3    65  GLU65       0.0388
     17  CG        29.1210   -5.4320   67.0860 C.3    65  GLU65       0.1160
     18  CD        30.5400   -5.6790   67.6080 C.2    65  GLU65       0.3649
     19  OE1       31.0860   -4.8540   68.3750 O.co2  65  GLU65      -0.2457
     20  OE2       31.1230   -6.7410   67.2830 O.co2  65  GLU65      -0.2457
     21  N         41.9360   -6.9340   65.3660 N.3   118  VAL118     -0.1245
     22  CA        42.2140   -8.1890   64.6830 C.3   118  VAL118      0.1561
     23  C         43.5220   -8.0570   63.9370 C.2   118  VAL118      0.2260
     24  O         43.9000   -6.9930   63.4810 O.2   118  VAL118     -0.2867
     25  CB        41.0460   -8.5100   63.7340 C.3   118  VAL118      0.0252
     26  CG1       41.3760   -9.6170   62.7180 C.3   118  VAL118      0.0019
     27  CG2       39.7880   -8.8660   64.5490 C.3   118  VAL118      0.0019
     28  N         37.0060  -15.0370   58.6880 N.3   164  PRO164     -0.2116
     29  CA        35.5350  -15.1160   58.6830 C.3   164  PRO164      0.1372
     30  C         34.9340  -14.4360   57.4480 C.2   164  PRO164      0.2244
     31  O         35.4160  -13.4340   56.9550 O.2   164  PRO164     -0.2868
     32  CB        35.1500  -14.3830   59.9670 C.3   164  PRO164      0.0268
     33  CG        36.3680  -14.4980   60.8450 C.3   164  PRO164      0.0207
     34  CD        37.5070  -14.3680   59.9100 C.3   164  PRO164      0.0892
     35  N         31.7030  -12.9570   57.2070 N.3   166  THR166     -0.1218
     36  CA        30.6000  -12.5200   58.0390 C.3   166  THR166      0.1862
     37  C         30.4150  -11.0180   57.8570 C.2   166  THR166      0.2287
     38  O         31.3060  -10.3450   57.3480 O.2   166  THR166     -0.2866
     39  CB        30.8840  -12.7860   59.5340 C.3   166  THR166      0.1770
     40  OG1       32.0380  -11.9910   59.8780 O.3   166  THR166     -0.2211
     41  CG2       31.0730  -14.2560   59.8240 C.3   166  THR166      0.0375
     42  N         30.4960   -8.8750   60.2310 N.3   168  ASN168     -0.1225
     43  CA        31.4860   -8.1730   61.0640 C.3   168  ASN168      0.1785
     44  C         32.8270   -8.1090   60.3810 C.2   168  ASN168      0.2597
     45  O         33.4960   -7.0710   60.4210 O.2   168  ASN168     -0.2718
     46  CB        31.6490   -8.8380   62.4280 C.3   168  ASN168      0.1169
     47  CG        31.2640   -7.9430   63.5740 C.2   168  ASN168      0.2627
     48  OD1       30.2810   -7.1850   63.4990 O.2   168  ASN168     -0.2716
     49  ND2       32.0410   -8.0160   64.6450 N.am  168  ASN168     -0.0877
     50  N         33.2050   -9.1810   59.6890 N.am  169  GLU169     -0.1979
     51  CA        34.4870   -9.1380   58.9780 C.3   169  GLU169      0.1602
     52  C         34.3820   -8.2440   57.7480 C.2   169  GLU169      0.2287
     53  O         35.3230   -7.5640   57.3440 O.2   169  GLU169     -0.2864
     54  CB        34.9050  -10.5450   58.5820 C.3   169  GLU169      0.0415
     55  CG        36.3710  -10.6380   58.1810 C.3   169  GLU169      0.1163
     56  CD        37.3420  -10.5550   59.3470 C.2   169  GLU169      0.3649
     57  OE1       36.9370  -10.5590   60.5540 O.co2 169  GLU169     -0.2457
     58  OE2       38.5640  -10.5250   59.0390 O.co2 169  GLU169     -0.2457
     59  N         43.0270  -14.9660   60.5280 N.3   237  HIS237     -0.1226
     60  CA        42.6200  -13.5660   60.7950 C.3   237  HIS237      0.1752
     61  C         41.6620  -13.5710   61.9780 C.2   237  HIS237      0.2597
     62  O         40.5140  -13.9960   61.8650 O.2   237  HIS237     -0.2718
     63  CB        41.9230  -12.9930   59.5490 C.3   237  HIS237      0.0759
     64  CG        42.8480  -12.8680   58.3940 C.ar  237  HIS237      0.0818
     65  ND1       43.3240  -11.6610   57.9630 N.ar  237  HIS237     -0.2268
     66  CD2       43.4070  -13.8000   57.5940 C.ar  237  HIS237      0.1154
     67  CE1       44.1280  -11.8430   56.9350 C.ar  237  HIS237      0.1986
     68  NE2       44.2050  -13.1360   56.6960 N.ar  237  HIS237     -0.2212
     69  N         42.1710  -13.1430   63.1220 N.am  238  THR238     -0.1939
     70  CA        41.3690  -13.2220   64.3410 C.3   238  THR238      0.2028
     71  C         41.8590  -12.2170   65.3470 C.2   238  THR238      0.2642
     72  O         42.8400  -11.4970   65.1370 O.2   238  THR238     -0.2714
     73  CB        41.3490  -14.6630   64.8870 C.3   238  THR238      0.1808
     74  OG1       40.2700  -14.7860   65.8060 O.3   238  THR238     -0.2208
     75  CG2       42.6610  -15.0280   65.5180 C.3   238  THR238      0.0379
     76  N         41.1230  -12.1360   66.4440 N.am  239  GLY239     -0.1954
     77  CA        41.4170  -11.0900   67.4060 C.3   239  GLY239      0.1869
     78  C         42.5050  -11.3840   68.4040 C.2   239  GLY239      0.2309
     79  O         42.8640  -12.5180   68.7130 O.2   239  GLY239     -0.2863
     80  N         42.1230  -11.1910   71.3700 N.3   241  TRP241     -0.1241
     81  CA        41.4740  -11.9560   72.4480 C.3   241  TRP241      0.1605
     82  C         41.7950  -13.4300   72.4150 C.2   241  TRP241      0.2264
     83  O         41.4600  -14.1190   73.3730 O.2   241  TRP241     -0.2867
     84  CB        39.9380  -11.7600   72.4630 C.3   241  TRP241      0.0550
     85  CG        39.2850  -11.9970   71.1560 C.ar  241  TRP241      0.0003
     86  CD1       38.7730  -13.1840   70.6880 C.ar  241  TRP241      0.0946
     87  CD2       39.0190  -11.0190   70.1510 C.ar  241  TRP241      0.0152
     88  NE1       38.2570  -13.0110   69.4450 N.ar  241  TRP241     -0.2442
     89  CE2       38.3680  -11.6890   69.0900 C.ar  241  TRP241      0.0810
     90  CE3       39.2400   -9.6330   70.0330 C.ar  241  TRP241      0.0012
     91  CZ2       37.9700  -11.0220   67.9180 C.ar  241  TRP241      0.0191
     92  CZ3       38.8240   -8.9900   68.8770 C.ar  241  TRP241      0.0001
     93  CH2       38.2130   -9.6650   67.8320 C.ar  241  TRP241      0.0015
     94  N         40.0960   -3.6600   62.1590 N.3   267  HIS267     -0.1241
     95  CA        39.0030   -3.6400   63.1460 C.3   267  HIS267      0.1621
     96  C         39.3950   -2.8500   64.3800 C.2   267  HIS267      0.2264
     97  O         40.5360   -2.7910   64.7940 O.2   267  HIS267     -0.2867
     98  CB        38.6690   -5.0610   63.5690 C.3   267  HIS267      0.0745
     99  CG        37.6590   -5.7130   62.6860 C.ar  267  HIS267      0.0817
    100  ND1       37.8120   -6.9880   62.1950 N.ar  267  HIS267     -0.2268
    101  CD2       36.4440   -5.2910   62.2680 C.ar  267  HIS267      0.1154
    102  CE1       36.7340   -7.3180   61.5080 C.ar  267  HIS267      0.1986
    103  NE2       35.8920   -6.3120   61.5490 N.ar  267  HIS267     -0.2212
    104  N         37.3950   -2.7950   68.1720 N.3   269  PHE269     -0.1241
    105  CA        36.2950   -3.2890   69.0090 C.3   269  PHE269      0.1605
    106  C         36.4870   -2.7560   70.4120 C.2   269  PHE269      0.2264
    107  O         37.5810   -2.4580   70.8360 O.2   269  PHE269     -0.2867
    108  CB        36.2800   -4.8200   68.9680 C.3   269  PHE269      0.0534
    109  CG        35.9060   -5.3850   67.6330 C.ar  269  PHE269     -0.0203
    110  CD1       34.6740   -5.0720   67.0650 C.ar  269  PHE269     -0.0042
    111  CD2       36.7370   -6.2620   66.9880 C.ar  269  PHE269     -0.0042
    112  CE1       34.3350   -5.5840   65.8350 C.ar  269  PHE269     -0.0003
    113  CE2       36.3950   -6.7700   65.7480 C.ar  269  PHE269     -0.0003
    114  CZ        35.1890   -6.4440   65.1770 C.ar  269  PHE269     -0.0000
@<TRIPOS>BOND
     1    68    67   ar
     2    68    66   ar
     3    67    65   ar
     4    31    30    2
     5    35    36    1
     6    53    52    2
     7    38    37    2
     8    30    29    1
     9    66    64   ar
    10    52    51    1
    11    37    36    1
    12    65    64   ar
    13    36    39    1
    14    55    54    1
    15    55    56    1
    16    64    63    1
    17    54    51    1
    18    29    28    1
    19    29    32    1
    20    28    34    1
    21    51    50    1
    22    58    56   ar
    23    56    57   ar
    24    39    41    1
    25    39    40    1
    26    63    60    1
    27    50    44   am
    28    34    33    1
    29    32    33    1
    30    42    43    1
    31    44    45    2
    32    44    43    1
    33    59    60    1
    34    60    61    1
    35    43    46    1
    36   102   103   ar
    37   102   100   ar
    38   103   101   ar
    39    62    61    2
    40    61    69   am
    41    94    95    1
    42   100    99   ar
    43   101    99   ar
    44    46    47    1
    45    99    98    1
    46    26    25    1
    47    69    70    1
    48    95    98    1
    49    95    96    1
    50    24    23    2
    51    48    47    2
    52    47    49   am
    53    25    27    1
    54    25    22    1
    55    23    22    1
    56    70    73    1
    57    70    71    1
    58    96    97    2
    59    22    21    1
    60    73    75    1
    61    73    74    1
    62    72    71    2
    63   114   113   ar
    64   114   112   ar
    65    71    76   am
    66   113   111   ar
    67   112   110   ar
    68    76    77    1
    69    16    17    1
    70    16    13    1
    71   111   109   ar
    72   110   109   ar
    73    17    18    1
    74    20    18   ar
    75    77    78    1
    76    15    14    2
    77    18    19   ar
    78   109   108    1
    79    93    91   ar
    80    93    92   ar
    81    13    14    1
    82    13    12    1
    83    91    89   ar
    84   104   105    1
    85    78    79    2
    86    92    90   ar
    87   108   105    1
    88   105   106    1
    89    89    88   ar
    90    89    87   ar
    91    10    11   ar
    92    10     8   ar
    93    88    86   ar
    94    11     9   ar
    95    90    87   ar
    96     8     6   ar
    97    87    85   ar
    98   106   107    2
    99    86    85   ar
   100     9     7   ar
   101    85    84    1
   102    80    81    1
   103     6     7   ar
   104     6     5    1
   105     4     3    2
   106     3     2    1
   107     5     2    1
   108    82    81    1
   109    82    83    2
   110    81    84    1
   111     2     1    1
