@<TRIPOS>MOLECULE
tmp/5f7vA03.pdb
 106 102 0 0 0
SMALL
GASTEIGER

@<TRIPOS>ATOM
      1  N         30.6100  -11.8670   78.8170 N.3    10  PHE10      -0.1227
      2  CA        31.0900  -12.8130   77.8220 C.3    10  PHE10       0.1736
      3  C         32.5740  -12.8080   77.5730 C.2    10  PHE10       0.2596
      4  O         33.0810  -13.8140   77.1340 O.2    10  PHE10      -0.2718
      5  CB        30.4020  -12.6170   76.4540 C.3    10  PHE10       0.0547
      6  CG        30.6550  -11.2610   75.8620 C.ar   10  PHE10      -0.0202
      7  CD1       31.8050  -10.9920   75.1150 C.ar   10  PHE10      -0.0042
      8  CD2       29.7690  -10.2400   76.0970 C.ar   10  PHE10      -0.0042
      9  CE1       32.0320   -9.6930   74.6650 C.ar   10  PHE10      -0.0003
     10  CE2       29.9720   -8.9760   75.6170 C.ar   10  PHE10      -0.0003
     11  CZ        31.1170   -8.6870   74.9030 C.ar   10  PHE10      -0.0000
     12  N         33.2840  -11.6980   77.8030 N.am   11  SER11      -0.1952
     13  CA        34.6190  -11.6190   77.2090 C.3    11  SER11       0.1924
     14  C         35.7210  -12.3610   77.9550 C.2    11  SER11       0.2314
     15  O         36.7340  -12.6580   77.3510 O.2    11  SER11      -0.2863
     16  CB        35.0100  -10.1560   77.0000 C.3    11  SER11       0.2116
     17  OG        35.2860   -9.4660   78.2080 O.3    11  SER11      -0.2180
     18  N         29.9490  -16.1330   73.9250 N.3    40  PHE40      -0.1241
     19  CA        29.6780  -14.9890   73.0420 C.3    40  PHE40       0.1605
     20  C         28.5780  -15.2840   72.0360 C.2    40  PHE40       0.2264
     21  O         27.7720  -14.4100   71.7560 O.2    40  PHE40      -0.2867
     22  CB        30.9720  -14.5610   72.3050 C.3    40  PHE40       0.0534
     23  CG        30.8090  -13.3610   71.4250 C.ar   40  PHE40      -0.0203
     24  CD1       30.7240  -12.0850   71.9600 C.ar   40  PHE40      -0.0042
     25  CD2       30.7670  -13.5050   70.0450 C.ar   40  PHE40      -0.0042
     26  CE1       30.6070  -11.0000   71.1190 C.ar   40  PHE40      -0.0003
     27  CE2       30.6460  -12.4120   69.2000 C.ar   40  PHE40      -0.0003
     28  CZ        30.5580  -11.1570   69.7510 C.ar   40  PHE40      -0.0000
     29  N         29.1720   -5.0630   73.7650 N.3    63  ASN63      -0.1240
     30  CA        30.1730   -4.7210   72.7610 C.3    63  ASN63       0.1653
     31  C         29.7640   -3.4530   72.0210 C.2    63  ASN63       0.2266
     32  O         28.6330   -2.9790   72.0900 O.2    63  ASN63      -0.2867
     33  CB        30.5020   -5.9270   71.8540 C.3    63  ASN63       0.1155
     34  CG        29.3450   -6.4100   71.0310 C.2    63  ASN63       0.2627
     35  OD1       28.2530   -5.9190   71.1400 O.2    63  ASN63      -0.2716
     36  ND2       29.6160   -7.4160   70.2450 N.am   63  ASN63      -0.0877
     37  N         29.2690   -3.0040   68.9120 N.3    65  GLU65      -0.1245
     38  CA        28.2830   -3.0880   67.8410 C.3    65  GLU65       0.1567
     39  C         26.8900   -3.4330   68.3440 C.2    65  GLU65       0.2260
     40  O         25.9690   -3.2720   67.5590 O.2    65  GLU65      -0.2867
     41  CB        28.7780   -3.9970   66.7130 C.3    65  GLU65       0.0388
     42  CG        29.1210   -5.4320   67.0860 C.3    65  GLU65       0.1160
     43  CD        30.5400   -5.6790   67.6080 C.2    65  GLU65       0.3649
     44  OE1       31.0860   -4.8540   68.3750 O.co2  65  GLU65      -0.2457
     45  OE2       31.1230   -6.7410   67.2830 O.co2  65  GLU65      -0.2457
     46  N         40.0630   -3.7380   71.5390 N.3   116  SER116     -0.1217
     47  CA        40.7880   -4.8120   70.8310 C.3   116  SER116      0.1889
     48  C         40.7220   -4.6310   69.3250 C.2   116  SER116      0.2288
     49  O         40.0040   -3.7780   68.8070 O.2   116  SER116     -0.2866
     50  CB        40.1510   -6.1650   71.2000 C.3   116  SER116      0.2089
     51  OG        38.8240   -6.2730   70.7280 O.3   116  SER116     -0.2183
     52  N         30.4960   -8.8750   60.2310 N.3   168  ASN168     -0.1240
     53  CA        31.4860   -8.1730   61.0640 C.3   168  ASN168      0.1653
     54  C         32.8270   -8.1090   60.3810 C.2   168  ASN168      0.2266
     55  O         33.4960   -7.0710   60.4210 O.2   168  ASN168     -0.2867
     56  CB        31.6490   -8.8380   62.4280 C.3   168  ASN168      0.1155
     57  CG        31.2640   -7.9430   63.5740 C.2   168  ASN168      0.2627
     58  OD1       30.2810   -7.1850   63.4990 O.2   168  ASN168     -0.2716
     59  ND2       32.0410   -8.0160   64.6450 N.am  168  ASN168     -0.0877
     60  N         42.1230  -11.1910   71.3700 N.3   241  TRP241     -0.1241
     61  CA        41.4740  -11.9560   72.4480 C.3   241  TRP241      0.1605
     62  C         41.7950  -13.4300   72.4150 C.2   241  TRP241      0.2264
     63  O         41.4600  -14.1190   73.3730 O.2   241  TRP241     -0.2867
     64  CB        39.9380  -11.7600   72.4630 C.3   241  TRP241      0.0550
     65  CG        39.2850  -11.9970   71.1560 C.ar  241  TRP241      0.0003
     66  CD1       38.7730  -13.1840   70.6880 C.ar  241  TRP241      0.0946
     67  CD2       39.0190  -11.0190   70.1510 C.ar  241  TRP241      0.0152
     68  NE1       38.2570  -13.0110   69.4450 N.ar  241  TRP241     -0.2442
     69  CE2       38.3680  -11.6890   69.0900 C.ar  241  TRP241      0.0810
     70  CE3       39.2400   -9.6330   70.0330 C.ar  241  TRP241      0.0012
     71  CZ2       37.9700  -11.0220   67.9180 C.ar  241  TRP241      0.0191
     72  CZ3       38.8240   -8.9900   68.8770 C.ar  241  TRP241      0.0001
     73  CH2       38.2130   -9.6650   67.8320 C.ar  241  TRP241      0.0015
     74  N         37.3950   -2.7950   68.1720 N.3   269  PHE269     -0.1227
     75  CA        36.2950   -3.2890   69.0090 C.3   269  PHE269      0.1736
     76  C         36.4870   -2.7560   70.4120 C.2   269  PHE269      0.2595
     77  O         37.5810   -2.4580   70.8360 O.2   269  PHE269     -0.2718
     78  CB        36.2800   -4.8200   68.9680 C.3   269  PHE269      0.0547
     79  CG        35.9060   -5.3850   67.6330 C.ar  269  PHE269     -0.0202
     80  CD1       34.6740   -5.0720   67.0650 C.ar  269  PHE269     -0.0042
     81  CD2       36.7370   -6.2620   66.9880 C.ar  269  PHE269     -0.0042
     82  CE1       34.3350   -5.5840   65.8350 C.ar  269  PHE269     -0.0003
     83  CE2       36.3950   -6.7700   65.7480 C.ar  269  PHE269     -0.0003
     84  CZ        35.1890   -6.4440   65.1770 C.ar  269  PHE269     -0.0000
     85  N         35.3990   -2.6850   71.1520 N.am  270  ALA270     -0.1966
     86  CA        35.4520   -2.2860   72.5500 C.3   270  ALA270      0.1728
     87  C         34.3360   -2.8960   73.3290 C.2   270  ALA270      0.2616
     88  O         33.2310   -3.0240   72.8090 O.2   270  ALA270     -0.2715
     89  CB        35.3850   -0.7780   72.7150 C.3   270  ALA270      0.0334
     90  N         34.6250   -3.3060   74.5550 N.am  271  ASN271     -0.1972
     91  CA        33.5830   -3.7570   75.4760 C.3   271  ASN271      0.1688
     92  C         33.3760   -2.7510   76.5760 C.2   271  ASN271      0.2292
     93  O         34.3410   -2.1180   77.0060 O.2   271  ASN271     -0.2864
     94  CB        34.0030   -5.0920   76.0670 C.3   271  ASN271      0.1181
     95  CG        34.1210   -6.1540   74.9760 C.2   271  ASN271      0.2629
     96  OD1       33.2410   -6.2720   74.1460 O.2   271  ASN271     -0.2716
     97  ND2       35.1980   -6.9440   75.0010 N.am  271  ASN271     -0.0877
     98  N         42.8230   -8.7070   75.9620 N.3   308  GLU308     -0.1245
     99  CA        42.5720   -7.5020   75.1490 C.3   308  GLU308      0.1567
    100  C         43.4670   -6.3900   75.6920 C.2   308  GLU308      0.2260
    101  O         44.5680   -6.6820   76.1470 O.2   308  GLU308     -0.2867
    102  CB        41.0990   -7.1410   75.0690 C.3   308  GLU308      0.0388
    103  CG        40.2810   -8.3010   74.4890 C.3   308  GLU308      0.1160
    104  CD        38.8590   -7.9590   74.1370 C.2   308  GLU308      0.3649
    105  OE1       38.3980   -6.8020   74.4160 O.co2 308  GLU308     -0.2457
    106  OE2       38.2110   -8.8890   73.6070 O.co2 308  GLU308     -0.2457
@<TRIPOS>BOND
     1    52    53    1
     2    54    55    2
     3    54    53    1
     4    53    56    1
     5    56    57    1
     6    58    57    2
     7    57    59   am
     8    84    83   ar
     9    84    82   ar
    10    83    81   ar
    11    82    80   ar
    12    41    42    1
    13    41    38    1
    14    81    79   ar
    15    80    79   ar
    16    42    43    1
    17    45    43   ar
    18    40    39    2
    19    43    44   ar
    20    79    78    1
    21    73    71   ar
    22    73    72   ar
    23    38    39    1
    24    38    37    1
    25    71    69   ar
    26    74    75    1
    27    49    48    2
    28    72    70   ar
    29    78    75    1
    30    75    76    1
    31    69    68   ar
    32    69    67   ar
    33    27    28   ar
    34    27    25   ar
    35    48    47    1
    36    68    66   ar
    37    28    26   ar
    38    70    67   ar
    39    25    23   ar
    40    67    65   ar
    41    36    34   am
    42    76    77    2
    43    76    85   am
    44    66    65   ar
    45    51    50    1
    46    47    50    1
    47    47    46    1
    48    34    35    2
    49    34    33    1
    50    26    24   ar
    51    85    86    1
    52    65    64    1
    53    60    61    1
    54    23    24   ar
    55    23    22    1
    56    21    20    2
    57    33    30    1
    58    31    32    2
    59    31    30    1
    60    20    19    1
    61    22    19    1
    62    62    61    1
    63    62    63    2
    64    61    64    1
    65    86    89    1
    66    86    87    1
    67    30    29    1
    68    88    87    2
    69    19    18    1
    70    87    90   am
    71   106   104   ar
    72   104   105   ar
    73   104   103    1
    74    96    95    2
    75   103   102    1
    76    90    91    1
    77     9    11   ar
    78     9     7   ar
    79    11    10   ar
    80    95    97   am
    81    95    94    1
    82   102    99    1
    83     7     6   ar
    84    99   100    1
    85    99    98    1
    86    91    94    1
    87    91    92    1
    88    10     8   ar
    89   100   101    2
    90     6     8   ar
    91     6     5    1
    92     5     2    1
    93    92    93    2
    94    16    13    1
    95    16    17    1
    96     4     3    2
    97    13    12    1
    98    13    14    1
    99    15    14    2
   100     3    12   am
   101     3     2    1
   102     2     1    1
