@<TRIPOS>MOLECULE
tmp/5f7vA01.pdb
 85 86 0 0 0
SMALL
GASTEIGER

@<TRIPOS>ATOM
      1  N         29.9490  -16.1330   73.9250 N.3    40  PHE40      -0.1241
      2  CA        29.6780  -14.9890   73.0420 C.3    40  PHE40       0.1605
      3  C         28.5780  -15.2840   72.0360 C.2    40  PHE40       0.2264
      4  O         27.7720  -14.4100   71.7560 O.2    40  PHE40      -0.2867
      5  CB        30.9720  -14.5610   72.3050 C.3    40  PHE40       0.0534
      6  CG        30.8090  -13.3610   71.4250 C.ar   40  PHE40      -0.0203
      7  CD1       30.7240  -12.0850   71.9600 C.ar   40  PHE40      -0.0042
      8  CD2       30.7670  -13.5050   70.0450 C.ar   40  PHE40      -0.0042
      9  CE1       30.6070  -11.0000   71.1190 C.ar   40  PHE40      -0.0003
     10  CE2       30.6460  -12.4120   69.2000 C.ar   40  PHE40      -0.0003
     11  CZ        30.5580  -11.1570   69.7510 C.ar   40  PHE40      -0.0000
     12  N         37.0060  -15.0370   58.6880 N.3   164  PRO164     -0.2116
     13  CA        35.5350  -15.1160   58.6830 C.3   164  PRO164      0.1372
     14  C         34.9340  -14.4360   57.4480 C.2   164  PRO164      0.2244
     15  O         35.4160  -13.4340   56.9550 O.2   164  PRO164     -0.2868
     16  CB        35.1500  -14.3830   59.9670 C.3   164  PRO164      0.0268
     17  CG        36.3680  -14.4980   60.8450 C.3   164  PRO164      0.0207
     18  CD        37.5070  -14.3680   59.9100 C.3   164  PRO164      0.0892
     19  N         35.8860  -24.7200   65.4060 N.3   223  LEU223     -0.1231
     20  CA        36.1380  -23.3160   65.1200 C.3   223  LEU223      0.1678
     21  C         37.4990  -23.2000   64.4850 C.2   223  LEU223      0.2434
     22  O         38.3750  -24.0410   64.6820 O.2   223  LEU223     -0.2733
     23  CB        36.0600  -22.5010   66.4100 C.3   223  LEU223      0.0284
     24  CG        34.6570  -22.4210   67.0260 C.3   223  LEU223      0.0019
     25  CD1       34.7640  -21.7610   68.4040 C.3   223  LEU223      0.0001
     26  CD2       33.6320  -21.7160   66.1500 C.3   223  LEU223      0.0001
     27  N         37.7300  -22.1370   63.6900 N.am  224  PRO224     -0.2718
     28  CA        39.0230  -22.0040   63.0520 C.3   224  PRO224      0.1535
     29  C         40.2180  -22.0060   63.9930 C.2   224  PRO224      0.2598
     30  O         41.2750  -22.5570   63.6840 O.2   224  PRO224     -0.2715
     31  CB        38.9110  -20.7120   62.2410 C.3   224  PRO224      0.0310
     32  CG        37.4940  -20.3620   62.2270 C.3   224  PRO224      0.0237
     33  CD        36.7590  -21.0960   63.2970 C.3   224  PRO224      0.0939
     34  N         40.0760  -21.3900   65.1640 N.am  225  GLU225     -0.1978
     35  CA        41.1850  -21.3860   66.1160 C.3   225  GLU225      0.1602
     36  C         41.5450  -22.8140   66.5760 C.2   225  GLU225      0.2287
     37  O         42.6940  -23.0850   66.9120 O.2   225  GLU225     -0.2864
     38  CB        40.8640  -20.4860   67.3080 C.3   225  GLU225      0.0415
     39  CG        39.5960  -20.8050   68.0240 C.3   225  GLU225      0.1163
     40  CD        38.3830  -20.0220   67.4950 C.2   225  GLU225      0.3649
     41  OE1       38.2540  -19.5720   66.3100 O.co2 225  GLU225     -0.2457
     42  OE2       37.4930  -19.8180   68.3740 O.co2 225  GLU225     -0.2457
     43  N         43.0270  -14.9660   60.5280 N.3   237  HIS237     -0.1226
     44  CA        42.6200  -13.5660   60.7950 C.3   237  HIS237      0.1752
     45  C         41.6620  -13.5710   61.9780 C.2   237  HIS237      0.2597
     46  O         40.5140  -13.9960   61.8650 O.2   237  HIS237     -0.2718
     47  CB        41.9230  -12.9930   59.5490 C.3   237  HIS237      0.0759
     48  CG        42.8480  -12.8680   58.3940 C.ar  237  HIS237      0.0818
     49  ND1       43.3240  -11.6610   57.9630 N.ar  237  HIS237     -0.2268
     50  CD2       43.4070  -13.8000   57.5940 C.ar  237  HIS237      0.1154
     51  CE1       44.1280  -11.8430   56.9350 C.ar  237  HIS237      0.1986
     52  NE2       44.2050  -13.1360   56.6960 N.ar  237  HIS237     -0.2212
     53  N         42.1710  -13.1430   63.1220 N.am  238  THR238     -0.1939
     54  CA        41.3690  -13.2220   64.3410 C.3   238  THR238      0.2028
     55  C         41.8590  -12.2170   65.3470 C.2   238  THR238      0.2642
     56  O         42.8400  -11.4970   65.1370 O.2   238  THR238     -0.2714
     57  CB        41.3490  -14.6630   64.8870 C.3   238  THR238      0.1808
     58  OG1       40.2700  -14.7860   65.8060 O.3   238  THR238     -0.2208
     59  CG2       42.6610  -15.0280   65.5180 C.3   238  THR238      0.0379
     60  N         41.1230  -12.1360   66.4440 N.am  239  GLY239     -0.1954
     61  CA        41.4170  -11.0900   67.4060 C.3   239  GLY239      0.1869
     62  C         42.5050  -11.3840   68.4040 C.2   239  GLY239      0.2309
     63  O         42.8640  -12.5180   68.7130 O.2   239  GLY239     -0.2863
     64  N         42.1230  -11.1910   71.3700 N.3   241  TRP241     -0.1227
     65  CA        41.4740  -11.9560   72.4480 C.3   241  TRP241      0.1737
     66  C         41.7950  -13.4300   72.4150 C.2   241  TRP241      0.2595
     67  O         41.4600  -14.1190   73.3730 O.2   241  TRP241     -0.2718
     68  CB        39.9380  -11.7600   72.4630 C.3   241  TRP241      0.0564
     69  CG        39.2850  -11.9970   71.1560 C.ar  241  TRP241      0.0003
     70  CD1       38.7730  -13.1840   70.6880 C.ar  241  TRP241      0.0946
     71  CD2       39.0190  -11.0190   70.1510 C.ar  241  TRP241      0.0152
     72  NE1       38.2570  -13.0110   69.4450 N.ar  241  TRP241     -0.2442
     73  CE2       38.3680  -11.6890   69.0900 C.ar  241  TRP241      0.0810
     74  CE3       39.2400   -9.6330   70.0330 C.ar  241  TRP241      0.0012
     75  CZ2       37.9700  -11.0220   67.9180 C.ar  241  TRP241      0.0191
     76  CZ3       38.8240   -8.9900   68.8770 C.ar  241  TRP241      0.0001
     77  CH2       38.2130   -9.6650   67.8320 C.ar  241  TRP241      0.0015
     78  N         42.4530  -13.9140   71.3590 N.am  242  LEU242     -0.1980
     79  CA        42.9010  -15.3100   71.3290 C.3   242  LEU242      0.1596
     80  C         44.3830  -15.4680   71.6630 C.2   242  LEU242      0.2287
     81  O         44.8720  -16.5920   71.6430 O.2   242  LEU242     -0.2864
     82  CB        42.5890  -15.9660   69.9830 C.3   242  LEU242      0.0297
     83  CG        41.0760  -16.1350   69.7800 C.3   242  LEU242      0.0022
     84  CD1       40.8300  -16.8660   68.4520 C.3   242  LEU242      0.0001
     85  CD2       40.3320  -16.8170   70.9230 C.3   242  LEU242      0.0001
@<TRIPOS>BOND
     1    52    51   ar
     2    52    50   ar
     3    51    49   ar
     4    15    14    2
     5    14    13    1
     6    50    48   ar
     7    49    48   ar
     8    48    47    1
     9    13    12    1
    10    13    16    1
    11    12    18    1
    12    47    44    1
    13    18    17    1
    14    16    17    1
    15    43    44    1
    16    44    45    1
    17    46    45    2
    18    45    53   am
    19    32    31    1
    20    32    33    1
    21    31    28    1
    22    28    27    1
    23    28    29    1
    24    53    54    1
    25    33    27    1
    26    30    29    2
    27    27    21   am
    28    29    34   am
    29    54    57    1
    30    54    55    1
    31    21    22    2
    32    21    20    1
    33    57    59    1
    34    57    58    1
    35    20    19    1
    36    20    23    1
    37    56    55    2
    38    34    35    1
    39    55    60   am
    40    35    36    1
    41    35    38    1
    42    26    24    1
    43    41    40   ar
    44    23    24    1
    45    60    61    1
    46    36    37    2
    47    24    25    1
    48    38    39    1
    49    61    62    1
    50    40    39    1
    51    40    42   ar
    52    77    75   ar
    53    77    76   ar
    54    75    73   ar
    55    62    63    2
    56    84    83    1
    57    76    74   ar
    58    73    72   ar
    59    73    71   ar
    60    10    11   ar
    61    10     8   ar
    62    72    70   ar
    63    11     9   ar
    64    83    82    1
    65    83    85    1
    66    82    79    1
    67    74    71   ar
    68     8     6   ar
    69    71    69   ar
    70    70    69   ar
    71     9     7   ar
    72    69    68    1
    73    79    78    1
    74    79    80    1
    75    78    66   am
    76    64    65    1
    77     6     7   ar
    78     6     5    1
    79    81    80    2
    80     4     3    2
    81     3     2    1
    82     5     2    1
    83    66    65    1
    84    66    67    2
    85    65    68    1
    86     2     1    1
