@<TRIPOS>MOLECULE
tmp/5f84A01.pdb
 107 104 0 0 0
SMALL
GASTEIGER

@<TRIPOS>ATOM
      1  N         39.8170   17.2680    4.1290 N.3    84  ARG84      -0.1245
      2  CA        40.0200   18.7160    4.2070 C.3    84  ARG84       0.1563
      3  C         38.7230   19.4700    3.9030 C.2    84  ARG84       0.2260
      4  O         38.4380   20.4890    4.5250 O.2    84  ARG84      -0.2867
      5  CB        41.1430   19.1550    3.2750 C.3    84  ARG84       0.0307
      6  CG        42.4240   18.3820    3.4960 C.3    84  ARG84       0.0489
      7  CD        43.5790   18.8840    2.6480 C.3    84  ARG84       0.2205
      8  NE        44.7520   18.0590    2.8670 N.pl3  84  ARG84      -0.0865
      9  CZ        45.9070   18.2100    2.2380 C.cat  84  ARG84       0.5346
     10  NH1       46.0650   19.1790    1.3490 N.pl3  84  ARG84       0.1354
     11  NH2       46.9130   17.3940    2.5150 N.pl3  84  ARG84       0.1354
     12  N         48.0460   21.8500   -0.5880 N.3   110  ASP110     -0.1239
     13  CA        49.0100   22.4550    0.3230 C.3   110  ASP110      0.1674
     14  C         49.5370   23.7910   -0.1870 C.2   110  ASP110      0.2266
     15  O         49.6630   24.7520    0.5740 O.2   110  ASP110     -0.2867
     16  CB        50.2050   21.5260    0.5510 C.3   110  ASP110      0.1410
     17  CG        49.7930   20.1380    0.9800 C.2   110  ASP110      0.3668
     18  OD1       48.7700   19.9950    1.6700 O.co2 110  ASP110     -0.2456
     19  OD2       50.4800   19.1760    0.5890 O.co2 110  ASP110     -0.2456
     20  N         45.0280   28.0210    2.1720 N.3   129  PHE129     -0.1241
     21  CA        45.3620   28.1290    3.5950 C.3   129  PHE129      0.1605
     22  C         46.6840   28.8710    3.8360 C.2   129  PHE129      0.2264
     23  O         46.8160   29.5690    4.8420 O.2   129  PHE129     -0.2867
     24  CB        45.3670   26.7600    4.2700 C.3   129  PHE129      0.0534
     25  CG        46.7250   26.1870    4.4860 C.ar  129  PHE129     -0.0203
     26  CD1       47.3970   26.3950    5.6880 C.ar  129  PHE129     -0.0042
     27  CD2       47.3360   25.4320    3.5040 C.ar  129  PHE129     -0.0042
     28  CE1       48.6510   25.8510    5.9000 C.ar  129  PHE129     -0.0003
     29  CE2       48.5960   24.8930    3.7130 C.ar  129  PHE129     -0.0003
     30  CZ        49.2490   25.1000    4.9130 C.ar  129  PHE129     -0.0000
     31  N         41.5690   23.7540    7.2660 N.3   143  TRP143     -0.1241
     32  CA        40.6980   22.6360    7.6350 C.3   143  TRP143      0.1605
     33  C         41.0570   21.9900    8.9430 C.2   143  TRP143      0.2264
     34  O         40.1700   21.5420    9.6850 O.2   143  TRP143     -0.2867
     35  CB        40.7440   21.5590    6.5600 C.3   143  TRP143      0.0550
     36  CG        42.1430   21.2090    6.1480 C.ar  143  TRP143      0.0003
     37  CD1       42.9540   20.2330    6.6840 C.ar  143  TRP143      0.0946
     38  CD2       42.9500   21.8540    5.1050 C.ar  143  TRP143      0.0152
     39  NE1       44.1780   20.2240    6.0710 N.ar  143  TRP143     -0.2442
     40  CE2       44.2350   21.1790    5.1090 C.ar  143  TRP143      0.0810
     41  CE3       42.7390   22.8870    4.2070 C.ar  143  TRP143      0.0012
     42  CZ2       45.2460   21.5250    4.2350 C.ar  143  TRP143      0.0191
     43  CZ3       43.7630   23.2220    3.3260 C.ar  143  TRP143      0.0001
     44  CH2       44.9850   22.5520    3.3410 C.ar  143  TRP143      0.0015
     45  N         47.4930   16.4200    8.4650 N.3   150  PRO150     -0.2116
     46  CA        48.2730   15.2230    8.1730 C.3   150  PRO150      0.1372
     47  C         47.9640   14.0500    9.1120 C.2   150  PRO150      0.2244
     48  O         47.6680   14.2570   10.2940 O.2   150  PRO150     -0.2868
     49  CB        49.7180   15.7040    8.3420 C.3   150  PRO150      0.0268
     50  CG        49.6500   17.1510    7.9890 C.3   150  PRO150      0.0207
     51  CD        48.3340   17.6280    8.5470 C.3   150  PRO150      0.0892
     52  N         60.1240   17.6040    4.7590 N.3   192  THR192     -0.1218
     53  CA        59.2320   18.2130    3.7910 C.3   192  THR192      0.1862
     54  C         59.8160   19.4970    3.2480 C.2   192  THR192      0.2287
     55  O         59.2380   20.1150    2.3540 O.2   192  THR192     -0.2866
     56  CB        57.8830   18.5340    4.4430 C.3   192  THR192      0.1770
     57  OG1       58.0940   19.3820    5.5810 O.3   192  THR192     -0.2211
     58  CG2       57.1700   17.2390    4.8690 C.3   192  THR192      0.0375
     59  N         65.1320   22.2920    6.9140 N.3   196  ARG196     -0.1245
     60  CA        65.1760   21.5350    8.1490 C.3   196  ARG196      0.1563
     61  C         66.4880   20.8020    8.4050 C.2   196  ARG196      0.2260
     62  O         66.7120   20.3580    9.5220 O.2   196  ARG196     -0.2867
     63  CB        64.0220   20.5160    8.1710 C.3   196  ARG196      0.0307
     64  CG        62.6520   21.1710    8.1690 C.3   196  ARG196      0.0489
     65  CD        61.4810   20.2090    8.0300 C.3   196  ARG196      0.2205
     66  NE        60.2400   20.9930    8.0450 N.pl3 196  ARG196     -0.0865
     67  CZ        59.0360   20.5550    8.4120 C.cat 196  ARG196      0.5346
     68  NH1       58.8330   19.2930    8.7680 N.pl3 196  ARG196      0.1354
     69  NH2       58.0150   21.3990    8.3870 N.pl3 196  ARG196      0.1354
     70  N         57.0980   23.6500    5.6140 N.3   251  GLY251     -0.1210
     71  CA        57.1720   22.3760    4.9350 C.3   251  GLY251      0.1956
     72  C         57.0610   22.6500    3.4460 C.2   251  GLY251      0.2612
     73  O         57.8920   23.3530    2.8640 O.2   251  GLY251     -0.2717
     74  N         56.0140   22.1170    2.8340 N.am  252  VAL252     -0.1965
     75  CA        55.6950   22.4660    1.4570 C.3   252  VAL252      0.1727
     76  C         55.2130   23.9100    1.4600 C.2   252  VAL252      0.2616
     77  O         55.6140   24.6980    0.6320 O.2   252  VAL252     -0.2715
     78  CB        54.5930   21.5620    0.8600 C.3   252  VAL252      0.0290
     79  CG1       54.2690   22.0200   -0.5590 C.3   252  VAL252      0.0023
     80  CG2       55.0130   20.0890    0.8890 C.3   252  VAL252      0.0023
     81  N         54.3260   24.2280    2.3920 N.am  253  ALA253     -0.1963
     82  CA        53.9420   25.6090    2.6760 C.3   253  ALA253      0.1728
     83  C         54.1390   25.7970    4.1920 C.2   253  ALA253      0.2616
     84  O         55.0750   25.2440    4.7560 O.2   253  ALA253     -0.2715
     85  CB        52.5030   25.8640    2.2310 C.3   253  ALA253      0.0334
     86  N         53.2670   26.5420    4.8660 N.am  254  ALA254     -0.1963
     87  CA        53.3580   26.6850    6.3260 C.3   254  ALA254      0.1728
     88  C         53.0190   25.3460    6.9780 C.2   254  ALA254      0.2617
     89  O         52.3110   24.5360    6.3770 O.2   254  ALA254     -0.2715
     90  CB        52.4250   27.7860    6.8210 C.3   254  ALA254      0.0334
     91  N         53.5320   25.1280    8.1900 N.am  255  SER255     -0.1936
     92  CA        53.2750   23.9160    8.9730 C.3   255  SER255      0.2055
     93  C         52.2950   24.1550   10.1030 C.2   255  SER255      0.2643
     94  O         52.3780   25.1650   10.8180 O.2   255  SER255     -0.2714
     95  CB        54.5760   23.3880    9.5810 C.3   255  SER255      0.2130
     96  OG        54.3670   22.1680   10.2890 O.3   255  SER255     -0.2179
     97  N         51.3910   23.1970   10.2930 N.am  256  PHE256     -0.1973
     98  CA        50.4360   23.2260   11.3980 C.3   256  PHE256      0.1639
     99  C         51.1180   22.9290   12.7220 C.2   256  PHE256      0.2290
    100  O         50.4850   23.0130   13.7780 O.2   256  PHE256     -0.2864
    101  CB        49.3310   22.2000   11.2120 C.3   256  PHE256      0.0560
    102  CG        48.5630   22.3370    9.9460 C.ar  256  PHE256     -0.0200
    103  CD1       48.2200   23.5750    9.4380 C.ar  256  PHE256     -0.0042
    104  CD2       48.1410   21.2000    9.2810 C.ar  256  PHE256     -0.0042
    105  CE1       47.5000   23.6790    8.2650 C.ar  256  PHE256     -0.0003
    106  CE2       47.4210   21.2910    8.1110 C.ar  256  PHE256     -0.0003
    107  CZ        47.0960   22.5320    7.6040 C.ar  256  PHE256     -0.0000
@<TRIPOS>BOND
     1    12    13    1
     2    79    78    1
     3    14    13    1
     4    14    15    2
     5    13    16    1
     6    16    17    1
     7    19    17   ar
     8    77    76    2
     9    78    80    1
    10    78    75    1
    11    17    18   ar
    12    10     9    1
    13    75    76    1
    14    75    74    1
    15    76    81   am
    16    20    21    1
    17    85    82    1
    18     9    11    1
    19     9     8    2
    20    55    54    2
    21    81    82    1
    22     7     8    1
    23     7     6    1
    24    82    83    1
    25    74    72   am
    26    73    72    2
    27    54    53    1
    28     5     6    1
    29     5     2    1
    30    43    44   ar
    31    43    41   ar
    32    44    42   ar
    33    72    71    1
    34    27    29   ar
    35    27    25   ar
    36    21    22    1
    37    21    24    1
    38    29    30   ar
    39    53    56    1
    40    53    52    1
    41    22    23    2
    42     3     2    1
    43     3     4    2
    44     1     2    1
    45    83    84    2
    46    83    86   am
    47    41    38   ar
    48    42    40   ar
    49    24    25    1
    50    56    58    1
    51    56    57    1
    52    25    26   ar
    53    86    87    1
    54    30    28   ar
    55    71    70    1
    56    38    40   ar
    57    38    36   ar
    58    40    39   ar
    59    26    28   ar
    60    39    37   ar
    61    36    35    1
    62    36    37   ar
    63    87    90    1
    64    87    88    1
    65    89    88    2
    66    35    32    1
    67    59    60    1
    68    88    91   am
    69    31    32    1
    70   107   106   ar
    71   107   105   ar
    72    32    33    1
    73    50    49    1
    74    50    51    1
    75    65    66    1
    76    65    64    1
    77    66    67    2
    78   106   104   ar
    79    60    63    1
    80    60    61    1
    81    64    63    1
    82    46    49    1
    83    46    45    1
    84    46    47    1
    85    91    92    1
    86   105   103   ar
    87    69    67    1
    88    61    62    2
    89    67    68    1
    90    45    51    1
    91    33    34    2
    92    92    95    1
    93    92    93    1
    94    47    48    2
    95   104   102   ar
    96   103   102   ar
    97    95    96    1
    98   102   101    1
    99    93    97   am
   100    93    94    2
   101    97    98    1
   102   101    98    1
   103    98    99    1
   104    99   100    2
