@<TRIPOS>MOLECULE
tmp/5f84A00.pdb
 173 165 0 0 0
SMALL
GASTEIGER

@<TRIPOS>ATOM
      1  N         47.4930   16.4200    8.4650 N.3   150  PRO150     -0.2116
      2  CA        48.2730   15.2230    8.1730 C.3   150  PRO150      0.1372
      3  C         47.9640   14.0500    9.1120 C.2   150  PRO150      0.2244
      4  O         47.6680   14.2570   10.2940 O.2   150  PRO150     -0.2868
      5  CB        49.7180   15.7040    8.3420 C.3   150  PRO150      0.0268
      6  CG        49.6500   17.1510    7.9890 C.3   150  PRO150      0.0207
      7  CD        48.3340   17.6280    8.5470 C.3   150  PRO150      0.0892
      8  N         49.0410   10.5920   11.0280 N.3   152  THR152     -0.1218
      9  CA        50.2400   10.0220   11.6280 C.3   152  THR152      0.1862
     10  C         49.8320    8.8140   12.4520 C.2   152  THR152      0.2287
     11  O         48.6450    8.5090   12.5460 O.2   152  THR152     -0.2866
     12  CB        50.9820   11.0680   12.4910 C.3   152  THR152      0.1770
     13  OG1       50.1800   11.4420   13.6140 O.3   152  THR152     -0.2211
     14  CG2       51.2960   12.2970   11.6930 C.3   152  THR152      0.0375
     15  N         47.8600   10.1050   15.2280 N.3   155  HIS155     -0.1241
     16  CA        46.6130   10.7260   14.7740 C.3   155  HIS155      0.1621
     17  C         46.1670   10.2010   13.4380 C.2   155  HIS155      0.2264
     18  O         46.1420   10.9430   12.4480 O.2   155  HIS155     -0.2867
     19  CB        46.8000   12.2170   14.6770 C.3   155  HIS155      0.0745
     20  CG        47.2430   12.8540   15.9630 C.ar  155  HIS155      0.0817
     21  ND1       46.3700   13.3160   16.8730 N.ar  155  HIS155     -0.2268
     22  CD2       48.5110   13.1060   16.4650 C.ar  155  HIS155      0.1154
     23  CE1       47.0400   13.8340   17.9010 C.ar  155  HIS155      0.1986
     24  NE2       48.3520   13.7070   17.6520 N.ar  155  HIS155     -0.2212
     25  N         45.4070   15.0960   11.9340 N.3   159  ILE159     -0.1245
     26  CA        45.4920   16.0620   13.0260 C.3   159  ILE159      0.1561
     27  C         44.3280   17.0390   12.8640 C.2   159  ILE159      0.2260
     28  O         44.1080   17.6020   11.7810 O.2   159  ILE159     -0.2867
     29  CB        46.8490   16.8190   13.0290 C.3   159  ILE159      0.0252
     30  CG1       47.9920   15.8460   13.3620 C.3   159  ILE159      0.0019
     31  CG2       46.8470   17.9680   14.0300 C.3   159  ILE159      0.0019
     32  CD1       49.3750   16.3610   13.0360 C.3   159  ILE159      0.0001
     33  N         60.9620   17.1810   15.9420 N.3   188  ARG188     -0.1231
     34  CA        60.6870   15.8460   15.4330 C.3   188  ARG188      0.1694
     35  C         59.6940   16.0000   14.3030 C.2   188  ARG188      0.2593
     36  O         58.5950   16.4870   14.4990 O.2   188  ARG188     -0.2718
     37  CB        60.1340   14.9570   16.5480 C.3   188  ARG188      0.0321
     38  CG        60.0300   13.4750   16.2060 C.3   188  ARG188      0.0489
     39  CD        61.3790   12.8070   15.9600 C.3   188  ARG188      0.2205
     40  NE        62.1970   12.8550   17.1620 N.pl3 188  ARG188     -0.0865
     41  CZ        62.2980   11.8920   18.0750 C.cat 188  ARG188      0.5346
     42  NH1       61.6650   10.7320   17.9450 N.pl3 188  ARG188      0.1354
     43  NH2       63.0670   12.0980   19.1330 N.pl3 188  ARG188      0.1354
     44  N         60.1030   15.6140   13.1090 N.am  189  GLY189     -0.1942
     45  CA        59.3190   15.8880   11.9170 C.3   189  GLY189      0.2014
     46  C         59.9620   15.2710   10.7000 C.2   189  GLY189      0.2639
     47  O         61.0570   14.7410   10.7860 O.2   189  GLY189     -0.2714
     48  N         59.2770   15.3470    9.5670 N.am  190  SER190     -0.1949
     49  CA        59.7520   14.7390    8.3350 C.3   190  SER190      0.1924
     50  C         60.4090   15.7940    7.4620 C.2   190  SER190      0.2314
     51  O         60.3370   16.9730    7.7590 O.2   190  SER190     -0.2863
     52  CB        58.6020   14.0390    7.5940 C.3   190  SER190      0.2116
     53  OG        57.7170   14.9710    7.0150 O.3   190  SER190     -0.2180
     54  N         60.1240   17.6040    4.7590 N.3   192  THR192     -0.1218
     55  CA        59.2320   18.2130    3.7910 C.3   192  THR192      0.1862
     56  C         59.8160   19.4970    3.2480 C.2   192  THR192      0.2287
     57  O         59.2380   20.1150    2.3540 O.2   192  THR192     -0.2866
     58  CB        57.8830   18.5340    4.4430 C.3   192  THR192      0.1770
     59  OG1       58.0940   19.3820    5.5810 O.3   192  THR192     -0.2211
     60  CG2       57.1700   17.2390    4.8690 C.3   192  THR192      0.0375
     61  N         65.1320   22.2920    6.9140 N.3   196  ARG196     -0.1245
     62  CA        65.1760   21.5350    8.1490 C.3   196  ARG196      0.1563
     63  C         66.4880   20.8020    8.4050 C.2   196  ARG196      0.2260
     64  O         66.7120   20.3580    9.5220 O.2   196  ARG196     -0.2867
     65  CB        64.0220   20.5160    8.1710 C.3   196  ARG196      0.0307
     66  CG        62.6520   21.1710    8.1690 C.3   196  ARG196      0.0489
     67  CD        61.4810   20.2090    8.0300 C.3   196  ARG196      0.2205
     68  NE        60.2400   20.9930    8.0450 N.pl3 196  ARG196     -0.0865
     69  CZ        59.0360   20.5550    8.4120 C.cat 196  ARG196      0.5346
     70  NH1       58.8330   19.2930    8.7680 N.pl3 196  ARG196      0.1354
     71  NH2       58.0150   21.3990    8.3870 N.pl3 196  ARG196      0.1354
     72  N         61.5060   11.9580   10.9430 N.3   215  THR215     -0.1218
     73  CA        60.5620   10.8770   10.7310 C.3   215  THR215      0.1862
     74  C         60.4170   10.5920    9.2450 C.2   215  THR215      0.2287
     75  O         60.8890   11.3410    8.4000 O.2   215  THR215     -0.2866
     76  CB        59.1770   11.2470   11.2660 C.3   215  THR215      0.1770
     77  OG1       58.8000   12.5020   10.6930 O.3   215  THR215     -0.2211
     78  CG2       59.1870   11.3350   12.7900 C.3   215  THR215      0.0375
     79  N         57.7320   10.1780    6.1590 N.3   217  ASN217     -0.1240
     80  CA        56.3550   10.5000    5.7270 C.3   217  ASN217      0.1653
     81  C         55.8710    9.6190    4.5700 C.2   217  ASN217      0.2266
     82  O         56.6350    8.8220    4.0260 O.2   217  ASN217     -0.2867
     83  CB        56.1600   11.9930    5.4330 C.3   217  ASN217      0.1155
     84  CG        56.9850   12.4960    4.2700 C.2   217  ASN217      0.2627
     85  OD1       56.9570   11.9410    3.1700 O.2   217  ASN217     -0.2716
     86  ND2       57.6930   13.5870    4.4990 N.am  217  ASN217     -0.0877
     87  N         57.4820    8.9750   15.8420 N.3   234  GLU234     -0.1231
     88  CA        56.6800   10.1610   16.0950 C.3   234  GLU234      0.1699
     89  C         56.7240   10.4890   17.5960 C.2   234  GLU234      0.2592
     90  O         56.7500    9.5920   18.4300 O.2   234  GLU234     -0.2718
     91  CB        55.2380    9.9180   15.6220 C.3   234  GLU234      0.0402
     92  CG        54.2210   10.9580   16.0780 C.3   234  GLU234      0.1161
     93  CD        52.8690   10.8250   15.3820 C.2   234  GLU234      0.3649
     94  OE1       52.5690    9.6950   14.9090 O.co2 234  GLU234     -0.2457
     95  OE2       52.1210   11.8510   15.3100 O.co2 234  GLU234     -0.2457
     96  N         56.7510   11.7750   17.9300 N.am  235  VAL235     -0.1966
     97  CA        56.6310   12.2220   19.3170 C.3   235  VAL235      0.1727
     98  C         55.4030   13.1030   19.4200 C.2   235  VAL235      0.2617
     99  O         55.2240   14.0160   18.6130 O.2   235  VAL235     -0.2715
    100  CB        57.8610   13.0170   19.7880 C.3   235  VAL235      0.0290
    101  CG1       57.6430   13.5720   21.1850 C.3   235  VAL235      0.0023
    102  CG2       59.0890   12.1360   19.7690 C.3   235  VAL235      0.0023
    103  N         54.5650   12.8260   20.4210 N.am  236  SER236     -0.1936
    104  CA        53.2710   13.4790   20.5570 C.3   236  SER236      0.2055
    105  C         53.4310   14.9650   20.7790 C.2   236  SER236      0.2643
    106  O         54.4980   15.4160   21.1960 O.2   236  SER236     -0.2714
    107  CB        52.4930   12.8720   21.7210 C.3   236  SER236      0.2130
    108  OG        53.0000   13.2990   22.9690 O.3   236  SER236     -0.2179
    109  N         52.3690   15.7280   20.5120 N.am  237  PHE237     -0.1973
    110  CA        52.3960   17.1600   20.7640 C.3   237  PHE237      0.1639
    111  C         52.6510   17.4270   22.2530 C.2   237  PHE237      0.2290
    112  O         53.4540   18.2790   22.6080 O.2   237  PHE237     -0.2864
    113  CB        51.0940   17.8300   20.3310 C.3   237  PHE237      0.0560
    114  CG        50.9570   18.0150   18.8400 C.ar  237  PHE237     -0.0200
    115  CD1       51.7320   18.9530   18.1690 C.ar  237  PHE237     -0.0042
    116  CD2       50.0360   17.2680   18.1110 C.ar  237  PHE237     -0.0042
    117  CE1       51.5980   19.1400   16.8040 C.ar  237  PHE237     -0.0003
    118  CE2       49.9030   17.4490   16.7420 C.ar  237  PHE237     -0.0003
    119  CZ        50.6840   18.3890   16.0890 C.ar  237  PHE237     -0.0000
    120  N         56.2900   17.3190   23.3540 N.3   240  HIS240     -0.1241
    121  CA        57.1130   18.4540   22.9350 C.3   240  HIS240      0.1621
    122  C         57.3150   19.3640   24.1050 C.2   240  HIS240      0.2264
    123  O         58.3350   20.0490   24.2090 O.2   240  HIS240     -0.2867
    124  CB        56.4520   19.2530   21.8070 C.3   240  HIS240      0.0745
    125  CG        56.6090   18.6440   20.4350 C.ar  240  HIS240      0.0817
    126  ND1       56.1950   17.4040   20.1410 N.ar  240  HIS240     -0.2268
    127  CD2       57.1360   19.1670   19.2650 C.ar  240  HIS240      0.1154
    128  CE1       56.4760   17.1330   18.8550 C.ar  240  HIS240      0.1986
    129  NE2       57.0420   18.2190   18.3190 N.ar  240  HIS240     -0.2212
    130  N         57.0980   23.6500    5.6140 N.3   251  GLY251     -0.1210
    131  CA        57.1720   22.3760    4.9350 C.3   251  GLY251      0.1956
    132  C         57.0610   22.6500    3.4460 C.2   251  GLY251      0.2611
    133  O         57.8920   23.3530    2.8640 O.2   251  GLY251     -0.2717
    134  N         56.0140   22.1170    2.8340 N.am  252  VAL252     -0.1979
    135  CA        55.6950   22.4660    1.4570 C.3   252  VAL252      0.1595
    136  C         55.2130   23.9100    1.4600 C.2   252  VAL252      0.2287
    137  O         55.6140   24.6980    0.6320 O.2   252  VAL252     -0.2864
    138  CB        54.5930   21.5620    0.8600 C.3   252  VAL252      0.0276
    139  CG1       54.2690   22.0200   -0.5590 C.3   252  VAL252      0.0022
    140  CG2       55.0130   20.0890    0.8890 C.3   252  VAL252      0.0022
    141  N         53.2670   26.5420    4.8660 N.3   254  ALA254     -0.1231
    142  CA        53.3580   26.6850    6.3260 C.3   254  ALA254      0.1694
    143  C         53.0190   25.3460    6.9780 C.2   254  ALA254      0.2593
    144  O         52.3110   24.5360    6.3770 O.2   254  ALA254     -0.2718
    145  CB        52.4250   27.7860    6.8210 C.3   254  ALA254      0.0304
    146  N         53.5320   25.1280    8.1900 N.am  255  SER255     -0.1938
    147  CA        53.2750   23.9160    8.9730 C.3   255  SER255      0.2055
    148  C         52.2950   24.1550   10.1030 C.2   255  SER255      0.2643
    149  O         52.3780   25.1650   10.8180 O.2   255  SER255     -0.2714
    150  CB        54.5760   23.3880    9.5810 C.3   255  SER255      0.2130
    151  OG        54.3670   22.1680   10.2890 O.3   255  SER255     -0.2179
    152  N         51.3910   23.1970   10.2930 N.am  256  PHE256     -0.1959
    153  CA        50.4360   23.2260   11.3980 C.3   256  PHE256      0.1771
    154  C         51.1180   22.9290   12.7220 C.2   256  PHE256      0.2619
    155  O         50.4850   23.0130   13.7780 O.2   256  PHE256     -0.2715
    156  CB        49.3310   22.2000   11.2120 C.3   256  PHE256      0.0574
    157  CG        48.5630   22.3370    9.9460 C.ar  256  PHE256     -0.0200
    158  CD1       48.2200   23.5750    9.4380 C.ar  256  PHE256     -0.0042
    159  CD2       48.1410   21.2000    9.2810 C.ar  256  PHE256     -0.0042
    160  CE1       47.5000   23.6790    8.2650 C.ar  256  PHE256     -0.0003
    161  CE2       47.4210   21.2910    8.1110 C.ar  256  PHE256     -0.0003
    162  CZ        47.0960   22.5320    7.6040 C.ar  256  PHE256     -0.0000
    163  N         52.3980   22.5680   12.6720 N.am  257  ARG257     -0.1977
    164  CA        53.1820   22.3640   13.8840 C.3   257  ARG257      0.1597
    165  C         53.1730   23.6090   14.7750 C.2   257  ARG257      0.2287
    166  O         52.9660   23.4990   15.9800 O.2   257  ARG257     -0.2864
    167  CB        54.6270   21.9840   13.5360 C.3   257  ARG257      0.0334
    168  CG        55.5280   21.7740   14.7540 C.3   257  ARG257      0.0492
    169  CD        56.9700   21.4570   14.3930 C.3   257  ARG257      0.2205
    170  NE        57.1000   20.0470   14.0560 N.pl3 257  ARG257     -0.0865
    171  CZ        56.9720   19.5260   12.8330 C.cat 257  ARG257      0.5346
    172  NH1       56.7420   20.2890   11.7660 N.pl3 257  ARG257      0.1354
    173  NH2       57.1060   18.2190   12.6710 N.pl3 257  ARG257      0.1354
@<TRIPOS>BOND
     1   139   138    1
     2   137   136    2
     3   138   140    1
     4   138   135    1
     5   135   136    1
     6   135   134    1
     7    57    56    2
     8   134   132   am
     9   133   132    2
    10    85    84    2
    11    56    55    1
    12   132   131    1
    13    55    58    1
    14    55    54    1
    15    82    81    2
    16    84    86   am
    17    84    83    1
    18    58    60    1
    19    58    59    1
    20    81    80    1
    21   141   142    1
    22   131   130    1
    23    83    80    1
    24    80    79    1
    25   142   145    1
    26   142   143    1
    27   144   143    2
    28    61    62    1
    29   143   146   am
    30    53    52    1
    31    50    51    2
    32    50    49    1
    33    52    49    1
    34   162   161   ar
    35   162   160   ar
    36     6     5    1
    37     6     7    1
    38    67    68    1
    39    67    66    1
    40    68    69    2
    41   161   159   ar
    42    62    65    1
    43    62    63    1
    44    66    65    1
    45     2     5    1
    46     2     1    1
    47     2     3    1
    48   146   147    1
    49   160   158   ar
    50    49    48    1
    51    71    69    1
    52    75    74    2
    53    63    64    2
    54    69    70    1
    55     1     7    1
    56   147   150    1
    57   147   148    1
    58     3     4    2
    59    74    73    1
    60   159   157   ar
    61   158   157   ar
    62    48    46   am
    63   150   151    1
    64   157   156    1
    65   148   152   am
    66   148   149    2
    67   152   153    1
    68    77    76    1
    69    46    47    2
    70    46    45    1
    71    73    72    1
    72    73    76    1
    73     8     9    1
    74   156   153    1
    75    76    78    1
    76   153   154    1
    77     9    10    1
    78     9    12    1
    79    14    12    1
    80   172   171    1
    81    28    27    2
    82    45    44    1
    83    25    26    1
    84    18    17    2
    85    10    11    2
    86    12    13    1
    87   173   171    1
    88   163   154   am
    89   163   164    1
    90   154   155    2
    91   171   170    2
    92    27    26    1
    93    26    29    1
    94    29    30    1
    95    29    31    1
    96    32    30    1
    97    44    35   am
    98    17    16    1
    99   167   164    1
   100   167   168    1
   101   164   165    1
   102   170   169    1
   103    35    36    2
   104    35    34    1
   105   169   168    1
   106    19    16    1
   107    19    20    1
   108    16    15    1
   109   165   166    2
   110    94    93   ar
   111    95    93   ar
   112    93    92    1
   113    34    33    1
   114    34    37    1
   115    91    92    1
   116    91    88    1
   117    87    88    1
   118    39    38    1
   119    39    40    1
   120    20    22   ar
   121    20    21   ar
   122   119   118   ar
   123   119   117   ar
   124    88    89    1
   125    38    37    1
   126    22    24   ar
   127   118   116   ar
   128   117   115   ar
   129    21    23   ar
   130    40    41    2
   131    89    96   am
   132    89    90    2
   133    24    23   ar
   134    96    97    1
   135    42    41    1
   136    41    43    1
   137   116   114   ar
   138   115   114   ar
   139   129   128   ar
   140   129   127   ar
   141    99    98    2
   142   114   113    1
   143   128   126   ar
   144   127   125   ar
   145    97    98    1
   146    97   100    1
   147    98   103   am
   148   102   100    1
   149   100   101    1
   150   126   125   ar
   151   113   110    1
   152   103   104    1
   153   125   124    1
   154   109   110    1
   155   109   105   am
   156   104   105    1
   157   104   107    1
   158   110   111    1
   159   105   106    2
   160   107   108    1
   161   124   121    1
   162   111   112    2
   163   121   120    1
   164   121   122    1
   165   122   123    2
