@<TRIPOS>MOLECULE
tmp/5f8bA00.pdb
 140 135 0 0 0
SMALL
GASTEIGER

@<TRIPOS>ATOM
      1  N         55.1350   13.8870   12.9680 N.3     9  PHE9       -0.1241
      2  CA        56.2440   14.8010   13.2090 C.3     9  PHE9        0.1605
      3  C         55.7120   16.2200   13.1730 C.2     9  PHE9        0.2264
      4  O         54.6030   16.4620   12.6970 O.2     9  PHE9       -0.2867
      5  CB        57.3630   14.6960   12.1720 C.3     9  PHE9        0.0534
      6  CG        58.0390   13.3800   12.1240 C.ar    9  PHE9       -0.0203
      7  CD1       58.0880   12.5600   13.2410 C.ar    9  PHE9       -0.0042
      8  CD2       58.6280   12.9500   10.9350 C.ar    9  PHE9       -0.0042
      9  CE1       58.7220   11.3290   13.1810 C.ar    9  PHE9       -0.0003
     10  CE2       59.2470   11.7230   10.8630 C.ar    9  PHE9       -0.0003
     11  CZ        59.2980   10.9050   11.9900 C.ar    9  PHE9       -0.0000
     12  N         54.3100   16.6000    7.0700 N.3    13  GLN13      -0.1231
     13  CA        54.9950   15.3470    6.9430 C.3    13  GLN13       0.1698
     14  C         54.3960   14.6520    5.7170 C.2    13  GLN13       0.2592
     15  O         53.1900   14.7050    5.4900 O.2    13  GLN13      -0.2718
     16  CB        54.8280   14.5520    8.2330 C.3    13  GLN13       0.0381
     17  CG        55.9790   13.6460    8.5630 C.3    13  GLN13       0.0905
     18  CD        55.9420   12.3060    7.8050 C.2    13  GLN13       0.2608
     19  OE1       54.8620   11.7320    7.5480 O.2    13  GLN13      -0.2717
     20  NE2       57.1330   11.8160    7.4220 N.am   13  GLN13      -0.0878
     21  N         55.2270   14.0340    4.8900 N.am   14  CYS14      -0.1956
     22  CA        54.7290   13.6030    3.5870 C.3    14  CYS14       0.1843
     23  C         53.7320   12.4350    3.6760 C.2    14  CYS14       0.2625
     24  O         52.9330   12.2690    2.7640 O.2    14  CYS14      -0.2714
     25  CB        55.8890   13.2280    2.6690 C.3    14  CYS14       0.0997
     26  SG        56.8760   11.8520    3.2430 S.3    14  CYS14      -0.0797
     27  N         53.7310   11.6650    4.7700 N.am   15  ARG15      -0.1977
     28  CA        52.8150   10.5170    4.9030 C.3    15  ARG15       0.1597
     29  C         51.6280   10.8340    5.8170 C.2    15  ARG15       0.2287
     30  O         50.8040    9.9390    6.1440 O.2    15  ARG15      -0.2864
     31  CB        53.5540    9.2990    5.4440 C.3    15  ARG15       0.0334
     32  CG        54.3540    8.5420    4.4200 C.3    15  ARG15       0.0492
     33  CD        54.9620    7.3310    5.0310 C.3    15  ARG15       0.2205
     34  NE        55.3860    6.4250    3.9820 N.pl3  15  ARG15      -0.0865
     35  CZ        56.6430    6.1250    3.6720 C.cat  15  ARG15       0.5346
     36  NH1       57.6500    6.6460    4.3260 N.pl3  15  ARG15       0.1354
     37  NH2       56.8800    5.2960    2.6630 N.pl3  15  ARG15       0.1354
     38  N         56.8780    8.3090   19.4320 N.3    37  ARG37      -0.1245
     39  CA        57.4860    7.1690   20.1290 C.3    37  ARG37       0.1563
     40  C         57.3810    7.2870   21.6490 C.2    37  ARG37       0.2260
     41  O         58.1680    6.6930   22.3840 O.2    37  ARG37      -0.2867
     42  CB        58.9560    6.9970   19.7100 C.3    37  ARG37       0.0307
     43  CG        59.1470    6.8170   18.2030 C.3    37  ARG37       0.0489
     44  CD        60.4830    6.1840   17.8480 C.3    37  ARG37       0.2205
     45  NE        60.5460    5.7750   16.4400 N.pl3  37  ARG37      -0.0865
     46  CZ        61.5370    5.0630   15.9010 C.cat  37  ARG37       0.5346
     47  NH1       62.5590    4.6660   16.6420 N.pl3  37  ARG37       0.1354
     48  NH2       61.5060    4.7420   14.6140 N.pl3  37  ARG37       0.1354
     49  N         57.3140   -0.4780   16.2260 N.3    47  LEU47      -0.1231
     50  CA        58.5020   -0.0520   15.5150 C.3    47  LEU47       0.1693
     51  C         58.6770    1.4650   15.5140 C.2    47  LEU47       0.2593
     52  O         59.6660    1.9760   14.9550 O.2    47  LEU47      -0.2718
     53  CB        58.4480   -0.5490   14.0620 C.3    47  LEU47       0.0284
     54  CG        58.3720   -2.0610   13.8530 C.3    47  LEU47       0.0019
     55  CD1       58.2520   -2.4410   12.3860 C.3    47  LEU47       0.0001
     56  CD2       59.5710   -2.7260   14.4880 C.3    47  LEU47       0.0001
     57  N         57.6980    2.1720   16.0900 N.am   48  GLY48      -0.1942
     58  CA        57.7520    3.6140   16.2590 C.3    48  GLY48       0.2014
     59  C         57.5240    4.4350   15.0010 C.2    48  GLY48       0.2639
     60  O         58.1690    5.4690   14.7980 O.2    48  GLY48      -0.2714
     61  N         56.5780    4.0170   14.1710 N.am   49  LYS49      -0.1963
     62  CA        56.4680    4.6000   12.8490 C.3    49  LYS49       0.1728
     63  C         55.3350    5.5760   12.7740 C.2    49  LYS49       0.2616
     64  O         54.2720    5.4040   13.3520 O.2    49  LYS49      -0.2715
     65  CB        56.3300    3.5080   11.7690 C.3    49  LYS49       0.0311
     66  CG        57.5980    2.6370   11.6550 C.3    49  LYS49       0.0038
     67  CD        57.7880    2.0060   10.2950 C.3    49  LYS49       0.0206
     68  CE        59.1680    1.4530   10.1420 C.3    49  LYS49       0.1093
     69  NZ        59.6440    1.7270    8.7990 N.3    49  LYS49      -0.1314
     70  N         55.6220    6.6350   12.0470 N.am   50  VAL50      -0.1964
     71  CA        54.7020    7.7190   11.8100 C.3    50  VAL50       0.1712
     72  C         54.1770    7.6550   10.3770 C.2    50  VAL50       0.2458
     73  O         54.9310    7.5030    9.4360 O.2    50  VAL50      -0.2730
     74  CB        55.4180    9.0520   12.0740 C.3    50  VAL50       0.0289
     75  CG1       55.0160   10.1330   11.0540 C.3    50  VAL50       0.0023
     76  CG2       55.1580    9.4720   13.4940 C.3    50  VAL50       0.0023
     77  N         52.8820    7.8020   10.1830 N.am   51  PRO51      -0.2727
     78  CA        51.8110    8.0360   11.1420 C.3    51  PRO51       0.1402
     79  C         51.3460    6.7770   11.8720 C.2    51  PRO51       0.2269
     80  O         51.4770    5.6620   11.3420 O.2    51  PRO51      -0.2865
     81  CB        50.6970    8.5920   10.2640 C.3    51  PRO51       0.0296
     82  CG        50.9360    7.9800    8.9430 C.3    51  PRO51       0.0237
     83  CD        52.4080    7.8680    8.7870 C.3    51  PRO51       0.0939
     84  N         48.2930    1.7420   12.3700 N.3    62  PHE62      -0.1227
     85  CA        49.3340    2.1930   11.4100 C.3    62  PHE62       0.1736
     86  C         48.7210    1.4790   10.2270 C.2    62  PHE62       0.2595
     87  O         47.8080    0.7380   10.4900 O.2    62  PHE62      -0.2718
     88  CB        50.7150    1.6850   11.8050 C.3    62  PHE62       0.0547
     89  CG        50.7480    0.1850   12.0480 C.ar   62  PHE62      -0.0202
     90  CD1       50.3280   -0.3510   13.2690 C.ar   62  PHE62      -0.0042
     91  CD2       51.1590   -0.6810   11.0500 C.ar   62  PHE62      -0.0042
     92  CE1       50.3190   -1.7420   13.4910 C.ar   62  PHE62      -0.0003
     93  CE2       51.1790   -2.0440   11.2510 C.ar   62  PHE62      -0.0003
     94  CZ        50.7300   -2.5910   12.4810 C.ar   62  PHE62      -0.0000
     95  N         49.0120    1.5580    8.9560 N.am   63  GLU63      -0.1965
     96  CA        49.9040    2.3340    8.1260 C.3    63  GLU63       0.1733
     97  C         49.2190    3.5230    7.4360 C.2    63  GLU63       0.2616
     98  O         47.9970    3.5200    7.3560 O.2    63  GLU63      -0.2715
     99  CB        50.3090    1.4140    7.0150 C.3    63  GLU63       0.0429
    100  CG        50.7690    0.0660    7.4270 C.3    63  GLU63       0.1163
    101  CD        52.2160   -0.0120    7.1390 C.2    63  GLU63       0.3649
    102  OE1       52.5700    0.1470    5.9230 O.co2  63  GLU63      -0.2457
    103  OE2       52.9930   -0.1130    8.1220 O.co2  63  GLU63      -0.2457
    104  N         49.9670    4.4330    6.7960 N.am   64  CYS64      -0.1954
    105  CA        49.3430    5.6720    6.2740 C.3    64  CYS64       0.1843
    106  C         48.1860    5.4310    5.2750 C.2    64  CYS64       0.2625
    107  O         47.1320    6.0570    5.4070 O.2    64  CYS64      -0.2714
    108  CB        50.3970    6.6030    5.6730 C.3    64  CYS64       0.0997
    109  SG        51.2290    6.1270    4.1710 S.3    64  CYS64      -0.0797
    110  N         48.3240    4.5040    4.3350 N.am   65  MET65      -0.1977
    111  CA        47.2020    4.2060    3.4700 C.3    65  MET65       0.1605
    112  C         45.9800    3.8030    4.2860 C.2    65  MET65       0.2287
    113  O         44.8700    4.2630    4.0210 O.2    65  MET65      -0.2864
    114  CB        47.5420    3.0970    2.4690 C.3    65  MET65       0.0413
    115  CG        48.6010    3.4590    1.4310 C.3    65  MET65       0.0598
    116  SD        48.8080    2.1510    0.2170 S.3    65  MET65      -0.1393
    117  CE        47.1210    1.9580   -0.3460 C.3    65  MET65       0.0692
    118  N         53.6670    5.6920   -2.5010 N.3    99  ASN99      -0.1240
    119  CA        54.2330    5.3190   -1.2060 C.3    99  ASN99       0.1653
    120  C         55.3760    4.3200   -1.2600 C.2    99  ASN99       0.2266
    121  O         56.2150    4.3310   -0.3790 O.2    99  ASN99      -0.2867
    122  CB        53.1550    4.7300   -0.3080 C.3    99  ASN99       0.1155
    123  CG        53.5550    4.7230    1.1580 C.2    99  ASN99       0.2627
    124  OD1       54.0710    5.7180    1.6720 O.2    99  ASN99      -0.2716
    125  ND2       53.3400    3.5970    1.8310 N.am   99  ASN99      -0.0877
    126  N         59.7250    5.6920   -0.8370 N.3   104  ILE104     -0.1245
    127  CA        60.7630    4.8200   -0.3420 C.3   104  ILE104      0.1561
    128  C         62.0430    5.0820   -1.1150 C.2   104  ILE104      0.2260
    129  O         63.0860    5.2360   -0.5070 O.2   104  ILE104     -0.2867
    130  CB        60.3380    3.3510   -0.4220 C.3   104  ILE104      0.0252
    131  CG1       59.1830    3.0650    0.5560 C.3   104  ILE104      0.0019
    132  CG2       61.4450    2.4620   -0.0040 C.3   104  ILE104      0.0019
    133  CD1       58.7240    1.6370    0.4880 C.3   104  ILE104      0.0001
    134  N         63.5200    8.4720   -0.1680 N.3   107  THR107     -0.1218
    135  CA        64.0510    8.4730    1.1770 C.3   107  THR107      0.1862
    136  C         65.5140    8.0650    1.1710 C.2   107  THR107      0.2287
    137  O         66.3220    8.6540    1.8850 O.2   107  THR107     -0.2866
    138  CB        63.2400    7.5400    2.0920 C.3   107  THR107      0.1770
    139  OG1       61.9410    8.1130    2.3010 O.3   107  THR107     -0.2211
    140  CG2       63.9000    7.3440    3.4600 C.3   107  THR107      0.0375
@<TRIPOS>BOND
     1   118   119    1
     2   120   119    1
     3   120   121    2
     4   119   122    1
     5   128   129    2
     6   128   127    1
     7   126   127    1
     8   130   127    1
     9   130   132    1
    10   130   131    1
    11   117   116    1
    12   122   123    1
    13   134   135    1
    14   116   115    1
    15   133   131    1
    16   123   124    2
    17   123   125   am
    18   136   135    1
    19   136   137    2
    20   135   138    1
    21   115   114    1
    22   138   139    1
    23   138   140    1
    24   114   111    1
    25    37    35    1
    26    25    26    1
    27    25    22    1
    28    24    23    2
    29   111   112    1
    30   111   110    1
    31    22    23    1
    32    22    21    1
    33    35    34    2
    34    35    36    1
    35    23    27   am
    36    34    33    1
    37   113   112    2
    38   109   108    1
    39   110   106   am
    40    32    33    1
    41    32    31    1
    42    27    28    1
    43    21    14   am
    44    28    31    1
    45    28    29    1
    46   106   107    2
    47   106   105    1
    48    15    14    2
    49   108   105    1
    50    14    13    1
    51    29    30    2
    52   102   101   ar
    53   105   104    1
    54   104    97   am
    55    13    12    1
    56    13    16    1
    57    99   100    1
    58    99    96    1
    59   101   100    1
    60   101   103   ar
    61    98    97    2
    62    20    18   am
    63    97    96    1
    64    19    18    2
    65    18    17    1
    66    96    95    1
    67    16    17    1
    68    83    82    1
    69    83    77    1
    70    69    68    1
    71    82    81    1
    72    95    86   am
    73    73    72    2
    74    68    67    1
    75    77    72   am
    76    77    78    1
    77    86    87    2
    78    86    85    1
    79    81    78    1
    80    67    66    1
    81    72    71    1
    82    10     8   ar
    83    10    11   ar
    84     8     6   ar
    85    91    93   ar
    86    91    89   ar
    87    75    74    1
    88    78    79    1
    89    93    94   ar
    90    80    79    2
    91    85    88    1
    92    85    84    1
    93    66    65    1
    94    65    62    1
    95    88    89    1
    96    71    70    1
    97    71    74    1
    98    11     9   ar
    99    70    63   am
   100    89    90   ar
   101    74    76    1
   102     6     5    1
   103     6     7   ar
   104     5     2    1
   105    55    54    1
   106    94    92   ar
   107     4     3    2
   108    63    62    1
   109    63    64    2
   110    62    61    1
   111     1     2    1
   112     3     2    1
   113     9     7   ar
   114    90    92   ar
   115    54    53    1
   116    54    56    1
   117    53    50    1
   118    61    59   am
   119    48    46    1
   120    60    59    2
   121    52    51    2
   122    59    58    1
   123    51    50    1
   124    51    57   am
   125    50    49    1
   126    46    45    2
   127    46    47    1
   128    57    58    1
   129    45    44    1
   130    44    43    1
   131    43    42    1
   132    38    39    1
   133    42    39    1
   134    39    40    1
   135    40    41    2
