@<TRIPOS>MOLECULE
tmp/5f8bA01.pdb
 134 126 0 0 0
SMALL
GASTEIGER

@<TRIPOS>ATOM
      1  N         55.1350   13.8870   12.9680 N.3     9  PHE9       -0.1241
      2  CA        56.2440   14.8010   13.2090 C.3     9  PHE9        0.1605
      3  C         55.7120   16.2200   13.1730 C.2     9  PHE9        0.2264
      4  O         54.6030   16.4620   12.6970 O.2     9  PHE9       -0.2867
      5  CB        57.3630   14.6960   12.1720 C.3     9  PHE9        0.0534
      6  CG        58.0390   13.3800   12.1240 C.ar    9  PHE9       -0.0203
      7  CD1       58.0880   12.5600   13.2410 C.ar    9  PHE9       -0.0042
      8  CD2       58.6280   12.9500   10.9350 C.ar    9  PHE9       -0.0042
      9  CE1       58.7220   11.3290   13.1810 C.ar    9  PHE9       -0.0003
     10  CE2       59.2470   11.7230   10.8630 C.ar    9  PHE9       -0.0003
     11  CZ        59.2980   10.9050   11.9900 C.ar    9  PHE9       -0.0000
     12  N         54.3100   16.6000    7.0700 N.3    13  GLN13      -0.1231
     13  CA        54.9950   15.3470    6.9430 C.3    13  GLN13       0.1698
     14  C         54.3960   14.6520    5.7170 C.2    13  GLN13       0.2592
     15  O         53.1900   14.7050    5.4900 O.2    13  GLN13      -0.2718
     16  CB        54.8280   14.5520    8.2330 C.3    13  GLN13       0.0381
     17  CG        55.9790   13.6460    8.5630 C.3    13  GLN13       0.0905
     18  CD        55.9420   12.3060    7.8050 C.2    13  GLN13       0.2608
     19  OE1       54.8620   11.7320    7.5480 O.2    13  GLN13      -0.2717
     20  NE2       57.1330   11.8160    7.4220 N.am   13  GLN13      -0.0878
     21  N         55.2270   14.0340    4.8900 N.am   14  CYS14      -0.1956
     22  CA        54.7290   13.6030    3.5870 C.3    14  CYS14       0.1843
     23  C         53.7320   12.4350    3.6760 C.2    14  CYS14       0.2625
     24  O         52.9330   12.2690    2.7640 O.2    14  CYS14      -0.2714
     25  CB        55.8890   13.2280    2.6690 C.3    14  CYS14       0.0997
     26  SG        56.8760   11.8520    3.2430 S.3    14  CYS14      -0.0797
     27  N         53.7310   11.6650    4.7700 N.am   15  ARG15      -0.1977
     28  CA        52.8150   10.5170    4.9030 C.3    15  ARG15       0.1597
     29  C         51.6280   10.8340    5.8170 C.2    15  ARG15       0.2287
     30  O         50.8040    9.9390    6.1440 O.2    15  ARG15      -0.2864
     31  CB        53.5540    9.2990    5.4440 C.3    15  ARG15       0.0334
     32  CG        54.3540    8.5420    4.4200 C.3    15  ARG15       0.0492
     33  CD        54.9620    7.3310    5.0310 C.3    15  ARG15       0.2205
     34  NE        55.3860    6.4250    3.9820 N.pl3  15  ARG15      -0.0865
     35  CZ        56.6430    6.1250    3.6720 C.cat  15  ARG15       0.5346
     36  NH1       57.6500    6.6460    4.3260 N.pl3  15  ARG15       0.1354
     37  NH2       56.8800    5.2960    2.6630 N.pl3  15  ARG15       0.1354
     38  N         56.8780    8.3090   19.4320 N.3    37  ARG37      -0.1245
     39  CA        57.4860    7.1690   20.1290 C.3    37  ARG37       0.1563
     40  C         57.3810    7.2870   21.6490 C.2    37  ARG37       0.2260
     41  O         58.1680    6.6930   22.3840 O.2    37  ARG37      -0.2867
     42  CB        58.9560    6.9970   19.7100 C.3    37  ARG37       0.0307
     43  CG        59.1470    6.8170   18.2030 C.3    37  ARG37       0.0489
     44  CD        60.4830    6.1840   17.8480 C.3    37  ARG37       0.2205
     45  NE        60.5460    5.7750   16.4400 N.pl3  37  ARG37      -0.0865
     46  CZ        61.5370    5.0630   15.9010 C.cat  37  ARG37       0.5346
     47  NH1       62.5590    4.6660   16.6420 N.pl3  37  ARG37       0.1354
     48  NH2       61.5060    4.7420   14.6140 N.pl3  37  ARG37       0.1354
     49  N         56.5780    4.0170   14.1710 N.3    49  LYS49      -0.1231
     50  CA        56.4680    4.6000   12.8490 C.3    49  LYS49       0.1693
     51  C         55.3350    5.5760   12.7740 C.2    49  LYS49       0.2591
     52  O         54.2720    5.4040   13.3520 O.2    49  LYS49      -0.2718
     53  CB        56.3300    3.5080   11.7690 C.3    49  LYS49       0.0285
     54  CG        57.5980    2.6370   11.6550 C.3    49  LYS49       0.0035
     55  CD        57.7880    2.0060   10.2950 C.3    49  LYS49       0.0206
     56  CE        59.1680    1.4530   10.1420 C.3    49  LYS49       0.1093
     57  NZ        59.6440    1.7270    8.7990 N.3    49  LYS49      -0.1314
     58  N         55.6220    6.6350   12.0470 N.am   50  VAL50      -0.1980
     59  CA        54.7020    7.7190   11.8100 C.3    50  VAL50       0.1595
     60  C         54.1770    7.6550   10.3770 C.2    50  VAL50       0.2287
     61  O         54.9310    7.5030    9.4360 O.2    50  VAL50      -0.2864
     62  CB        55.4180    9.0520   12.0740 C.3    50  VAL50       0.0276
     63  CG1       55.0160   10.1330   11.0540 C.3    50  VAL50       0.0022
     64  CG2       55.1580    9.4720   13.4940 C.3    50  VAL50       0.0022
     65  N         58.2360    7.4840   -2.4600 N.3   103  VAL103     -0.1231
     66  CA        58.7230    7.8870   -1.1570 C.3   103  VAL103      0.1692
     67  C         59.8550    6.9950   -0.6810 C.2   103  VAL103      0.2591
     68  O         60.8600    7.4830   -0.1770 O.2   103  VAL103     -0.2718
     69  CB        57.6010    7.9050   -0.1040 C.3   103  VAL103      0.0266
     70  CG1       58.1360    8.2500    1.2060 C.3   103  VAL103      0.0020
     71  CG2       56.5430    8.9550   -0.4840 C.3   103  VAL103      0.0020
     72  N         59.7250    5.6920   -0.8370 N.am  104  ILE104     -0.1980
     73  CA        60.7630    4.8200   -0.3420 C.3   104  ILE104      0.1595
     74  C         62.0430    5.0820   -1.1150 C.2   104  ILE104      0.2287
     75  O         63.0860    5.2360   -0.5070 O.2   104  ILE104     -0.2864
     76  CB        60.3380    3.3510   -0.4220 C.3   104  ILE104      0.0276
     77  CG1       59.1830    3.0650    0.5560 C.3   104  ILE104      0.0022
     78  CG2       61.4450    2.4620   -0.0040 C.3   104  ILE104      0.0022
     79  CD1       58.7240    1.6370    0.4880 C.3   104  ILE104      0.0001
     80  N         63.5200    8.4720   -0.1680 N.3   107  THR107     -0.1203
     81  CA        64.0510    8.4730    1.1770 C.3   107  THR107      0.1994
     82  C         65.5140    8.0650    1.1710 C.2   107  THR107      0.2617
     83  O         66.3220    8.6540    1.8850 O.2   107  THR107     -0.2717
     84  CB        63.2400    7.5400    2.0920 C.3   107  THR107      0.1784
     85  OG1       61.9410    8.1130    2.3010 O.3   107  THR107     -0.2211
     86  CG2       63.9000    7.3440    3.4600 C.3   107  THR107      0.0376
     87  N         65.8650    7.0690    0.3640 N.am  108  GLN108     -0.1979
     88  CA        67.2560    6.6120    0.3180 C.3   108  GLN108      0.1601
     89  C         68.1350    7.5660   -0.4870 C.2   108  GLN108      0.2287
     90  O         69.3630    7.4870   -0.4420 O.2   108  GLN108     -0.2864
     91  CB        67.3460    5.2020   -0.2590 C.3   108  GLN108      0.0394
     92  CG        66.3190    4.1970    0.3030 C.3   108  GLN108      0.0908
     93  CD        66.4780    3.8480    1.7900 C.2   108  GLN108      0.2608
     94  OE1       67.0030    4.6050    2.5610 O.2   108  GLN108     -0.2717
     95  NE2       66.0200    2.6570    2.1700 N.am  108  GLN108     -0.0878
     96  N         67.7210   10.7230    0.1370 N.3   110  LEU110     -0.1231
     97  CA        67.6640   11.9200    0.9640 C.3   110  LEU110      0.1693
     98  C         68.4070   11.7600    2.2490 C.2   110  LEU110      0.2591
     99  O         69.2010   12.6130    2.6370 O.2   110  LEU110     -0.2718
    100  CB        66.2290   12.2880    1.2850 C.3   110  LEU110      0.0284
    101  CG        66.0350   13.4800    2.2300 C.3   110  LEU110      0.0019
    102  CD1       66.6430   14.7000    1.6470 C.3   110  LEU110      0.0001
    103  CD2       64.5850   13.7340    2.5220 C.3   110  LEU110      0.0001
    104  N         68.1340   10.6690    2.9290 N.am  111  LEU111     -0.1980
    105  CA        68.7220   10.4800    4.2350 C.3   111  LEU111      0.1596
    106  C         70.2700   10.4930    4.1820 C.2   111  LEU111      0.2287
    107  O         70.9020   11.0870    5.0430 O.2   111  LEU111     -0.2864
    108  CB        68.1920    9.1940    4.8720 C.3   111  LEU111      0.0297
    109  CG        66.6860    9.2010    5.2010 C.3   111  LEU111      0.0022
    110  CD1       66.2600    7.9610    5.9660 C.3   111  LEU111      0.0001
    111  CD2       66.2740   10.4160    5.9810 C.3   111  LEU111      0.0001
    112  N         71.6430   11.1020    8.1550 N.3   116  VAL116     -0.1231
    113  CA        70.9390   10.1220    8.9840 C.3   116  VAL116      0.1692
    114  C         71.5110    8.7180    8.8070 C.2   116  VAL116      0.2591
    115  O         71.5490    7.9070    9.7450 O.2   116  VAL116     -0.2718
    116  CB        69.4380   10.1070    8.6500 C.3   116  VAL116      0.0266
    117  CG1       68.6950    9.1570    9.5480 C.3   116  VAL116      0.0020
    118  CG2       68.8620   11.4820    8.8340 C.3   116  VAL116      0.0020
    119  N         71.9680    8.4700    7.5870 N.am  117  ILE117     -0.1980
    120  CA        72.2770    7.1450    7.0760 C.3   117  ILE117      0.1595
    121  C         73.5970    7.3190    6.3090 C.2   117  ILE117      0.2287
    122  O         73.8600    8.4120    5.7850 O.2   117  ILE117     -0.2864
    123  CB        71.0820    6.6070    6.1870 C.3   117  ILE117      0.0276
    124  CG1       70.1170    5.7650    7.0440 C.3   117  ILE117      0.0022
    125  CG2       71.5430    5.8500    4.9380 C.3   117  ILE117      0.0022
    126  CD1       68.8890    5.2440    6.2900 C.3   117  ILE117      0.0001
    127  N         57.7850   15.7060   -0.4320 N.3   166  LEU166     -0.1245
    128  CA        59.1710   15.5360    0.0040 C.3   166  LEU166      0.1561
    129  C         60.1480   16.0800   -1.0280 C.2   166  LEU166      0.2260
    130  O         61.0840   16.8050   -0.6910 O.2   166  LEU166     -0.2867
    131  CB        59.4880   14.0780    0.2890 C.3   166  LEU166      0.0270
    132  CG        60.8390   13.8250    0.9720 C.3   166  LEU166      0.0019
    133  CD1       60.9340   14.5890    2.2550 C.3   166  LEU166      0.0001
    134  CD2       60.9840   12.3490    1.2450 C.3   166  LEU166      0.0001
@<TRIPOS>BOND
     1    65    66    1
     2    66    67    1
     3    66    69    1
     4    74    75    2
     5    74    73    1
     6   129   130    2
     7   129   128    1
     8    72    67   am
     9    72    73    1
    10    67    68    2
    11    89    90    2
    12    89    88    1
    13    71    69    1
    14   127   128    1
    15    76    73    1
    16    76    78    1
    17    76    77    1
    18    91    92    1
    19    91    88    1
    20    80    81    1
    21    69    70    1
    22   128   131    1
    23    96    97    1
    24   131   132    1
    25    92    93    1
    26    88    87    1
    27    87    82   am
    28    79    77    1
    29    97   100    1
    30    97    98    1
    31   132   134    1
    32   132   133    1
    33    82    81    1
    34    82    83    2
    35    81    84    1
    36   100   101    1
    37   102   101    1
    38    93    95   am
    39    93    94    2
    40    84    85    1
    41    84    86    1
    42   101   103    1
    43    98    99    2
    44    98   104   am
    45    37    35    1
    46    25    26    1
    47    25    22    1
    48    24    23    2
    49   104   105    1
    50    22    23    1
    51    22    21    1
    52    35    34    2
    53    35    36    1
    54    23    27   am
    55    34    33    1
    56   106   105    1
    57   106   107    2
    58   105   108    1
    59    32    33    1
    60    32    31    1
    61    27    28    1
    62   108   109    1
    63    21    14   am
    64    28    31    1
    65    28    29    1
    66   125   123    1
    67   109   110    1
    68   109   111    1
    69    15    14    2
    70    14    13    1
    71   122   121    2
    72    29    30    2
    73   123   124    1
    74   123   120    1
    75   126   124    1
    76   121   120    1
    77    13    12    1
    78    13    16    1
    79   120   119    1
    80    20    18   am
    81    19    18    2
    82   119   114   am
    83    18    17    1
    84   112   113    1
    85    16    17    1
    86   116   118    1
    87   116   113    1
    88   116   117    1
    89    57    56    1
    90   114   113    1
    91   114   115    2
    92    61    60    2
    93    56    55    1
    94    55    54    1
    95    60    59    1
    96    10     8   ar
    97    10    11   ar
    98     8     6   ar
    99    63    62    1
   100    54    53    1
   101    53    50    1
   102    59    58    1
   103    59    62    1
   104    11     9   ar
   105    58    51   am
   106    62    64    1
   107     6     5    1
   108     6     7   ar
   109     5     2    1
   110     4     3    2
   111    51    50    1
   112    51    52    2
   113    50    49    1
   114     1     2    1
   115     3     2    1
   116     9     7   ar
   117    48    46    1
   118    46    45    2
   119    46    47    1
   120    45    44    1
   121    44    43    1
   122    43    42    1
   123    38    39    1
   124    42    39    1
   125    39    40    1
   126    40    41    2
