@<TRIPOS>MOLECULE
tmp/5f8eB00.pdb
 201 196 0 0 0
SMALL
GASTEIGER

@<TRIPOS>ATOM
      1  N         38.1550  -24.5540  -16.8880 N.3   127  TYR127     -0.1241
      2  CA        38.6840  -25.8820  -17.2130 C.3   127  TYR127      0.1605
      3  C         39.7550  -26.3480  -16.2330 C.2   127  TYR127      0.2264
      4  O         39.8580  -27.5460  -15.9710 O.2   127  TYR127     -0.2867
      5  CB        39.2570  -25.9450  -18.6510 C.3   127  TYR127      0.0534
      6  CG        38.2990  -26.4600  -19.7180 C.ar  127  TYR127     -0.0201
      7  CD1       37.4410  -25.5850  -20.4020 C.ar  127  TYR127     -0.0009
      8  CD2       38.2580  -27.8180  -20.0620 C.ar  127  TYR127     -0.0009
      9  CE1       36.5550  -26.0480  -21.3890 C.ar  127  TYR127      0.0417
     10  CE2       37.3770  -28.2950  -21.0450 C.ar  127  TYR127      0.0417
     11  CZ        36.5160  -27.4050  -21.7150 C.ar  127  TYR127      0.1957
     12  OH        35.6370  -27.8520  -22.7000 O.3   127  TYR127     -0.2866
     13  N         39.2210  -34.4130  -15.7970 N.3   133  PHE133     -0.1227
     14  CA        38.4070  -34.4850  -16.9850 C.3   133  PHE133      0.1736
     15  C         39.0520  -34.9440  -18.2900 C.2   133  PHE133      0.2595
     16  O         38.4600  -35.6760  -19.0490 O.2   133  PHE133     -0.2718
     17  CB        37.8000  -33.1030  -17.1680 C.3   133  PHE133      0.0547
     18  CG        37.0650  -32.9280  -18.4510 C.ar  133  PHE133     -0.0202
     19  CD1       35.7860  -33.3800  -18.5850 C.ar  133  PHE133     -0.0042
     20  CD2       37.6920  -32.3580  -19.5190 C.ar  133  PHE133     -0.0042
     21  CE1       35.1350  -33.2410  -19.7630 C.ar  133  PHE133     -0.0003
     22  CE2       37.0520  -32.2250  -20.6960 C.ar  133  PHE133     -0.0003
     23  CZ        35.7670  -32.6530  -20.8140 C.ar  133  PHE133     -0.0000
     24  N         40.2420  -34.4780  -18.5760 N.am  134  HIS134     -0.1975
     25  CA        40.8450  -34.8900  -19.8080 C.3   134  HIS134      0.1656
     26  C         40.9180  -36.3750  -19.8940 C.2   134  HIS134      0.2291
     27  O         40.6140  -36.9220  -20.9040 O.2   134  HIS134     -0.2864
     28  CB        42.1940  -34.2600  -20.0020 C.3   134  HIS134      0.0771
     29  CG        42.1250  -32.9570  -20.7160 C.ar  134  HIS134      0.0820
     30  ND1       42.4860  -31.7670  -20.1300 N.ar  134  HIS134     -0.2267
     31  CD2       41.6970  -32.6500  -21.9590 C.ar  134  HIS134      0.1154
     32  CE1       42.3090  -30.7850  -20.9910 C.ar  134  HIS134      0.1986
     33  NE2       41.8260  -31.2950  -22.1060 N.ar  134  HIS134     -0.2212
     34  N         37.3340  -37.8630  -20.4120 N.3   137  MET137     -0.1230
     35  CA        36.8390  -37.5310  -21.7180 C.3   137  MET137      0.1702
     36  C         37.5030  -38.3510  -22.7820 C.2   137  MET137      0.2592
     37  O         36.9180  -38.7280  -23.7360 O.2   137  MET137     -0.2718
     38  CB        37.0210  -36.0610  -21.9810 C.3   137  MET137      0.0401
     39  CG        36.2240  -35.5580  -23.1570 C.3   137  MET137      0.0596
     40  SD        34.5320  -36.0200  -22.9700 S.3   137  MET137     -0.1393
     41  CE        33.9840  -35.9910  -24.6450 C.3   137  MET137      0.0692
     42  N         38.7680  -38.5860  -22.6090 N.am  138  ALA138     -0.1980
     43  CA        39.5200  -39.3460  -23.5410 C.3   138  ALA138      0.1597
     44  C         39.0510  -40.7530  -23.5440 C.2   138  ALA138      0.2287
     45  O         38.9880  -41.3700  -24.5740 O.2   138  ALA138     -0.2864
     46  CB        40.9800  -39.2710  -23.2130 C.3   138  ALA138      0.0319
     47  N         35.3550  -40.9000  -24.7800 N.3   141  SER141     -0.1217
     48  CA        35.4370  -40.6900  -26.2240 C.3   141  SER141      0.1889
     49  C         36.1570  -41.8190  -26.9680 C.2   141  SER141      0.2288
     50  O         35.7610  -42.2200  -28.0630 O.2   141  SER141     -0.2866
     51  CB        36.1120  -39.3500  -26.5280 C.3   141  SER141      0.2089
     52  OG        37.4560  -39.3430  -26.0790 O.3   141  SER141     -0.2183
     53  N         35.7740  -44.0540  -30.5650 N.3   145  PHE145     -0.1241
     54  CA        36.8160  -43.9130  -31.5950 C.3   145  PHE145      0.1605
     55  C         37.4100  -45.2430  -32.0730 C.2   145  PHE145      0.2264
     56  O         37.5460  -45.4570  -33.2830 O.2   145  PHE145     -0.2867
     57  CB        37.9620  -42.9880  -31.1180 C.3   145  PHE145      0.0534
     58  CG        37.5930  -41.5170  -31.0180 C.ar  145  PHE145     -0.0203
     59  CD1       36.5930  -40.9380  -31.8250 C.ar  145  PHE145     -0.0042
     60  CD2       38.2920  -40.6920  -30.1470 C.ar  145  PHE145     -0.0042
     61  CE1       36.2950  -39.5940  -31.7340 C.ar  145  PHE145     -0.0003
     62  CE2       38.0010  -39.3460  -30.0620 C.ar  145  PHE145     -0.0003
     63  CZ        37.0000  -38.7990  -30.8550 C.ar  145  PHE145     -0.0000
     64  N         41.6040  -32.0130  -37.0190 N.3   172  ASP172     -0.1239
     65  CA        40.7290  -32.2630  -35.8740 C.3   172  ASP172      0.1674
     66  C         40.7910  -31.0320  -34.9500 C.2   172  ASP172      0.2266
     67  O         41.8410  -30.6910  -34.3870 O.2   172  ASP172     -0.2867
     68  CB        41.1750  -33.5400  -35.1490 C.3   172  ASP172      0.1410
     69  CG        40.1660  -34.0410  -34.0870 C.2   172  ASP172      0.3668
     70  OD1       38.9730  -33.6070  -34.0640 O.co2 172  ASP172     -0.2456
     71  OD2       40.6100  -34.9040  -33.2660 O.co2 172  ASP172     -0.2456
     72  N         39.4540  -29.1080  -31.5430 N.3   174  GLY174     -0.1210
     73  CA        39.0530  -29.5340  -30.2060 C.3   174  GLY174      0.1956
     74  C         39.4100  -31.0070  -30.0670 C.2   174  GLY174      0.2612
     75  O         38.6270  -31.8240  -29.5820 O.2   174  GLY174     -0.2717
     76  N         40.5820  -31.3580  -30.5650 N.am  175  CYS175     -0.1956
     77  CA        41.0140  -32.7460  -30.6230 C.3   175  CYS175      0.1843
     78  C         41.1480  -33.4840  -29.3050 C.2   175  CYS175      0.2626
     79  O         41.0610  -34.7120  -29.2710 O.2   175  CYS175     -0.2714
     80  CB        42.3300  -32.8510  -31.4020 C.3   175  CYS175      0.0997
     81  SG        43.6990  -31.9120  -30.6850 S.3   175  CYS175     -0.0797
     82  N         41.3140  -32.7750  -28.2390 N.am  176  GLY176     -0.1940
     83  CA        41.5210  -33.4370  -27.0040 C.3   176  GLY176      0.2014
     84  C         42.8850  -34.0520  -27.0320 C.2   176  GLY176      0.2639
     85  O         43.8460  -33.4120  -27.3260 O.2   176  GLY176     -0.2714
     86  N         42.9630  -35.3150  -26.7190 N.am  177  SER177     -0.1949
     87  CA        44.2200  -35.9940  -26.6200 C.3   177  SER177      0.1924
     88  C         44.7490  -36.6410  -27.8640 C.2   177  SER177      0.2314
     89  O         45.6900  -37.3720  -27.7970 O.2   177  SER177     -0.2863
     90  CB        44.1520  -36.9750  -25.4860 C.3   177  SER177      0.2116
     91  OG        43.7070  -36.3090  -24.3240 O.3   177  SER177     -0.2180
     92  N         43.9420  -28.0740  -30.1600 N.3   197  ASP197     -0.1225
     93  CA        43.2920  -27.8350  -28.8760 C.3   197  ASP197      0.1805
     94  C         43.9880  -26.6800  -28.1800 C.2   197  ASP197      0.2598
     95  O         45.1110  -26.3790  -28.4780 O.2   197  ASP197     -0.2718
     96  CB        43.3550  -29.0680  -27.9790 C.3   197  ASP197      0.1424
     97  CG        42.7780  -28.8250  -26.6010 C.2   197  ASP197      0.3668
     98  OD1       42.4560  -27.6920  -26.3020 O.co2 197  ASP197     -0.2456
     99  OD2       42.6000  -29.7430  -25.8090 O.co2 197  ASP197     -0.2456
    100  N         43.3260  -26.0410  -27.2390 N.am  198  PHE198     -0.1962
    101  CA        43.9100  -24.9400  -26.5010 C.3   198  PHE198      0.1771
    102  C         44.5340  -25.3750  -25.2080 C.2   198  PHE198      0.2620
    103  O         45.1010  -24.5910  -24.5090 O.2   198  PHE198     -0.2715
    104  CB        42.9200  -23.8120  -26.2970 C.3   198  PHE198      0.0574
    105  CG        41.8550  -24.0970  -25.3060 C.ar  198  PHE198     -0.0200
    106  CD1       41.6370  -25.3540  -24.8330 C.ar  198  PHE198     -0.0042
    107  CD2       41.0420  -23.0920  -24.8780 C.ar  198  PHE198     -0.0042
    108  CE1       40.6370  -25.5910  -23.9320 C.ar  198  PHE198     -0.0003
    109  CE2       40.0450  -23.3280  -23.9810 C.ar  198  PHE198     -0.0003
    110  CZ        39.8460  -24.5750  -23.5120 C.ar  198  PHE198     -0.0000
    111  N         44.4280  -26.6500  -24.9090 N.am  199  SER199     -0.1950
    112  CA        45.0550  -27.2830  -23.7470 C.3   199  SER199      0.1924
    113  C         46.5110  -27.6650  -24.0610 C.2   199  SER199      0.2314
    114  O         46.8150  -28.0820  -25.1680 O.2   199  SER199     -0.2863
    115  CB        44.2350  -28.5210  -23.3620 C.3   199  SER199      0.2116
    116  OG        44.8050  -29.2280  -22.2850 O.3   199  SER199     -0.2180
    117  N         46.1580  -23.9180  -30.4830 N.3   223  HIS223     -0.1226
    118  CA        45.4900  -22.6550  -30.8110 C.3   223  HIS223      0.1752
    119  C         44.1410  -22.6090  -30.1150 C.2   223  HIS223      0.2596
    120  O         43.6150  -23.6270  -29.6880 O.2   223  HIS223     -0.2718
    121  CB        45.2680  -22.5020  -32.3180 C.3   223  HIS223      0.0759
    122  CG        46.5270  -22.5510  -33.1370 C.ar  223  HIS223      0.0818
    123  ND1       47.6020  -21.7130  -32.9110 N.ar  223  HIS223     -0.2268
    124  CD2       46.8820  -23.3360  -34.1860 C.ar  223  HIS223      0.1154
    125  CE1       48.5660  -21.9860  -33.7760 C.ar  223  HIS223      0.1986
    126  NE2       48.1560  -22.9700  -34.5590 N.ar  223  HIS223     -0.2212
    127  N         43.5900  -21.4130  -29.9880 N.am  224  ASP224     -0.1960
    128  CA        42.2170  -21.2250  -29.5280 C.3   224  ASP224      0.1840
    129  C         41.4080  -21.2240  -30.7880 C.2   224  ASP224      0.2622
    130  O         41.7100  -20.4700  -31.6810 O.2   224  ASP224     -0.2715
    131  CB        42.0610  -19.8780  -28.8000 C.3   224  ASP224      0.1450
    132  CG        40.7550  -19.7710  -27.9810 C.2   224  ASP224      0.3671
    133  OD1       39.6480  -19.6170  -28.5510 O.co2 224  ASP224     -0.2456
    134  OD2       40.8390  -19.8170  -26.7380 O.co2 224  ASP224     -0.2456
    135  N         40.3670  -22.0300  -30.8590 N.am  225  LEU225     -0.1963
    136  CA        39.5640  -22.1350  -32.0860 C.3   225  LEU225      0.1728
    137  C         38.8180  -20.8630  -32.4870 C.2   225  LEU225      0.2616
    138  O         38.5000  -20.6720  -33.6670 O.2   225  LEU225     -0.2715
    139  CB        38.5440  -23.2660  -31.9650 C.3   225  LEU225      0.0311
    140  CG        39.1250  -24.6580  -31.6710 C.3   225  LEU225      0.0022
    141  CD1       37.9950  -25.6790  -31.5130 C.3   225  LEU225      0.0001
    142  CD2       40.1640  -25.0830  -32.7220 C.3   225  LEU225      0.0001
    143  N         38.5390  -20.0010  -31.5140 N.am  226  ALA226     -0.1977
    144  CA        37.8910  -18.7240  -31.7820 C.3   226  ALA226      0.1597
    145  C         38.7750  -17.7060  -32.5170 C.2   226  ALA226      0.2287
    146  O         38.2560  -16.7070  -33.0150 O.2   226  ALA226     -0.2864
    147  CB        37.3740  -18.1260  -30.4920 C.3   226  ALA226      0.0319
    148  N         34.8270  -33.2340  -32.5700 N.3   240  PHE240     -0.1227
    149  CA        34.1130  -34.2440  -31.7710 C.3   240  PHE240      0.1736
    150  C         33.7880  -33.7460  -30.3750 C.2   240  PHE240      0.2595
    151  O         34.6530  -33.7240  -29.5000 O.2   240  PHE240     -0.2718
    152  CB        34.9460  -35.5210  -31.6580 C.3   240  PHE240      0.0547
    153  CG        35.0970  -36.2680  -32.9600 C.ar  240  PHE240     -0.0202
    154  CD1       34.0960  -37.1300  -33.4100 C.ar  240  PHE240     -0.0042
    155  CD2       36.2540  -36.1220  -33.7370 C.ar  240  PHE240     -0.0042
    156  CE1       34.2480  -37.8140  -34.6110 C.ar  240  PHE240     -0.0003
    157  CE2       36.4000  -36.8040  -34.9360 C.ar  240  PHE240     -0.0003
    158  CZ        35.3980  -37.6440  -35.3760 C.ar  240  PHE240     -0.0000
    159  N         32.5310  -33.3620  -30.1770 N.am  241  ASP241     -0.1960
    160  CA        32.0310  -32.8840  -28.8800 C.3   241  ASP241      0.1840
    161  C         32.8860  -31.7470  -28.3310 C.2   241  ASP241      0.2621
    162  O         33.3370  -31.8170  -27.1900 O.2   241  ASP241     -0.2715
    163  CB        31.9300  -34.0430  -27.8540 C.3   241  ASP241      0.1450
    164  CG        30.9430  -35.1470  -28.2870 C.2   241  ASP241      0.3671
    165  OD1       29.7250  -34.9940  -28.0260 O.co2 241  ASP241     -0.2456
    166  OD2       31.3930  -36.1670  -28.8650 O.co2 241  ASP241     -0.2456
    167  N         33.0960  -30.7340  -29.1580 N.am  242  ALA242     -0.1977
    168  CA        33.8370  -29.5490  -28.7890 C.3   242  ALA242      0.1597
    169  C         33.0920  -28.2460  -28.9470 C.2   242  ALA242      0.2287
    170  O         33.4270  -27.2890  -28.3430 O.2   242  ALA242     -0.2864
    171  CB        35.1120  -29.4850  -29.5690 C.3   242  ALA242      0.0319
    172  N         30.8360  -26.4380  -25.8370 N.3   245  ASP245     -0.1225
    173  CA        31.5510  -25.8900  -24.7200 C.3   245  ASP245      0.1805
    174  C         32.4570  -24.7400  -25.0430 C.2   245  ASP245      0.2598
    175  O         33.2030  -24.2920  -24.2110 O.2   245  ASP245     -0.2718
    176  CB        32.2320  -26.9410  -23.8850 C.3   245  ASP245      0.1424
    177  CG        32.9890  -27.8940  -24.6770 C.2   245  ASP245      0.3668
    178  OD1       33.5430  -27.4940  -25.6900 O.co2 245  ASP245     -0.2456
    179  OD2       33.0230  -29.0520  -24.2880 O.co2 245  ASP245     -0.2456
    180  N         32.3890  -24.2610  -26.2650 N.am  246  GLN246     -0.1965
    181  CA        33.1910  -23.1450  -26.6680 C.3   246  GLN246      0.1733
    182  C         32.6150  -21.9200  -26.0660 C.2   246  GLN246      0.2616
    183  O         31.4580  -21.8700  -25.7380 O.2   246  GLN246     -0.2715
    184  CB        33.1250  -22.9460  -28.1610 C.3   246  GLN246      0.0408
    185  CG        33.7510  -24.0100  -28.9960 C.3   246  GLN246      0.0908
    186  CD        35.1240  -24.3630  -28.5510 C.2   246  GLN246      0.2608
    187  OE1       35.9570  -23.5250  -28.3970 O.2   246  GLN246     -0.2717
    188  NE2       35.3600  -25.6070  -28.3700 N.am  246  GLN246     -0.0878
    189  N         33.4400  -20.9120  -25.9240 N.am  247  ALA247     -0.1977
    190  CA        32.9870  -19.6410  -25.4650 C.3   247  ALA247      0.1597
    191  C         32.2760  -18.8680  -26.5660 C.2   247  ALA247      0.2287
    192  O         31.2810  -18.2230  -26.3520 O.2   247  ALA247     -0.2864
    193  CB        34.1340  -18.8680  -24.9030 C.3   247  ALA247      0.0319
    194  N         34.5040  -17.7080  -19.2860 N.3   303  LEU303     -0.1245
    195  CA        35.3260  -16.9160  -20.1450 C.3   303  LEU303      0.1561
    196  C         34.4810  -15.8280  -20.7220 C.2   303  LEU303      0.2260
    197  O         34.8500  -15.2010  -21.6810 O.2   303  LEU303     -0.2867
    198  CB        35.8750  -17.7780  -21.2660 C.3   303  LEU303      0.0270
    199  CG        36.8270  -18.9270  -21.0150 C.3   303  LEU303      0.0019
    200  CD1       37.1990  -19.5630  -22.3040 C.3   303  LEU303      0.0001
    201  CD2       38.0800  -18.4450  -20.3830 C.3   303  LEU303      0.0001
@<TRIPOS>BOND
     1    64    65    1
     2    65    68    1
     3    65    66    1
     4   158   157   ar
     5   158   156   ar
     6    68    69    1
     7    66    67    2
     8   157   155   ar
     9   156   154   ar
    10   126   124   ar
    11   126   125   ar
    12   124   122   ar
    13    69    70   ar
    14    69    71   ar
    15   125   123   ar
    16   155   153   ar
    17   138   137    2
    18   154   153   ar
    19    56    55    2
    20   122   123   ar
    21   122   121    1
    22   146   145    2
    23   153   152    1
    24   142   140    1
    25   148   149    1
    26   145   144    1
    27   137   136    1
    28   137   143   am
    29   121   118    1
    30   136   139    1
    31   136   135    1
    32    55    54    1
    33   139   140    1
    34    59    61   ar
    35    59    58   ar
    36   144   143    1
    37   144   147    1
    38   149   152    1
    39   149   150    1
    40    61    63   ar
    41   130   129    2
    42   140   141    1
    43    54    57    1
    44    54    53    1
    45    72    73    1
    46    80    81    1
    47    80    77    1
    48    57    58    1
    49    58    60   ar
    50   135   129   am
    51    63    62   ar
    52   118   117    1
    53   118   119    1
    54   129   128    1
    55    77    76    1
    56    77    78    1
    57    76    74   am
    58   150   159   am
    59   150   151    2
    60    73    74    1
    61   159   160    1
    62    92    93    1
    63    60    62   ar
    64   119   127   am
    65   119   120    2
    66    74    75    2
    67   127   128    1
    68   171   168    1
    69   128   131    1
    70    78    79    2
    71    78    82   am
    72   167   168    1
    73   167   161   am
    74   185   186    1
    75   185   184    1
    76   169   168    1
    77   169   170    2
    78   160   161    1
    79   160   163    1
    80    93    94    1
    81    93    96    1
    82   166   164   ar
    83   131   132    1
    84   186   187    2
    85   186   188   am
    86   133   132   ar
    87    95    94    2
    88   161   162    2
    89   164   165   ar
    90   164   163    1
    91    82    83    1
    92    94   100   am
    93   184   181    1
    94    50    49    2
    95   132   134   ar
    96    96    97    1
    97    88    89    2
    98    88    87    1
    99    85    84    2
   100   100   101    1
   101    84    83    1
   102    84    86   am
   103    49    48    1
   104    86    87    1
   105   181   180    1
   106   181   182    1
   107    87    90    1
   108    97    98   ar
   109    97    99   ar
   110   191   192    2
   111   191   190    1
   112    51    48    1
   113    51    52    1
   114   101   104    1
   115   101   102    1
   116   104   105    1
   117   180   174   am
   118    48    47    1
   119   182   189   am
   120   182   183    2
   121   189   190    1
   122   172   173    1
   123   178   177   ar
   124    90    91    1
   125   190   193    1
   126   105   107   ar
   127   105   106   ar
   128   102   111   am
   129   102   103    2
   130   114   113    2
   131   174   173    1
   132   174   175    2
   133   111   112    1
   134   107   109   ar
   135   106   108   ar
   136   173   176    1
   137   177   179   ar
   138   177   176    1
   139    41    40    1
   140    45    44    2
   141   113   112    1
   142   109   110   ar
   143   108   110   ar
   144   112   115    1
   145    37    36    2
   146    44    43    1
   147    43    46    1
   148    43    42    1
   149   115   116    1
   150    39    40    1
   151    39    38    1
   152    36    42   am
   153    36    35    1
   154    12    11    1
   155   200   199    1
   156    33    31   ar
   157    33    32   ar
   158    38    35    1
   159    31    29   ar
   160    35    34    1
   161    11     9   ar
   162    11    10   ar
   163   197   196    2
   164     9     7   ar
   165   198   199    1
   166   198   195    1
   167    10     8   ar
   168   199   201    1
   169    32    30   ar
   170    27    26    2
   171    23    22   ar
   172    23    21   ar
   173   196   195    1
   174    29    30   ar
   175    29    28    1
   176    22    20   ar
   177     7     6   ar
   178   195   194    1
   179     8     6   ar
   180    28    25    1
   181    26    25    1
   182    25    24    1
   183    21    19   ar
   184     6     5    1
   185    20    18   ar
   186    16    15    2
   187     5     2    1
   188    19    18   ar
   189    24    15   am
   190    18    17    1
   191    15    14    1
   192     2     1    1
   193     2     3    1
   194    17    14    1
   195    14    13    1
   196     3     4    2
