@<TRIPOS>MOLECULE
tmp/5f8fB00.pdb
 174 168 0 0 0
SMALL
GASTEIGER

@<TRIPOS>ATOM
      1  N        125.2890   22.7490  127.1430 N.3   138  TYR138     -0.1241
      2  CA       125.7410   21.5130  126.5660 C.3   138  TYR138      0.1605
      3  C        126.9000   20.8680  127.3580 C.2   138  TYR138      0.2264
      4  O        126.9120   19.6540  127.5380 O.2   138  TYR138     -0.2867
      5  CB       126.1030   21.8200  125.1000 C.3   138  TYR138      0.0534
      6  CG       126.6400   20.6860  124.2970 C.ar  138  TYR138     -0.0201
      7  CD1      128.0090   20.3850  124.3350 C.ar  138  TYR138     -0.0009
      8  CD2      125.8130   19.9460  123.4500 C.ar  138  TYR138     -0.0009
      9  CE1      128.5390   19.3530  123.5780 C.ar  138  TYR138      0.0417
     10  CE2      126.3340   18.9120  122.6810 C.ar  138  TYR138      0.0417
     11  CZ       127.7020   18.6180  122.7540 C.ar  138  TYR138      0.1957
     12  OH       128.2590   17.5850  122.0340 O.3   138  TYR138     -0.2866
     13  N        123.8120    9.1290  123.9520 N.3   148  MET148     -0.1230
     14  CA       123.4360    9.5340  122.5970 C.3   148  MET148      0.1702
     15  C        124.2080    8.7650  121.4970 C.2   148  MET148      0.2592
     16  O        123.6010    8.2090  120.5900 O.2   148  MET148     -0.2718
     17  CB       123.6150   11.0510  122.4620 C.3   148  MET148      0.0401
     18  CG       122.4500   11.8800  123.0390 C.3   148  MET148      0.0596
     19  SD       122.8160   13.6440  123.3780 S.3   148  MET148     -0.1393
     20  CE       123.9250   14.0880  122.0300 C.3   148  MET148      0.0692
     21  N        125.5270    8.6850  121.6080 N.am  149  ALA149     -0.1980
     22  CA       126.3260    7.9490  120.6480 C.3   149  ALA149      0.1597
     23  C        126.1450    6.4210  120.7180 C.2   149  ALA149      0.2287
     24  O        126.2310    5.7320  119.6870 O.2   149  ALA149     -0.2864
     25  CB       127.7800    8.2960  120.8260 C.3   149  ALA149      0.0319
     26  N        122.5870    6.0190  118.9430 N.3   152  SER152     -0.1217
     27  CA       122.7190    6.2010  117.4970 C.3   152  SER152      0.1889
     28  C        123.6130    5.0780  116.9060 C.2   152  SER152      0.2288
     29  O        123.3230    4.5580  115.8300 O.2   152  SER152     -0.2866
     30  CB       123.2690    7.6110  117.1770 C.3   152  SER152      0.2089
     31  OG       124.6440    7.6920  117.5170 O.3   152  SER152     -0.2183
     32  N        123.2860    2.8430  113.5850 N.3   156  PHE156     -0.1241
     33  CA       124.3330    2.9230  112.5570 C.3   156  PHE156      0.1605
     34  C        124.9310    1.5590  112.2230 C.2   156  PHE156      0.2264
     35  O        125.0990    1.2310  111.0520 O.2   156  PHE156     -0.2867
     36  CB       125.4830    3.8720  112.9490 C.3   156  PHE156      0.0534
     37  CG       125.1010    5.3470  113.0060 C.ar  156  PHE156     -0.0203
     38  CD1      124.2550    5.9180  112.0580 C.ar  156  PHE156     -0.0042
     39  CD2      125.6460    6.1740  113.9950 C.ar  156  PHE156     -0.0042
     40  CE1      123.9310    7.2670  112.1110 C.ar  156  PHE156     -0.0003
     41  CE2      125.3220    7.5250  114.0560 C.ar  156  PHE156     -0.0003
     42  CZ       124.4590    8.0700  113.1120 C.ar  156  PHE156     -0.0000
     43  N        129.1530   14.9290  106.9450 N.3   183  ASP183     -0.1239
     44  CA       128.2520   14.6120  108.0280 C.3   183  ASP183      0.1674
     45  C        128.3250   15.8000  108.9960 C.2   183  ASP183      0.2266
     46  O        129.3540   16.0080  109.6330 O.2   183  ASP183     -0.2867
     47  CB       128.6950   13.3080  108.6880 C.3   183  ASP183      0.1410
     48  CG       127.7240   12.8050  109.7540 C.2   183  ASP183      0.3668
     49  OD1      126.5200   13.1540  109.7500 O.co2 183  ASP183     -0.2456
     50  OD2      128.1870   12.0100  110.5960 O.co2 183  ASP183     -0.2456
     51  N        127.3660   17.8810  112.3060 N.3   185  GLY185     -0.1210
     52  CA       127.0380   17.5000  113.6760 C.3   185  GLY185      0.1956
     53  C        127.3580   16.0280  113.9010 C.2   185  GLY185      0.2612
     54  O        126.5180   15.2710  114.3920 O.2   185  GLY185     -0.2717
     55  N        128.5850   15.6420  113.5740 N.am  186  CYS186     -0.1956
     56  CA       128.9550   14.2320  113.4560 C.3   186  CYS186      0.1843
     57  C        129.1650   13.4720  114.7710 C.2   186  CYS186      0.2626
     58  O        128.9000   12.2650  114.8420 O.2   186  CYS186     -0.2714
     59  CB       130.1970   14.0780  112.5700 C.3   186  CYS186      0.0997
     60  SG       131.7320   14.8550  113.1290 S.3   186  CYS186     -0.0797
     61  N        129.6660   14.1620  115.7930 N.am  187  GLY187     -0.1954
     62  CA       129.9790   13.5360  117.0750 C.3   187  GLY187      0.1869
     63  C        131.2740   12.7540  116.9960 C.2   187  GLY187      0.2309
     64  O        132.2360   13.2020  116.3530 O.2   187  GLY187     -0.2863
     65  N        131.8510   19.0670  113.5180 N.3   208  ASP208     -0.1225
     66  CA       131.2350   19.1750  114.8500 C.3   208  ASP208      0.1805
     67  C        131.9130   20.3120  115.6340 C.2   208  ASP208      0.2598
     68  O        133.0730   20.6160  115.3670 O.2   208  ASP208     -0.2718
     69  CB       131.3780   17.8440  115.6080 C.3   208  ASP208      0.1424
     70  CG       130.3590   17.6990  116.7200 C.2   208  ASP208      0.3668
     71  OD1      129.2780   17.1200  116.4660 O.co2 208  ASP208     -0.2456
     72  OD2      130.6230   18.1900  117.8440 O.co2 208  ASP208     -0.2456
     73  N        131.2110   20.9150  116.5940 N.am  209  PHE209     -0.1962
     74  CA       131.7900   22.0240  117.4020 C.3   209  PHE209      0.1771
     75  C        132.4960   21.5950  118.7020 C.2   209  PHE209      0.2620
     76  O        132.4580   22.3220  119.6820 O.2   209  PHE209     -0.2715
     77  CB       130.7820   23.2020  117.6120 C.3   209  PHE209      0.0574
     78  CG       129.6290   22.9560  118.5910 C.ar  209  PHE209     -0.0200
     79  CD1      129.3820   21.7200  119.2190 C.ar  209  PHE209     -0.0042
     80  CD2      128.7460   24.0180  118.8710 C.ar  209  PHE209     -0.0042
     81  CE1      128.3130   21.5700  120.1000 C.ar  209  PHE209     -0.0003
     82  CE2      127.6730   23.8580  119.7440 C.ar  209  PHE209     -0.0003
     83  CZ       127.4540   22.6290  120.3570 C.ar  209  PHE209     -0.0000
     84  N        133.1460   20.4220  118.6790 N.am  210  SER210     -0.1950
     85  CA       133.8980   19.8500  119.8160 C.3   210  SER210      0.1924
     86  C        135.2660   19.3760  119.3270 C.2   210  SER210      0.2314
     87  O        135.3370   18.5050  118.4640 O.2   210  SER210     -0.2863
     88  CB       133.1430   18.6630  120.4080 C.3   210  SER210      0.2116
     89  OG       131.8260   19.0370  120.7800 O.3   210  SER210     -0.2180
     90  N        133.8330   23.1660  113.4660 N.3   234  HIS234     -0.1226
     91  CA       133.1390   24.4000  113.0940 C.3   234  HIS234      0.1752
     92  C        131.8470   24.4520  113.8740 C.2   234  HIS234      0.2596
     93  O        131.3510   23.4050  114.3070 O.2   234  HIS234     -0.2718
     94  CB       132.7570   24.4220  111.6070 C.3   234  HIS234      0.0759
     95  CG       133.9180   24.3620  110.6640 C.ar  234  HIS234      0.0818
     96  ND1      134.7490   25.4370  110.4330 N.ar  234  HIS234     -0.2268
     97  CD2      134.3630   23.3640  109.8630 C.ar  234  HIS234      0.1154
     98  CE1      135.6650   25.0980  109.5420 C.ar  234  HIS234      0.1986
     99  NE2      135.4560   23.8440  109.1840 N.ar  234  HIS234     -0.2212
    100  N        131.2860   25.6530  114.0290 N.am  235  ASP235     -0.1960
    101  CA       129.8990   25.8100  114.4680 C.3   235  ASP235      0.1840
    102  C        129.0590   25.8000  113.2100 C.2   235  ASP235      0.2622
    103  O        129.2840   26.6190  112.3130 O.2   235  ASP235     -0.2715
    104  CB       129.6310   27.1150  115.2460 C.3   235  ASP235      0.1450
    105  CG       128.2310   27.1140  115.9730 C.2   235  ASP235      0.3671
    106  OD1      127.1390   26.9940  115.3320 O.co2 235  ASP235     -0.2456
    107  OD2      128.2130   27.2370  117.2140 O.co2 235  ASP235     -0.2456
    108  N        128.0630   24.9080  113.1750 N.am  236  LEU236     -0.1963
    109  CA       127.2050   24.7410  112.0010 C.3   236  LEU236      0.1728
    110  C        126.4450   26.0050  111.5850 C.2   236  LEU236      0.2616
    111  O        126.0380   26.1300  110.4220 O.2   236  LEU236     -0.2715
    112  CB       126.2000   23.5940  112.2280 C.3   236  LEU236      0.0311
    113  CG       126.7570   22.1720  112.3820 C.3   236  LEU236      0.0022
    114  CD1      125.5900   21.1810  112.5230 C.3   236  LEU236      0.0001
    115  CD2      127.6410   21.7900  111.2000 C.3   236  LEU236      0.0001
    116  N        126.2300   26.9270  112.5250 N.am  237  ALA237     -0.1977
    117  CA       125.5360   28.1630  112.2320 C.3   237  ALA237      0.1597
    118  C        126.3880   29.1760  111.4690 C.2   237  ALA237      0.2287
    119  O        125.8520   30.1230  110.9130 O.2   237  ALA237     -0.2864
    120  CB       125.0180   28.7890  113.5140 C.3   237  ALA237      0.0319
    121  N        122.3890   13.5930  111.3020 N.3   251  PHE251     -0.1227
    122  CA       121.7320   12.6300  112.1990 C.3   251  PHE251      0.1736
    123  C        121.4720   13.2020  113.6010 C.2   251  PHE251      0.2595
    124  O        122.3950   13.3370  114.4070 O.2   251  PHE251     -0.2718
    125  CB       122.5860   11.3710  112.3000 C.3   251  PHE251      0.0547
    126  CG       122.8110   10.6650  110.9740 C.ar  251  PHE251     -0.0202
    127  CD1      121.8230    9.8340  110.4250 C.ar  251  PHE251     -0.0042
    128  CD2      124.0310   10.7870  110.2980 C.ar  251  PHE251     -0.0042
    129  CE1      122.0460    9.1760  109.2170 C.ar  251  PHE251     -0.0003
    130  CE2      124.2510   10.1260  109.0930 C.ar  251  PHE251     -0.0003
    131  CZ       123.2610    9.3200  108.5540 C.ar  251  PHE251     -0.0000
    132  N        120.2090   13.5220  113.8600 N.am  252  ASP252     -0.1960
    133  CA       119.7170   14.0170  115.1370 C.3   252  ASP252      0.1840
    134  C        120.5390   15.2070  115.7050 C.2   252  ASP252      0.2621
    135  O        120.9570   15.1920  116.8570 O.2   252  ASP252     -0.2715
    136  CB       119.5750   12.8560  116.1310 C.3   252  ASP252      0.1450
    137  CG       118.4500   11.8620  115.7220 C.2   252  ASP252      0.3671
    138  OD1      117.2640   12.2370  115.7440 O.co2 252  ASP252     -0.2456
    139  OD2      118.7640   10.7080  115.3730 O.co2 252  ASP252     -0.2456
    140  N        120.7760   16.2160  114.8610 N.am  253  ALA253     -0.1977
    141  CA       121.4840   17.4520  115.2620 C.3   253  ALA253      0.1597
    142  C        120.7000   18.7290  115.0130 C.2   253  ALA253      0.2287
    143  O        120.9390   19.7200  115.6850 O.2   253  ALA253     -0.2864
    144  CB       122.8460   17.5260  114.5890 C.3   253  ALA253      0.0319
    145  N        118.2790   20.3830  118.1260 N.3   256  ASP256     -0.1225
    146  CA       118.9450   21.0470  119.2660 C.3   256  ASP256      0.1805
    147  C        119.8940   22.2230  118.9110 C.2   256  ASP256      0.2598
    148  O        120.6200   22.7210  119.7770 O.2   256  ASP256     -0.2718
    149  CB       119.6020   20.0470  120.2320 C.3   256  ASP256      0.1424
    150  CG       120.6240   19.1840  119.5880 C.2   256  ASP256      0.3668
    151  OD1      121.1430   19.5670  118.5260 O.co2 256  ASP256     -0.2456
    152  OD2      120.9100   18.1070  120.1600 O.co2 256  ASP256     -0.2456
    153  N        119.8510   22.6940  117.6680 N.am  257  GLN257     -0.1965
    154  CA       120.6290   23.8880  117.2820 C.3   257  GLN257      0.1733
    155  C        120.1320   25.1520  117.9590 C.2   257  GLN257      0.2616
    156  O        118.9240   25.3120  118.1910 O.2   257  GLN257     -0.2715
    157  CB       120.5370   24.1030  115.7680 C.3   257  GLN257      0.0408
    158  CG       121.2090   23.0140  114.9600 C.3   257  GLN257      0.0908
    159  CD       122.6670   22.8960  115.2880 C.2   257  GLN257      0.2608
    160  OE1      123.3840   23.8980  115.3320 O.2   257  GLN257     -0.2717
    161  NE2      123.1210   21.6790  115.5330 N.am  257  GLN257     -0.0878
    162  N        121.0550   26.0820  118.2340 N.am  258  ALA258     -0.1977
    163  CA       120.6760   27.4760  118.5630 C.3   258  ALA258      0.1597
    164  C        119.9470   28.1440  117.3960 C.2   258  ALA258      0.2287
    165  O        118.9540   28.8430  117.5900 O.2   258  ALA258     -0.2864
    166  CB       121.9270   28.3030  118.9130 C.3   258  ALA258      0.0319
    167  N        122.0110   29.0750  124.7380 N.3   314  LEU314     -0.1245
    168  CA       122.6770   29.9150  123.7540 C.3   314  LEU314      0.1561
    169  C        121.7660   31.0040  123.1780 C.2   314  LEU314      0.2260
    170  O        122.0630   31.5540  122.1220 O.2   314  LEU314     -0.2867
    171  CB       123.2160   29.0240  122.6300 C.3   314  LEU314      0.0270
    172  CG       124.2790   28.0030  123.0450 C.3   314  LEU314      0.0019
    173  CD1      124.5440   27.0200  121.9200 C.3   314  LEU314      0.0001
    174  CD2      125.5690   28.6960  123.4400 C.3   314  LEU314      0.0001
@<TRIPOS>BOND
     1    43    44    1
     2    44    47    1
     3    44    45    1
     4   131   130   ar
     5   131   129   ar
     6    47    48    1
     7    45    46    2
     8   130   128   ar
     9    99    98   ar
    10    99    97   ar
    11   129   127   ar
    12    98    96   ar
    13    49    48   ar
    14    48    50   ar
    15    97    95   ar
    16   128   126   ar
    17   111   110    2
    18   127   126   ar
    19    96    95   ar
    20    95    94    1
    21   119   118    2
    22   126   125    1
    23    35    34    2
    24   115   113    1
    25   121   122    1
    26   118   117    1
    27   110   109    1
    28   110   116   am
    29    94    91    1
    30   109   112    1
    31   109   108    1
    32    38    40   ar
    33    38    37   ar
    34    40    42   ar
    35   122   125    1
    36   122   123    1
    37    34    33    1
    38   112   113    1
    39   117   116    1
    40   117   120    1
    41    51    52    1
    42   103   102    2
    43   113   114    1
    44    33    36    1
    45    33    32    1
    46    59    60    1
    47    59    56    1
    48    36    37    1
    49    37    39   ar
    50    91    90    1
    51    91    92    1
    52    42    41   ar
    53   108   102   am
    54   102   101    1
    55    56    55    1
    56    56    57    1
    57    65    66    1
    58    55    53   am
    59   123   132   am
    60   123   124    2
    61    52    53    1
    62   132   133    1
    63    92   100   am
    64    92    93    2
    65    53    54    2
    66    39    41   ar
    67   100   101    1
    68   101   104    1
    69   144   141    1
    70    57    58    2
    71    57    61   am
    72    66    69    1
    73    66    67    1
    74   140   141    1
    75   140   134   am
    76   158   159    1
    77   158   157    1
    78   142   141    1
    79   142   143    2
    80   133   134    1
    81   133   136    1
    82   104   105    1
    83   159   160    2
    84   159   161   am
    85   106   105   ar
    86    68    67    2
    87   139   137   ar
    88    69    70    1
    89    67    73   am
    90   134   135    2
    91   137   138   ar
    92   137   136    1
    93   157   154    1
    94    61    62    1
    95    29    28    2
    96   105   107   ar
    97    64    63    2
    98    71    70   ar
    99    73    74    1
   100    70    72   ar
   101    28    27    1
   102    63    62    1
   103    30    27    1
   104    30    31    1
   105   154   153    1
   106   154   155    1
   107   164   165    2
   108   164   163    1
   109    74    77    1
   110    74    75    1
   111    27    26    1
   112    77    78    1
   113   153   147   am
   114   155   156    2
   115   155   162   am
   116   145   146    1
   117   162   163    1
   118    87    86    2
   119   151   150   ar
   120   163   166    1
   121    78    80   ar
   122    78    79   ar
   123    84    75   am
   124    84    85    1
   125    75    76    2
   126    80    82   ar
   127   147   146    1
   128   147   148    2
   129    79    81   ar
   130   146   149    1
   131    86    85    1
   132   150   152   ar
   133   150   149    1
   134    24    23    2
   135    82    83   ar
   136    85    88    1
   137    81    83   ar
   138    88    89    1
   139    16    15    2
   140    22    23    1
   141    22    25    1
   142    22    21    1
   143    15    21   am
   144    15    14    1
   145   173   172    1
   146    20    19    1
   147    12    11    1
   148   170   169    2
   149    17    14    1
   150    17    18    1
   151    14    13    1
   152   171   172    1
   153   171   168    1
   154    10    11   ar
   155    10     8   ar
   156    11     9   ar
   157    18    19    1
   158   172   174    1
   159   169   168    1
   160     8     6   ar
   161     9     7   ar
   162   168   167    1
   163     6     7   ar
   164     6     5    1
   165     5     2    1
   166     2     1    1
   167     2     3    1
   168     3     4    2
