@<TRIPOS>MOLECULE
tmp/5f8nA00.pdb
 101 98 0 0 0
SMALL
GASTEIGER

@<TRIPOS>ATOM
      1  N          1.6620    2.1770  -13.9020 N.3   163  ARG163     -0.1245
      2  CA         1.4000    1.1810  -12.8760 C.3   163  ARG163      0.1563
      3  C         -0.0760    1.3230  -12.5120 C.2   163  ARG163      0.2260
      4  O         -0.6270    2.4130  -12.6230 O.2   163  ARG163     -0.2867
      5  CB         2.3200    1.3920  -11.6560 C.3   163  ARG163      0.0307
      6  CG         3.0130    0.1450  -11.1310 C.3   163  ARG163      0.0489
      7  CD         4.2870   -0.2440  -11.8880 C.3   163  ARG163      0.2205
      8  NE         4.8270   -1.5330  -11.4270 N.pl3 163  ARG163     -0.0865
      9  CZ         4.4610   -2.7170  -11.9210 C.cat 163  ARG163      0.5346
     10  NH1        5.0060   -3.8370  -11.4580 N.pl3 163  ARG163      0.1354
     11  NH2        3.5790   -2.7760  -12.9160 N.pl3 163  ARG163      0.1354
     12  N         -1.1130   -0.1950   -6.8980 N.3   167  LYS167     -0.1245
     13  CA         0.3070   -0.2690   -6.5940 C.3   167  LYS167      0.1561
     14  C          0.8920    1.1210   -6.3990 C.2   167  LYS167      0.2260
     15  O          2.0020    1.2770   -5.8920 O.2   167  LYS167     -0.2867
     16  CB         1.0330   -1.0340   -7.7070 C.3   167  LYS167      0.0271
     17  CG         0.2360   -2.2370   -8.1940 C.3   167  LYS167      0.0035
     18  CD         1.1350   -3.3070   -8.7670 C.3   167  LYS167      0.0206
     19  CE         0.4230   -4.0420   -9.9400 C.3   167  LYS167      0.1093
     20  NZ         1.1110   -4.0580  -11.3020 N.3   167  LYS167     -0.1314
     21  N          4.1540    0.4640   -4.4560 N.3   172  LYS172     -0.1231
     22  CA         4.9090   -0.6640   -4.9840 C.3   172  LYS172      0.1693
     23  C          5.3660   -0.4350   -6.4270 C.2   172  LYS172      0.2593
     24  O          4.8970   -1.0700   -7.3680 O.2   172  LYS172     -0.2718
     25  CB         4.0850   -1.9420   -4.8460 C.3   172  LYS172      0.0285
     26  CG         4.4360   -2.6810   -3.5430 C.3   172  LYS172      0.0035
     27  CD         3.4090   -3.6910   -3.0740 C.3   172  LYS172      0.0206
     28  CE         3.9180   -4.3660   -1.7960 C.3   172  LYS172      0.1093
     29  NZ         4.2170   -3.3620   -0.7280 N.3   172  LYS172     -0.1314
     30  N          6.2860    0.5130   -6.5750 N.am  173  SER173     -0.1938
     31  CA         7.0350    0.7080   -7.8020 C.3   173  SER173      0.2055
     32  C          8.1230   -0.3490   -7.8880 C.2   173  SER173      0.2642
     33  O          8.3610   -1.0850   -6.9200 O.2   173  SER173     -0.2714
     34  CB         7.6430    2.1090   -7.8450 C.3   173  SER173      0.2130
     35  OG         6.6760    3.0780   -7.5170 O.3   173  SER173     -0.2179
     36  N          8.7730   -0.4430   -9.0410 N.am  174  ARG174     -0.1977
     37  CA         9.8280   -1.4320   -9.2090 C.3   174  ARG174      0.1597
     38  C         11.1830   -0.7600   -9.1370 C.2   174  ARG174      0.2287
     39  O         11.3240    0.4060   -9.4940 O.2   174  ARG174     -0.2864
     40  CB         9.6640   -2.2040  -10.5320 C.3   174  ARG174      0.0334
     41  CG         8.2720   -2.7180  -10.7730 C.3   174  ARG174      0.0492
     42  CD         8.2290   -3.8060  -11.8340 C.3   174  ARG174      0.2205
     43  NE         8.0910   -3.2750  -13.1890 N.pl3 174  ARG174     -0.0865
     44  CZ         7.9560   -4.0210  -14.2820 C.cat 174  ARG174      0.5346
     45  NH1        7.8380   -3.4430  -15.4680 N.pl3 174  ARG174      0.1354
     46  NH2        7.9440   -5.3420  -14.1910 N.pl3 174  ARG174      0.1354
     47  N          4.2750  -15.9470  -10.2420 N.3   234  TYR234     -0.1227
     48  CA         5.0960  -15.6420   -9.0630 C.3   234  TYR234      0.1736
     49  C          4.9000  -14.2060   -8.5570 C.2   234  TYR234      0.2596
     50  O          4.8000  -13.2750   -9.3480 O.2   234  TYR234     -0.2718
     51  CB         6.5860  -15.8300   -9.3540 C.3   234  TYR234      0.0548
     52  CG         7.0800  -17.2420   -9.5980 C.ar  234  TYR234     -0.0200
     53  CD1        7.4560  -18.0720   -8.5480 C.ar  234  TYR234     -0.0009
     54  CD2        7.2280  -17.7190  -10.8950 C.ar  234  TYR234     -0.0009
     55  CE1        7.9420  -19.3590   -8.7910 C.ar  234  TYR234      0.0417
     56  CE2        7.7140  -18.9750  -11.1500 C.ar  234  TYR234      0.0417
     57  CZ         8.0670  -19.7850  -10.1030 C.ar  234  TYR234      0.1957
     58  OH         8.5440  -21.0230  -10.3960 O.3   234  TYR234     -0.2866
     59  N          4.8960  -14.0370   -7.2390 N.am  235  SER235     -0.1938
     60  CA         4.9600  -12.7210   -6.6290 C.3   235  SER235      0.2055
     61  C          6.3800  -12.4590   -6.1700 C.2   235  SER235      0.2644
     62  O          6.9350  -13.2290   -5.3890 O.2   235  SER235     -0.2714
     63  CB         3.9990  -12.6230   -5.4530 C.3   235  SER235      0.2130
     64  OG         2.7350  -13.1500   -5.8130 O.3   235  SER235     -0.2179
     65  N          6.9640  -11.3740   -6.6640 N.am  236  GLY236     -0.1939
     66  CA         8.3120  -10.9770   -6.2960 C.3   236  GLY236      0.2014
     67  C          9.3920  -11.9930   -6.5940 C.2   236  GLY236      0.2639
     68  O         10.3370  -12.1240   -5.8190 O.2   236  GLY236     -0.2714
     69  N          9.2460  -12.6850   -7.7240 N.am  237  TYR237     -0.1959
     70  CA        10.1500  -13.7580   -8.1470 C.3   237  TYR237      0.1771
     71  C         11.6300  -13.4960   -7.8780 C.2   237  TYR237      0.2620
     72  O         12.2550  -14.2190   -7.0980 O.2   237  TYR237     -0.2715
     73  CB         9.9800  -14.0400   -9.6410 C.3   237  TYR237      0.0574
     74  CG        10.8300  -15.1980  -10.1500 C.ar  237  TYR237     -0.0198
     75  CD1       10.3940  -16.5230  -10.0150 C.ar  237  TYR237     -0.0009
     76  CD2       12.0560  -14.9710  -10.7720 C.ar  237  TYR237     -0.0009
     77  CE1       11.1570  -17.5900  -10.4900 C.ar  237  TYR237      0.0417
     78  CE2       12.8350  -16.0270  -11.2310 C.ar  237  TYR237      0.0417
     79  CZ        12.3780  -17.3400  -11.0970 C.ar  237  TYR237      0.1957
     80  OH        13.1450  -18.4020  -11.5570 O.3   237  TYR237     -0.2866
     81  N         12.1860  -12.4810   -8.5390 N.am  238  ASP238     -0.1957
     82  CA        13.6260  -12.2280   -8.4820 C.3   238  ASP238      0.1840
     83  C         14.0650  -12.0480   -7.0150 C.2   238  ASP238      0.2621
     84  O         15.0440  -12.6600   -6.5600 O.2   238  ASP238     -0.2715
     85  CB        14.0100  -10.9920   -9.3250 C.3   238  ASP238      0.1450
     86  CG        13.6230  -11.1230  -10.8470 C.2   238  ASP238      0.3671
     87  OD1       12.6740  -11.8590  -11.1990 O.co2 238  ASP238     -0.2456
     88  OD2       14.2500  -10.4450  -11.7010 O.co2 238  ASP238     -0.2456
     89  N         13.3180  -11.2380   -6.2690 N.am  239  ALA239     -0.1977
     90  CA        13.6970  -10.9410   -4.8940 C.3   239  ALA239      0.1597
     91  C         13.3780  -12.0920   -3.9360 C.2   239  ALA239      0.2287
     92  O         13.9810  -12.1790   -2.8720 O.2   239  ALA239     -0.2864
     93  CB        13.0140   -9.6410   -4.4120 C.3   239  ALA239      0.0319
     94  N         10.3720  -15.3300  -14.8620 N.3   329  ASP329     -0.1239
     95  CA         9.4270  -16.0240  -13.9850 C.3   329  ASP329      0.1674
     96  C          8.1860  -16.5010  -14.7170 C.2   329  ASP329      0.2266
     97  O          7.4130  -17.3010  -14.1900 O.2   329  ASP329     -0.2867
     98  CB         8.9900  -15.1300  -12.8290 C.3   329  ASP329      0.1410
     99  CG         8.2630  -13.8690  -13.2950 C.2   329  ASP329      0.3668
    100  OD1        8.6270  -13.3210  -14.3600 O.co2 329  ASP329     -0.2456
    101  OD2        7.3350  -13.4340  -12.5840 O.co2 329  ASP329     -0.2456
@<TRIPOS>BOND
     1    45    44    1
     2    94    95    1
     3    96    97    2
     4    96    95    1
     5   100    99   ar
     6    44    46    1
     7    44    43    2
     8    95    98    1
     9     1     2    1
    10    99    98    1
    11    99   101   ar
    12    43    42    1
    13    11     9    1
    14     2     3    1
    15     2     5    1
    16     4     3    2
    17     9    10    1
    18     9     8    2
    19     7     8    1
    20     7     6    1
    21    42    41    1
    22    88    86   ar
    23     5     6    1
    24    80    79    1
    25    20    19    1
    26    78    79   ar
    27    78    76   ar
    28    87    86   ar
    29    56    54   ar
    30    56    57   ar
    31    79    77   ar
    32    54    52   ar
    33    86    85    1
    34    41    40    1
    35    76    74   ar
    36    40    37    1
    37    77    75   ar
    38    58    57    1
    39    47    48    1
    40    74    75   ar
    41    74    73    1
    42    57    55   ar
    43    19    18    1
    44    73    70    1
    45    52    51    1
    46    52    53   ar
    47    39    38    2
    48    51    48    1
    49    50    49    2
    50    85    82    1
    51    37    38    1
    52    37    36    1
    53    48    49    1
    54    36    32   am
    55    55    53   ar
    56    18    17    1
    57    49    59   am
    58    81    82    1
    59    81    71   am
    60    82    83    1
    61    17    16    1
    62    70    71    1
    63    70    69    1
    64    32    31    1
    65    32    33    2
    66    71    72    2
    67    34    31    1
    68    34    35    1
    69    31    30    1
    70    69    67   am
    71    16    13    1
    72    24    23    2
    73    59    60    1
    74    83    84    2
    75    83    89   am
    76    12    13    1
    77    65    66    1
    78    65    61   am
    79    60    61    1
    80    60    63    1
    81    13    14    1
    82    67    66    1
    83    67    68    2
    84    30    23   am
    85    23    22    1
    86    14    15    2
    87    89    90    1
    88    61    62    2
    89    64    63    1
    90    22    25    1
    91    22    21    1
    92    90    93    1
    93    90    91    1
    94    25    26    1
    95    91    92    2
    96    26    27    1
    97    27    28    1
    98    28    29    1
