@<TRIPOS>MOLECULE
tmp/5f8pA00.pdb
 152 152 0 0 0
SMALL
GASTEIGER

@<TRIPOS>ATOM
      1  N        -26.5660  -16.9400  -37.2050 N.3    57  VAL57      -0.1245
      2  CA       -25.1870  -16.5510  -37.3840 C.3    57  VAL57       0.1561
      3  C        -24.6560  -16.8330  -38.7800 C.2    57  VAL57       0.2260
      4  O        -25.3460  -17.3900  -39.6220 O.2    57  VAL57      -0.2867
      5  CB       -24.3150  -17.2800  -36.4370 C.3    57  VAL57       0.0252
      6  CG1      -24.8230  -17.0410  -35.0300 C.3    57  VAL57       0.0019
      7  CG2      -24.3300  -18.7710  -36.7810 C.3    57  VAL57       0.0019
      8  N        -21.1440  -18.3700  -40.6080 N.3    59  ILE59      -0.1245
      9  CA       -19.9550  -19.1750  -40.3820 C.3    59  ILE59       0.1561
     10  C        -19.4820  -19.7550  -41.7030 C.2    59  ILE59       0.2260
     11  O        -20.1950  -20.5490  -42.3270 O.2    59  ILE59      -0.2867
     12  CB       -20.2680  -20.3500  -39.5050 C.3    59  ILE59       0.0252
     13  CG1      -20.6330  -19.8830  -38.1120 C.3    59  ILE59       0.0019
     14  CG2      -19.0870  -21.2940  -39.4440 C.3    59  ILE59       0.0019
     15  CD1      -21.2890  -20.9750  -37.3300 C.3    59  ILE59       0.0001
     16  N        -26.4030  -19.9430  -40.6160 N.3    64  LEU64      -0.1231
     17  CA       -26.8930  -21.0520  -39.8250 C.3    64  LEU64       0.1693
     18  C        -27.6950  -20.5790  -38.6360 C.2    64  LEU64       0.2592
     19  O        -27.2860  -19.6520  -37.9350 O.2    64  LEU64      -0.2718
     20  CB       -25.7280  -21.8950  -39.2920 C.3    64  LEU64       0.0284
     21  CG       -24.7620  -22.5300  -40.3140 C.3    64  LEU64       0.0019
     22  CD1      -23.5650  -23.1190  -39.6280 C.3    64  LEU64       0.0001
     23  CD2      -25.4530  -23.5950  -41.1280 C.3    64  LEU64       0.0001
     24  N        -28.8130  -21.2590  -38.3870 N.am   65  LEU65      -0.1966
     25  CA       -29.6330  -21.0060  -37.2160 C.3    65  LEU65       0.1728
     26  C        -29.2570  -21.9370  -36.0670 C.2    65  LEU65       0.2617
     27  O        -29.4660  -23.1410  -36.1500 O.2    65  LEU65      -0.2715
     28  CB       -31.1120  -21.1920  -37.5880 C.3    65  LEU65       0.0311
     29  CG       -32.1500  -20.8220  -36.5310 C.3    65  LEU65       0.0022
     30  CD1      -31.9660  -19.3750  -36.0650 C.3    65  LEU65       0.0001
     31  CD2      -33.5780  -21.0410  -37.0730 C.3    65  LEU65       0.0001
     32  N        -28.7240  -21.3810  -34.9870 N.am   66  THR66      -0.1937
     33  CA       -28.2090  -22.1830  -33.8860 C.3    66  THR66       0.2013
     34  C        -29.3090  -23.0430  -33.2480 C.2    66  THR66       0.2484
     35  O        -30.3510  -22.5230  -32.8990 O.2    66  THR66      -0.2729
     36  CB       -27.6550  -21.2750  -32.7810 C.3    66  THR66       0.1807
     37  OG1      -28.7280  -20.4600  -32.2770 O.3    66  THR66      -0.2208
     38  CG2      -26.5700  -20.3770  -33.3330 C.3    66  THR66       0.0379
     39  N        -29.0560  -24.3560  -33.0810 N.am   67  PRO67      -0.2715
     40  CA       -29.9880  -25.2740  -32.4060 C.3    67  PRO67       0.1536
     41  C        -30.3640  -24.7950  -31.0130 C.2    67  PRO67       0.2598
     42  O        -31.4740  -24.9490  -30.5790 O.2    67  PRO67      -0.2715
     43  CB       -29.1650  -26.5730  -32.2840 C.3    67  PRO67       0.0310
     44  CG       -28.2700  -26.5400  -33.4590 C.3    67  PRO67       0.0237
     45  CD       -27.8920  -25.0750  -33.6320 C.3    67  PRO67       0.0939
     46  N        -29.3920  -24.2600  -30.3120 N.am   68  VAL68      -0.1978
     47  CA       -29.5650  -23.7940  -28.9510 C.3    68  VAL68       0.1596
     48  C        -30.1270  -22.3650  -28.9950 C.2    68  VAL68       0.2287
     49  O        -29.7210  -21.5510  -29.8390 O.2    68  VAL68      -0.2864
     50  CB       -28.1840  -23.7730  -28.2360 C.3    68  VAL68       0.0276
     51  CG1      -28.3040  -23.2380  -26.8340 C.3    68  VAL68       0.0022
     52  CG2      -27.5340  -25.2050  -28.2150 C.3    68  VAL68       0.0022
     53  N        -30.7270  -18.7360  -26.6930 N.3    70  ARG70      -0.1245
     54  CA       -29.8550  -18.1040  -25.7080 C.3    70  ARG70       0.1563
     55  C        -30.2180  -16.6430  -25.3760 C.2    70  ARG70       0.2260
     56  O        -30.9570  -15.9760  -26.1090 O.2    70  ARG70      -0.2867
     57  CB       -28.3870  -18.2600  -26.1340 C.3    70  ARG70       0.0307
     58  CG       -27.9950  -17.4610  -27.3810 C.3    70  ARG70       0.0489
     59  CD       -26.5840  -17.8780  -27.8860 C.3    70  ARG70       0.2205
     60  NE       -26.5410  -19.1860  -28.5380 N.pl3  70  ARG70      -0.0865
     61  CZ       -25.9580  -20.2840  -28.0380 C.cat  70  ARG70       0.5346
     62  NH1      -25.3450  -20.3040  -26.8400 N.pl3  70  ARG70       0.1354
     63  NH2      -25.9920  -21.3980  -28.7560 N.pl3  70  ARG70       0.1354
     64  N        -20.0300  -13.9900  -30.2840 N.3    82  TYR82      -0.1227
     65  CA       -20.2940  -15.4250  -30.2430 C.3    82  TYR82       0.1736
     66  C        -20.6210  -15.7740  -31.6840 C.2    82  TYR82       0.2595
     67  O        -21.6770  -15.3640  -32.1820 O.2    82  TYR82      -0.2718
     68  CB       -21.5250  -15.6870  -29.3730 C.3    82  TYR82       0.0548
     69  CG       -21.8540  -17.1390  -29.1530 C.ar   82  TYR82      -0.0200
     70  CD1      -21.1440  -17.8900  -28.2140 C.ar   82  TYR82      -0.0009
     71  CD2      -22.8820  -17.7630  -29.8580 C.ar   82  TYR82      -0.0009
     72  CE1      -21.4370  -19.2250  -27.9850 C.ar   82  TYR82       0.0417
     73  CE2      -23.1870  -19.1150  -29.6380 C.ar   82  TYR82       0.0417
     74  CZ       -22.4510  -19.8330  -28.6990 C.ar   82  TYR82       0.1957
     75  OH       -22.7100  -21.1550  -28.4580 O.3    82  TYR82      -0.2866
     76  N        -19.7080  -16.4810  -32.3580 N.am   83  LEU83      -0.1980
     77  CA       -19.8990  -16.9230  -33.7480 C.3    83  LEU83       0.1596
     78  C        -20.1560  -15.7740  -34.7080 C.2    83  LEU83       0.2287
     79  O        -21.0700  -15.8510  -35.5440 O.2    83  LEU83      -0.2864
     80  CB       -21.0710  -17.9240  -33.8570 C.3    83  LEU83       0.0297
     81  CG       -21.0480  -19.2170  -33.0380 C.3    83  LEU83       0.0022
     82  CD1      -22.3690  -20.0120  -33.2040 C.3    83  LEU83       0.0001
     83  CD2      -19.8220  -20.0720  -33.3780 C.3    83  LEU83       0.0001
     84  N        -25.5500  -31.6900  -28.5570 N.3   168  ALA168     -0.1231
     85  CA       -26.2900  -30.4650  -28.6190 C.3   168  ALA168      0.1694
     86  C        -25.3890  -29.3790  -29.2420 C.2   168  ALA168      0.2592
     87  O        -25.8240  -28.6390  -30.1260 O.2   168  ALA168     -0.2718
     88  CB       -26.6970  -30.0740  -27.2160 C.3   168  ALA168      0.0304
     89  N        -24.1430  -29.2890  -28.7470 N.am  169  VAL169     -0.1966
     90  CA       -23.1120  -28.3610  -29.2300 C.3   169  VAL169      0.1727
     91  C        -21.8520  -29.1920  -29.4730 C.2   169  VAL169      0.2617
     92  O        -21.4130  -29.8920  -28.5720 O.2   169  VAL169     -0.2715
     93  CB       -22.7990  -27.2970  -28.1840 C.3   169  VAL169      0.0290
     94  CG1      -21.8400  -26.1950  -28.7460 C.3   169  VAL169      0.0023
     95  CG2      -24.0860  -26.6650  -27.6850 C.3   169  VAL169      0.0023
     96  N        -21.2880  -29.1590  -30.6800 N.am  170  SER170     -0.1936
     97  CA       -20.0740  -29.9260  -30.9210 C.3   170  SER170      0.2055
     98  C        -18.8470  -29.2440  -30.3030 C.2   170  SER170      0.2643
     99  O        -18.9560  -28.2290  -29.6560 O.2   170  SER170     -0.2714
    100  CB       -19.8550  -30.1940  -32.4170 C.3   170  SER170      0.2130
    101  OG       -20.0840  -29.0000  -33.1420 O.3   170  SER170     -0.2179
    102  N        -17.6940  -29.8360  -30.5350 N.am  171  TRP171     -0.1959
    103  CA       -16.4440  -29.4350  -29.9180 C.3   171  TRP171      0.1771
    104  C        -16.0390  -27.9930  -30.1970 C.2   171  TRP171      0.2620
    105  O        -15.9650  -27.5860  -31.3410 O.2   171  TRP171     -0.2715
    106  CB       -15.3670  -30.3530  -30.4210 C.3   171  TRP171      0.0590
    107  CG       -15.5950  -31.8150  -30.0410 C.ar  171  TRP171      0.0006
    108  CD1      -15.9220  -32.8510  -30.8720 C.ar  171  TRP171      0.0946
    109  CD2      -15.4680  -32.3760  -28.7330 C.ar  171  TRP171      0.0152
    110  NE1      -16.0050  -34.0310  -30.1550 N.ar  171  TRP171     -0.2442
    111  CE2      -15.7490  -33.7610  -28.8370 C.ar  171  TRP171      0.0810
    112  CE3      -15.1510  -31.8390  -27.4750 C.ar  171  TRP171      0.0012
    113  CZ2      -15.7180  -34.6120  -27.7350 C.ar  171  TRP171      0.0191
    114  CZ3      -15.1060  -32.7050  -26.3760 C.ar  171  TRP171      0.0001
    115  CH2      -15.3890  -34.0580  -26.5140 C.ar  171  TRP171      0.0015
    116  N        -15.7250  -27.2380  -29.1500 N.am  172  HIS172     -0.1959
    117  CA       -15.1520  -25.8980  -29.3370 C.3   172  HIS172      0.1787
    118  C        -14.4820  -25.4330  -28.0750 C.2   172  HIS172      0.2620
    119  O        -14.5380  -26.1110  -27.0650 O.2   172  HIS172     -0.2715
    120  CB       -16.2790  -24.8820  -29.6870 C.3   172  HIS172      0.0785
    121  CG       -17.2850  -24.7220  -28.5970 C.ar  172  HIS172      0.0821
    122  ND1      -18.1300  -25.7450  -28.2120 N.ar  172  HIS172     -0.2267
    123  CD2      -17.5710  -23.6760  -27.7880 C.ar  172  HIS172      0.1154
    124  CE1      -18.8900  -25.3360  -27.2130 C.ar  172  HIS172      0.1986
    125  NE2      -18.5700  -24.0860  -26.9380 N.ar  172  HIS172     -0.2212
    126  N        -13.8920  -24.2350  -28.1550 N.am  173  HIS173     -0.1959
    127  CA       -13.4850  -23.4210  -27.0140 C.3   173  HIS173      0.1787
    128  C        -14.4830  -22.2830  -26.8200 C.2   173  HIS173      0.2620
    129  O        -15.1000  -21.8290  -27.7730 O.2   173  HIS173     -0.2715
    130  CB       -12.0990  -22.7910  -27.2760 C.3   173  HIS173      0.0785
    131  CG       -11.0560  -23.7770  -27.7320 C.ar  173  HIS173      0.0821
    132  ND1      -10.3090  -24.5270  -26.8550 N.ar  173  HIS173     -0.2267
    133  CD2      -10.6520  -24.1420  -28.9720 C.ar  173  HIS173      0.1154
    134  CE1       -9.4840  -25.3060  -27.5270 C.ar  173  HIS173      0.1986
    135  NE2       -9.6780  -25.0960  -28.8170 N.ar  173  HIS173     -0.2212
    136  N        -14.6030  -21.7840  -25.5970 N.am  174  ASP174     -0.1957
    137  CA       -15.3190  -20.5370  -25.3840 C.3   174  ASP174      0.1840
    138  C        -14.3870  -19.3860  -25.7720 C.2   174  ASP174      0.2621
    139  O        -13.3080  -19.2250  -25.2200 O.2   174  ASP174     -0.2715
    140  CB       -15.7590  -20.3860  -23.9430 C.3   174  ASP174      0.1450
    141  CG       -16.8930  -21.3190  -23.5880 C.2   174  ASP174      0.3671
    142  OD1      -17.3840  -22.0310  -24.4870 O.co2 174  ASP174     -0.2456
    143  OD2      -17.2590  -21.3580  -22.4000 O.co2 174  ASP174     -0.2456
    144  N        -14.8060  -18.6100  -26.7550 N.am  175  GLU175     -0.1977
    145  CA       -13.9010  -17.6680  -27.3610 C.3   175  GLU175      0.1602
    146  C        -14.1190  -16.2810  -26.7660 C.2   175  GLU175      0.2287
    147  O        -15.0990  -16.0660  -26.0320 O.2   175  GLU175     -0.2864
    148  CB       -14.0810  -17.6670  -28.8800 C.3   175  GLU175      0.0415
    149  CG       -13.6980  -19.0050  -29.5130 C.3   175  GLU175      0.1163
    150  CD       -13.8720  -19.0370  -31.0210 C.2   175  GLU175      0.3649
    151  OE1      -13.9680  -17.9560  -31.6410 O.co2 175  GLU175     -0.2457
    152  OE2      -13.9250  -20.1500  -31.5890 O.co2 175  GLU175     -0.2457
@<TRIPOS>BOND
     1    11    10    2
     2    10     9    1
     3    23    21    1
     4    16    17    1
     5     8     9    1
     6     9    12    1
     7    21    22    1
     8    21    20    1
     9    17    20    1
    10    17    18    1
    11     4     3    2
    12    12    14    1
    13    12    13    1
    14     3     2    1
    15    18    24   am
    16    18    19    2
    17    24    25    1
    18    13    15    1
    19    28    25    1
    20    28    29    1
    21     2     1    1
    22     2     5    1
    23    25    26    1
    24    31    29    1
    25     7     5    1
    26    29    30    1
    27     5     6    1
    28    27    26    2
    29    26    32   am
    30    79    78    2
    31    32    33    1
    32    78    77    1
    33    33    34    1
    34    33    36    1
    35    80    77    1
    36    80    81    1
    37    77    76    1
    38    45    44    1
    39    45    39    1
    40    44    43    1
    41    83    81    1
    42    38    36    1
    43    34    39   am
    44    34    35    2
    45    82    81    1
    46   101   100    1
    47    39    40    1
    48    36    37    1
    49   100    97    1
    50    40    43    1
    51    40    41    1
    52    76    66   am
    53    67    66    2
    54    66    65    1
    55   151   150   ar
    56   152   150   ar
    57   105   104    2
    58   150   149    1
    59    41    42    2
    60    41    46   am
    61    97    96    1
    62    97    98    1
    63   108   110   ar
    64   108   107   ar
    65    96    91   am
    66   102    98   am
    67   102   103    1
    68   106   107    1
    69   106   103    1
    70    46    47    1
    71    98    99    2
    72    64    65    1
    73    65    68    1
    74   104   103    1
    75   104   116   am
    76   110   111   ar
    77    87    86    2
    78   107   109   ar
    79    71    73   ar
    80    71    69   ar
    81    49    48    2
    82   120   117    1
    83   120   121    1
    84    73    74   ar
    85   149   148    1
    86    91    90    1
    87    91    92    2
    88    68    69    1
    89   117   116    1
    90   117   118    1
    91    86    89   am
    92    86    85    1
    93    90    89    1
    94    90    93    1
    95    69    70   ar
    96    48    47    1
    97   133   135   ar
    98   133   131   ar
    99    47    50    1
   100   148   145    1
   101   111   109   ar
   102   111   113   ar
   103   135   134   ar
   104    63    61    1
   105    94    93    1
   106   109   112   ar
   107    74    75    1
   108    74    72   ar
   109    85    84    1
   110    85    88    1
   111   121   122   ar
   112   121   123   ar
   113    60    61    2
   114    60    59    1
   115    50    52    1
   116    50    51    1
   117    70    72   ar
   118   122   124   ar
   119    93    95    1
   120   126   118   am
   121   126   127    1
   122   118   119    2
   123    61    62    1
   124    59    58    1
   125   123   125   ar
   126   129   128    2
   127   113   115   ar
   128   131   130    1
   129   131   132   ar
   130   134   132   ar
   131   112   114   ar
   132    58    57    1
   133   145   146    1
   134   145   144    1
   135   130   127    1
   136   124   125   ar
   137   127   128    1
   138   128   136   am
   139   146   147    2
   140   144   138   am
   141    53    54    1
   142   115   114   ar
   143    57    54    1
   144    56    55    2
   145   138   137    1
   146   138   139    2
   147    54    55    1
   148   136   137    1
   149   137   140    1
   150   142   141   ar
   151   140   141    1
   152   141   143   ar
