@<TRIPOS>MOLECULE
tmp/5f8wA01.pdb
 91 89 0 0 0
SMALL
GASTEIGER

@<TRIPOS>ATOM
      1  N          8.0270   -9.7830  -33.2370 N.3    15  HIS15      -0.1227
      2  CA         7.0210   -8.9220  -33.8680 C.3    15  HIS15       0.1737
      3  C          5.6340   -9.3110  -33.3540 C.2    15  HIS15       0.2438
      4  O          5.3830  -10.4820  -33.1290 O.2    15  HIS15      -0.2733
      5  CB         6.9140   -9.2090  -35.3760 C.3    15  HIS15       0.0758
      6  CG         8.0180   -8.6750  -36.2390 C.ar   15  HIS15       0.0818
      7  ND1        7.7700   -7.8260  -37.2950 N.ar   15  HIS15      -0.2268
      8  CD2        9.3480   -8.9260  -36.2650 C.ar   15  HIS15       0.1154
      9  CE1        8.9000   -7.5650  -37.9230 C.ar   15  HIS15       0.1986
     10  NE2        9.8740   -8.2190  -37.3150 N.ar   15  HIS15      -0.2212
     11  N          4.6910   -8.3590  -33.3110 N.am   16  PRO16      -0.2718
     12  CA         3.2960   -8.8020  -33.3130 C.3    16  PRO16       0.1535
     13  C          2.9780   -9.4180  -34.6650 C.2    16  PRO16       0.2599
     14  O          3.4080   -8.8760  -35.6950 O.2    16  PRO16      -0.2715
     15  CB         2.5200   -7.4940  -33.1200 C.3    16  PRO16       0.0310
     16  CG         3.4080   -6.4300  -33.6770 C.3    16  PRO16       0.0237
     17  CD         4.8270   -6.9030  -33.5290 C.3    16  PRO16       0.0939
     18  N          2.2280  -10.5150  -34.6720 N.am   17  TYR17      -0.1960
     19  CA         1.8480  -11.1550  -35.9320 C.3    17  TYR17       0.1771
     20  C          1.0530  -10.1660  -36.7610 C.2    17  TYR17       0.2620
     21  O          0.0740   -9.6150  -36.2780 O.2    17  TYR17      -0.2715
     22  CB         1.0160  -12.3950  -35.6460 C.3    17  TYR17       0.0574
     23  CG         0.5680  -13.1330  -36.8760 C.ar   17  TYR17      -0.0198
     24  CD1        1.4900  -13.6200  -37.7930 C.ar   17  TYR17      -0.0009
     25  CD2       -0.7730  -13.3350  -37.1250 C.ar   17  TYR17      -0.0009
     26  CE1        1.0790  -14.2950  -38.9250 C.ar   17  TYR17       0.0417
     27  CE2       -1.1910  -14.0000  -38.2560 C.ar   17  TYR17       0.0417
     28  CZ        -0.2620  -14.4780  -39.1540 C.ar   17  TYR17       0.1957
     29  OH        -0.6860  -15.1580  -40.2860 O.3    17  TYR17      -0.2866
     30  N          1.5150   -9.8970  -37.9840 N.am   18  GLY18      -0.1940
     31  CA         0.8910   -8.9240  -38.8520 C.3    18  GLY18       0.2014
     32  C          1.5210   -7.5370  -38.7890 C.2    18  GLY18       0.2639
     33  O          1.2850   -6.7020  -39.6690 O.2    18  GLY18      -0.2714
     34  N          2.3300   -7.2790  -37.7630 N.am   19  GLY19      -0.1954
     35  CA         3.0710   -6.0210  -37.7000 C.3    19  GLY19       0.1869
     36  C          2.2660   -4.7620  -37.4300 C.2    19  GLY19       0.2309
     37  O          2.7030   -3.6710  -37.7550 O.2    19  GLY19      -0.2863
     38  N          5.4610  -13.2850  -32.7610 N.3    30  VAL30      -0.1245
     39  CA         6.1490  -14.2020  -33.6810 C.3    30  VAL30       0.1561
     40  C          7.5660  -13.7050  -33.9340 C.2    30  VAL30       0.2260
     41  O          7.9240  -12.5890  -33.5380 O.2    30  VAL30      -0.2867
     42  CB         5.3900  -14.3520  -35.0200 C.3    30  VAL30       0.0252
     43  CG1        3.9880  -14.8800  -34.7680 C.3    30  VAL30       0.0019
     44  CG2        5.3580  -13.0300  -35.7800 C.3    30  VAL30       0.0019
     45  N         10.2250  -12.7160  -36.9550 N.3    32  HIS32      -0.1241
     46  CA        10.2110  -12.2690  -38.3500 C.3    32  HIS32       0.1621
     47  C         11.4630  -11.4390  -38.6210 C.2    32  HIS32       0.2264
     48  O         11.9380  -10.7020  -37.7460 O.2    32  HIS32      -0.2867
     49  CB         8.9250  -11.4630  -38.6300 C.3    32  HIS32       0.0745
     50  CG         8.5810  -11.3200  -40.0780 C.ar   32  HIS32       0.0817
     51  ND1        9.2720  -10.4960  -40.9390 N.ar   32  HIS32      -0.2268
     52  CD2        7.5890  -11.8810  -40.8120 C.ar   32  HIS32       0.1154
     53  CE1        8.7380  -10.5720  -42.1470 C.ar   32  HIS32       0.1986
     54  NE2        7.7050  -11.3930  -42.0930 N.ar   32  HIS32      -0.2212
     55  N         11.9240   -8.9120  -40.7180 N.3    34  ASP34      -0.1239
     56  CA        11.7690   -7.4860  -41.0300 C.3    34  ASP34       0.1674
     57  C         12.0950   -6.5950  -39.8360 C.2    34  ASP34       0.2266
     58  O         11.8740   -6.9720  -38.6700 O.2    34  ASP34      -0.2867
     59  CB        10.3390   -7.1590  -41.4660 C.3    34  ASP34       0.1410
     60  CG        10.0330   -7.5300  -42.9050 C.2    34  ASP34       0.3668
     61  OD1       10.9190   -7.9690  -43.6670 O.co2  34  ASP34      -0.2456
     62  OD2        8.8590   -7.3420  -43.2830 O.co2  34  ASP34      -0.2456
     63  N         11.0930   -2.6640  -38.6320 N.3    36  HIS36      -0.1241
     64  CA        10.2670   -1.4670  -38.7810 C.3    36  HIS36       0.1621
     65  C          9.7850   -1.0030  -37.4100 C.2    36  HIS36       0.2264
     66  O          9.9360   -1.7230  -36.4120 O.2    36  HIS36      -0.2867
     67  CB         9.0910   -1.6720  -39.7470 C.3    36  HIS36       0.0745
     68  CG         8.2070   -2.8320  -39.4090 C.ar   36  HIS36       0.0817
     69  ND1        7.4600   -2.8970  -38.2510 N.ar   36  HIS36      -0.2268
     70  CD2        7.9670   -3.9820  -40.0740 C.ar   36  HIS36       0.1154
     71  CE1        6.7790   -4.0270  -38.2390 C.ar   36  HIS36       0.1986
     72  NE2        7.0800   -4.7080  -39.3300 N.ar   36  HIS36      -0.2212
     73  N          7.0550   -0.8900  -35.9170 N.3    38  ARG38      -0.1245
     74  CA         6.0530   -1.6880  -35.2080 C.3    38  ARG38       0.1563
     75  C          6.6020   -2.9940  -34.6190 C.2    38  ARG38       0.2260
     76  O          5.8420   -3.8290  -34.1320 O.2    38  ARG38      -0.2867
     77  CB         4.8150   -1.9630  -36.0680 C.3    38  ARG38       0.0307
     78  CG         4.0960   -0.7300  -36.5230 C.3    38  ARG38       0.0489
     79  CD         4.3440   -0.3600  -37.9460 C.3    38  ARG38       0.2205
     80  NE         4.0830   -1.4530  -38.8770 N.pl3  38  ARG38      -0.0865
     81  CZ         4.5840   -1.4840  -40.0970 C.cat  38  ARG38       0.5346
     82  NH1        5.3340   -0.4840  -40.5220 N.pl3  38  ARG38       0.1354
     83  NH2        4.3520   -2.5130  -40.8840 N.pl3  38  ARG38       0.1354
     84  N          7.2850  -15.7480  -39.1330 N.3   118  ASN118     -0.1240
     85  CA         5.9780  -15.9440  -38.5130 C.3   118  ASN118      0.1653
     86  C          5.8800  -17.1630  -37.6020 C.2   118  ASN118      0.2266
     87  O          4.7920  -17.5730  -37.2140 O.2   118  ASN118     -0.2867
     88  CB         4.8550  -15.8720  -39.5470 C.3   118  ASN118      0.1155
     89  CG         4.7350  -14.4900  -40.1340 C.2   118  ASN118      0.2627
     90  OD1        4.9010  -13.5090  -39.4260 O.2   118  ASN118     -0.2716
     91  ND2        4.5170  -14.4040  -41.4280 N.am  118  ASN118     -0.0877
@<TRIPOS>BOND
     1    61    60   ar
     2    62    60   ar
     3    60    59    1
     4    53    54   ar
     5    53    51   ar
     6    54    52   ar
     7    59    56    1
     8    91    89   am
     9    56    55    1
    10    56    57    1
    11    51    50   ar
    12    83    81    1
    13    52    50   ar
    14    82    81    1
    15    29    28    1
    16    89    88    1
    17    89    90    2
    18    81    80    2
    19    50    49    1
    20    70    68   ar
    21    70    72   ar
    22    57    58    2
    23    67    68    1
    24    67    64    1
    25    33    32    2
    26    88    85    1
    27    68    69   ar
    28    72    71   ar
    29    28    26   ar
    30    28    27   ar
    31    84    85    1
    32    26    24   ar
    33    80    79    1
    34    31    32    1
    35    31    30    1
    36    32    34   am
    37    64    63    1
    38    64    65    1
    39    49    46    1
    40    47    46    1
    41    47    48    2
    42    85    86    1
    43    46    45    1
    44    27    25   ar
    45    69    71   ar
    46    30    20   am
    47    79    78    1
    48     9    10   ar
    49     9     7   ar
    50    24    23   ar
    51    34    35    1
    52    37    36    2
    53    35    36    1
    54    86    87    2
    55    65    66    2
    56    10     8   ar
    57     7     6   ar
    58    25    23   ar
    59    23    22    1
    60    20    21    2
    61    20    19    1
    62    78    77    1
    63     8     6   ar
    64     6     5    1
    65    77    74    1
    66    19    22    1
    67    19    18    1
    68    73    74    1
    69    44    42    1
    70    14    13    2
    71     5     2    1
    72    74    75    1
    73    42    43    1
    74    42    39    1
    75    18    13   am
    76    13    12    1
    77    75    76    2
    78    40    39    1
    79    40    41    2
    80     2     3    1
    81     2     1    1
    82    39    38    1
    83    16    17    1
    84    16    15    1
    85    17    11    1
    86     3    11   am
    87     3     4    2
    88    12    11    1
    89    12    15    1
