@<TRIPOS>MOLECULE
tmp/5f8wA02.pdb
 80 79 0 0 0
SMALL
GASTEIGER

@<TRIPOS>ATOM
      1  N         -4.4020   -9.9800  -27.3700 N.3    26  ASN26      -0.1240
      2  CA        -4.1620  -11.4000  -27.6220 C.3    26  ASN26       0.1653
      3  C         -3.5830  -11.7190  -28.9980 C.2    26  ASN26       0.2266
      4  O         -3.5070  -12.8740  -29.3860 O.2    26  ASN26      -0.2867
      5  CB        -5.3660  -12.2500  -27.2670 C.3    26  ASN26       0.1155
      6  CG        -5.7010  -12.1470  -25.7990 C.2    26  ASN26       0.2627
      7  OD1       -4.8080  -12.2350  -24.9490 O.2    26  ASN26      -0.2716
      8  ND2       -6.9700  -11.9120  -25.4900 N.am   26  ASN26      -0.0877
      9  N          2.4180  -10.7200  -22.6740 N.3    63  HIS63      -0.1227
     10  CA         1.7990  -11.6110  -21.6960 C.3    63  HIS63       0.1737
     11  C          1.9330  -13.0580  -22.1680 C.2    63  HIS63       0.2438
     12  O          1.9260  -13.3190  -23.3740 O.2    63  HIS63      -0.2733
     13  CB         0.3000  -11.3740  -21.6190 C.3    63  HIS63       0.0758
     14  CG        -0.1050  -10.0960  -20.9670 C.ar   63  HIS63       0.0818
     15  ND1       -0.8670  -10.0550  -19.8180 N.ar   63  HIS63      -0.2268
     16  CD2        0.1080   -8.8070  -21.3280 C.ar   63  HIS63       0.1154
     17  CE1       -1.0870   -8.7920  -19.4960 C.ar   63  HIS63       0.1986
     18  NE2       -0.5180   -8.0180  -20.4010 N.ar   63  HIS63      -0.2212
     19  N          1.9480  -14.0060  -21.2210 N.am   64  PRO64      -0.2718
     20  CA         1.5410  -15.3680  -21.5910 C.3    64  PRO64       0.1535
     21  C          0.0360  -15.3570  -21.8060 C.2    64  PRO64       0.2599
     22  O         -0.6960  -14.7690  -21.0020 O.2    64  PRO64      -0.2715
     23  CB         1.9330  -16.1830  -20.3690 C.3    64  PRO64       0.0310
     24  CG         1.7370  -15.2220  -19.2210 C.3    64  PRO64       0.0237
     25  CD         2.0720  -13.8460  -19.7550 C.3    64  PRO64       0.0939
     26  N         -0.4270  -15.9920  -22.8740 N.am   65  TYR65      -0.1960
     27  CA        -1.8640  -16.0240  -23.1620 C.3    65  TYR65       0.1771
     28  C         -2.6100  -16.6380  -21.9910 C.2    65  TYR65       0.2620
     29  O         -2.2710  -17.7430  -21.5160 O.2    65  TYR65      -0.2715
     30  CB        -2.1200  -16.8120  -24.4400 C.3    65  TYR65       0.0574
     31  CG        -3.5750  -16.8990  -24.8130 C.ar   65  TYR65      -0.0198
     32  CD1       -4.2820  -15.7690  -25.1780 C.ar   65  TYR65      -0.0009
     33  CD2       -4.2350  -18.1160  -24.8100 C.ar   65  TYR65      -0.0009
     34  CE1       -5.6070  -15.8360  -25.5310 C.ar   65  TYR65       0.0417
     35  CE2       -5.5710  -18.1980  -25.1670 C.ar   65  TYR65       0.0417
     36  CZ        -6.2550  -17.0530  -25.5130 C.ar   65  TYR65       0.1957
     37  OH        -7.5870  -17.1210  -25.8890 O.3    65  TYR65      -0.2866
     38  N         -3.6220  -15.9130  -21.5230 N.am   66  GLY66      -0.1940
     39  CA        -4.3870  -16.3360  -20.3620 C.3    66  GLY66       0.2014
     40  C         -3.9220  -15.7530  -19.0360 C.2    66  GLY66       0.2639
     41  O         -4.6340  -15.8370  -18.0370 O.2    66  GLY66      -0.2714
     42  N         -2.7190  -15.1910  -18.9970 N.am   67  GLY67      -0.1954
     43  CA        -2.2810  -14.4430  -17.8260 C.3    67  GLY67       0.1869
     44  C         -2.1010  -15.2490  -16.5680 C.2    67  GLY67       0.2309
     45  O         -2.3650  -14.7550  -15.4800 O.2    67  GLY67      -0.2863
     46  N          1.6520  -13.3710  -26.2690 N.3    78  VAL78      -0.1245
     47  CA         0.7650  -12.4220  -26.9260 C.3    78  VAL78       0.1561
     48  C          1.0210  -11.0020  -26.4050 C.2    78  VAL78       0.2260
     49  O          1.7060  -10.8140  -25.3930 O.2    78  VAL78      -0.2867
     50  CB        -0.7300  -12.7510  -26.6860 C.3    78  VAL78       0.0252
     51  CG1       -1.0610  -14.1490  -27.1890 C.3    78  VAL78       0.0019
     52  CG2       -1.1190  -12.6090  -25.2210 C.3    78  VAL78       0.0019
     53  N         -1.0730   -7.6910  -24.8440 N.3    80  HIS80      -0.1241
     54  CA        -2.3290   -7.3100  -24.2040 C.3    80  HIS80       0.1621
     55  C         -2.1190   -5.9910  -23.4780 C.2    80  HIS80       0.2264
     56  O         -1.0210   -5.7200  -22.9540 O.2    80  HIS80      -0.2867
     57  CB        -2.7710   -8.4040  -23.2280 C.3    80  HIS80       0.0745
     58  CG        -4.2300   -8.3920  -22.8830 C.ar   80  HIS80       0.0817
     59  ND1       -4.8070   -7.4480  -22.0620 N.ar   80  HIS80      -0.2268
     60  CD2       -5.2210   -9.2520  -23.2120 C.ar   80  HIS80       0.1154
     61  CE1       -6.0900   -7.7210  -21.9070 C.ar   80  HIS80       0.1986
     62  NE2       -6.3640   -8.8110  -22.5960 N.ar   80  HIS80      -0.2212
     63  N         -3.4850   -5.0700  -20.6270 N.3    82  ASP82      -0.1239
     64  CA        -3.5370   -5.1950  -19.1660 C.3    82  ASP82       0.1674
     65  C         -2.1480   -5.1540  -18.5380 C.2    82  ASP82       0.2266
     66  O         -1.1870   -5.6780  -19.0990 O.2    82  ASP82      -0.2867
     67  CB        -4.2260   -6.5070  -18.7280 C.3    82  ASP82       0.1410
     68  CG        -5.7370   -6.4940  -18.9180 C.2    82  ASP82       0.3668
     69  OD1       -6.3030   -5.4700  -19.3350 O.co2  82  ASP82      -0.2456
     70  OD2       -6.3450   -7.5430  -18.6430 O.co2  82  ASP82      -0.2456
     71  N         -0.4750   -6.4030  -14.9280 N.3    84  HIS84      -0.1241
     72  CA        -0.5810   -7.1600  -13.6820 C.3    84  HIS84       0.1621
     73  C          0.6770   -8.0020  -13.5440 C.2    84  HIS84       0.2264
     74  O          1.5270   -8.0180  -14.4510 O.2    84  HIS84      -0.2867
     75  CB        -1.8560   -8.0180  -13.5990 C.3    84  HIS84       0.0745
     76  CG        -2.0850   -8.8860  -14.7900 C.ar   84  HIS84       0.0817
     77  ND1       -1.2210   -9.8950  -15.1620 N.ar   84  HIS84      -0.2268
     78  CD2       -3.0670   -8.8730  -15.7160 C.ar   84  HIS84       0.1154
     79  CE1       -1.6770  -10.4770  -16.2550 C.ar   84  HIS84       0.1986
     80  NE2       -2.8000   -9.8780  -16.6080 N.ar   84  HIS84      -0.2212
@<TRIPOS>BOND
     1     4     3    2
     2     3     2    1
     3     2     1    1
     4     2     5    1
     5     5     6    1
     6    51    50    1
     7    47    50    1
     8    47    48    1
     9    47    46    1
    10    50    52    1
    11    48    49    2
    12    37    36    1
    13     6     8   am
    14     6     7    2
    15    34    36   ar
    16    34    32   ar
    17    36    35   ar
    18    32    31   ar
    19    35    33   ar
    20    53    54    1
    21    31    33   ar
    22    31    30    1
    23    30    27    1
    24    54    55    1
    25    54    57    1
    26    55    56    2
    27    12    11    2
    28    57    58    1
    29    60    58   ar
    30    60    62   ar
    31    27    26    1
    32    27    28    1
    33    58    59   ar
    34    26    21   am
    35     9    10    1
    36    62    61   ar
    37    11    10    1
    38    11    19   am
    39    59    61   ar
    40    28    38   am
    41    28    29    2
    42    21    20    1
    43    21    22    2
    44    10    13    1
    45    13    14    1
    46    20    19    1
    47    20    23    1
    48    38    39    1
    49    16    14   ar
    50    16    18   ar
    51    19    25    1
    52    14    15   ar
    53    63    64    1
    54    18    17   ar
    55    23    24    1
    56    39    40    1
    57    15    17   ar
    58    25    24    1
    59    69    68   ar
    60    64    67    1
    61    64    65    1
    62    66    65    2
    63    40    42   am
    64    40    41    2
    65    42    43    1
    66    68    67    1
    67    68    70   ar
    68    43    44    1
    69    80    79   ar
    70    80    78   ar
    71    44    45    2
    72    79    77   ar
    73    78    76   ar
    74    77    76   ar
    75    71    72    1
    76    76    75    1
    77    74    73    2
    78    72    75    1
    79    72    73    1
