@<TRIPOS>MOLECULE
tmp/5f8xA01.pdb
 126 125 0 0 0
SMALL
GASTEIGER

@<TRIPOS>ATOM
      1  N        -25.6140  -14.7200    1.7630 N.3    44  HIS44      -0.1241
      2  CA       -26.0300  -16.0920    1.4380 C.3    44  HIS44       0.1621
      3  C        -26.4940  -16.2530   -0.0180 C.2    44  HIS44       0.2264
      4  O        -26.6350  -17.3740   -0.4960 O.2    44  HIS44      -0.2867
      5  CB       -27.0680  -16.6350    2.4340 C.3    44  HIS44       0.0745
      6  CG       -28.4710  -16.1830    2.1820 C.ar   44  HIS44       0.0817
      7  ND1      -29.0430  -15.1230    2.8500 N.ar   44  HIS44      -0.2268
      8  CD2      -29.4350  -16.6800    1.3730 C.ar   44  HIS44       0.1154
      9  CE1      -30.2900  -14.9690    2.4430 C.ar   44  HIS44       0.1986
     10  NE2      -30.5530  -15.9020    1.5490 N.ar   44  HIS44      -0.2212
     11  N        -45.1540  -11.8630    4.7020 N.3   182  ASP182     -0.1225
     12  CA       -43.7440  -12.1420    4.9510 C.3   182  ASP182      0.1805
     13  C        -42.9500  -12.1630    3.6500 C.2   182  ASP182      0.2598
     14  O        -43.5380  -12.2060    2.6300 O.2   182  ASP182     -0.2718
     15  CB       -43.6640  -13.4920    5.6730 C.3   182  ASP182      0.1424
     16  CG       -42.3330  -13.7500    6.3990 C.2   182  ASP182      0.3668
     17  OD1      -41.5210  -12.8790    6.5940 O.co2 182  ASP182     -0.2456
     18  OD2      -42.1370  -14.8740    6.7700 O.co2 182  ASP182     -0.2456
     19  N        -41.6160  -12.1140    3.7580 N.am  183  ALA183     -0.1966
     20  CA       -40.7380  -12.4270    2.6460 C.3   183  ALA183      0.1728
     21  C        -40.6830  -13.9440    2.5130 C.2   183  ALA183      0.2616
     22  O        -41.1050  -14.6770    3.4170 O.2   183  ALA183     -0.2715
     23  CB       -39.3520  -11.8590    2.8890 C.3   183  ALA183      0.0334
     24  N        -40.1730  -14.4220    1.3850 N.am  184  CYS184     -0.1954
     25  CA       -40.0930  -15.8570    1.1500 C.3   184  CYS184      0.1843
     26  C        -38.9330  -16.1640    0.2060 C.2   184  CYS184      0.2625
     27  O        -38.1100  -15.2850   -0.0700 O.2   184  CYS184     -0.2714
     28  CB       -41.4320  -16.3650    0.6020 C.3   184  CYS184      0.0997
     29  SG       -41.7380  -18.1450    0.7690 S.3   184  CYS184     -0.0797
     30  N        -38.8590  -17.4070   -0.2670 N.am  185  LYS185     -0.1977
     31  CA       -37.7640  -17.8340   -1.1370 C.3   185  LYS185      0.1596
     32  C        -37.7090  -16.9360   -2.3710 C.2   185  LYS185      0.2287
     33  O        -38.7370  -16.6590   -2.9780 O.2   185  LYS185     -0.2864
     34  CB       -37.9380  -19.2910   -1.5960 C.3   185  LYS185      0.0298
     35  CG       -38.1630  -20.3230   -0.4970 C.3   185  LYS185      0.0038
     36  CD       -37.0110  -20.4010    0.4890 C.3   185  LYS185      0.0206
     37  CE       -37.2200  -21.5420    1.4750 C.3   185  LYS185      0.1093
     38  NZ       -36.3260  -21.4390    2.6600 N.3   185  LYS185     -0.1314
     39  N        -34.4540  -13.0360   -0.7940 N.3   188  SER188     -0.1217
     40  CA       -33.1310  -12.8180   -0.1800 C.3   188  SER188      0.1889
     41  C        -32.4250  -11.5960   -0.6970 C.2   188  SER188      0.2288
     42  O        -32.3430  -11.3790   -1.9070 O.2   188  SER188     -0.2866
     43  CB       -32.1680  -13.9630   -0.4920 C.3   188  SER188      0.2089
     44  OG       -32.6010  -15.1790    0.0280 O.3   188  SER188     -0.2183
     45  N        -33.2600   -8.5730    3.6670 N.3   206  THR206     -0.1203
     46  CA       -33.9830   -9.8330    3.8340 C.3   206  THR206      0.1994
     47  C        -33.0170  -11.0170    3.9740 C.2   206  THR206      0.2619
     48  O        -32.1870  -11.2420    3.1000 O.2   206  THR206     -0.2717
     49  CB       -34.9390  -10.0260    2.6440 C.3   206  THR206      0.1784
     50  OG1      -35.8720   -8.9360    2.6260 O.3   206  THR206     -0.2211
     51  CG2      -35.6890  -11.3390    2.7410 C.3   206  THR206      0.0376
     52  N        -33.1240  -11.7500    5.0840 N.am  207  SER207     -0.1937
     53  CA       -32.1280  -12.7710    5.4410 C.3   207  SER207      0.2055
     54  C        -32.7280  -14.1620    5.6770 C.2   207  SER207      0.2643
     55  O        -32.5110  -15.0700    4.8660 O.2   207  SER207     -0.2714
     56  CB       -31.3100  -12.3140    6.6590 C.3   207  SER207      0.2130
     57  OG       -30.2300  -13.2050    6.9140 O.3   207  SER207     -0.2179
     58  N        -33.4690  -14.3410    6.7710 N.am  208  TRP208     -0.1959
     59  CA       -33.9810  -15.6730    7.1360 C.3   208  TRP208      0.1771
     60  C        -35.3010  -15.6420    7.8980 C.2   208  TRP208      0.2620
     61  O        -35.8160  -14.5770    8.2390 O.2   208  TRP208     -0.2715
     62  CB       -32.9200  -16.4770    7.9150 C.3   208  TRP208      0.0590
     63  CG       -32.4280  -15.8790    9.2080 C.ar  208  TRP208      0.0006
     64  CD1      -31.4800  -14.9100    9.3550 C.ar  208  TRP208      0.0946
     65  CD2      -32.8250  -16.2550   10.5360 C.ar  208  TRP208      0.0152
     66  NE1      -31.2740  -14.6430   10.6880 N.ar  208  TRP208     -0.2442
     67  CE2      -32.0880  -15.4540   11.4350 C.ar  208  TRP208      0.0810
     68  CE3      -33.7410  -17.1780   11.0510 C.ar  208  TRP208      0.0012
     69  CZ2      -32.2340  -15.5540   12.8240 C.ar  208  TRP208      0.0191
     70  CZ3      -33.8840  -17.2770   12.4350 C.ar  208  TRP208      0.0001
     71  CH2      -33.1380  -16.4660   13.3010 C.ar  208  TRP208      0.0015
     72  N        -35.9030  -16.8210    8.0450 N.am  209  GLY209     -0.1940
     73  CA       -37.1100  -16.9960    8.8290 C.3   209  GLY209      0.2014
     74  C        -37.5040  -18.4590    8.7440 C.2   209  GLY209      0.2639
     75  O        -36.9950  -19.1330    7.8950 O.2   209  GLY209     -0.2714
     76  N        -38.4850  -18.9110    9.4850 N.am  210  GLU210     -0.1963
     77  CA       -38.9040  -20.3090    9.4010 C.3   210  GLU210      0.1733
     78  C        -40.0060  -20.4360    8.4050 C.2   210  GLU210      0.2617
     79  O        -41.0690  -19.9690    8.6190 O.2   210  GLU210     -0.2715
     80  CB       -39.3820  -20.8010   10.7640 C.3   210  GLU210      0.0429
     81  CG       -39.8570  -22.2410   10.7730 C.3   210  GLU210      0.1163
     82  CD       -40.6900  -22.5620   12.0170 C.2   210  GLU210      0.3649
     83  OE1      -40.1200  -22.2930   13.0620 O.co2 210  GLU210     -0.2457
     84  OE2      -41.8560  -23.0280   11.9490 O.co2 210  GLU210     -0.2457
     85  N        -39.7290  -21.0900    7.3020 N.am  211  GLY211     -0.1940
     86  CA       -40.7130  -21.1970    6.2450 C.3   211  GLY211      0.2014
     87  C        -41.0250  -19.7910    5.7480 C.2   211  GLY211      0.2639
     88  O        -40.1510  -19.0120    5.6710 O.2   211  GLY211     -0.2714
     89  N        -42.2620  -19.5460    5.3900 N.am  212  CYS212     -0.1967
     90  CA       -42.7100  -18.2290    5.0640 C.3   212  CYS212      0.1712
     91  C        -44.0940  -17.9460    5.6090 C.2   212  CYS212      0.2296
     92  O        -44.9730  -18.6670    5.3530 O.2   212  CYS212     -0.2864
     93  CB       -42.7360  -18.0540    3.5360 C.3   212  CYS212      0.0983
     94  SG       -41.1880  -18.5880    2.8000 S.3   212  CYS212     -0.0798
     95  N        -43.7670  -16.5860   13.6870 N.3   217  GLN217     -0.1245
     96  CA       -42.4050  -16.7930   13.1880 C.3   217  GLN217      0.1566
     97  C        -41.9970  -15.6080   12.3140 C.2   217  GLN217      0.2260
     98  O        -42.1140  -15.6660   11.0910 O.2   217  GLN217     -0.2867
     99  CB       -42.2970  -18.1050   12.4040 C.3   217  GLN217      0.0367
    100  CG       -42.6050  -19.3690   13.2080 C.3   217  GLN217      0.0905
    101  CD       -41.6670  -19.6170   14.3850 C.2   217  GLN217      0.2608
    102  OE1      -42.0430  -20.2750   15.3550 O.2   217  GLN217     -0.2717
    103  NE2      -40.4510  -19.1000   14.3060 N.am  217  GLN217     -0.0878
    104  N        -39.9760  -12.6820   10.1950 N.3   219  GLY219     -0.1210
    105  CA       -38.8300  -12.6180    9.3000 C.3   219  GLY219      0.1956
    106  C        -37.6840  -11.9170    9.9990 C.2   219  GLY219      0.2612
    107  O        -37.9060  -10.9970   10.7890 O.2   219  GLY219     -0.2717
    108  N        -36.4610  -12.3580    9.7150 N.am  220  VAL220     -0.1965
    109  CA       -35.2650  -11.7660   10.3020 C.3   220  VAL220      0.1727
    110  C        -34.4490  -11.1050    9.1910 C.2   220  VAL220      0.2616
    111  O        -34.2840  -11.6640    8.1000 O.2   220  VAL220     -0.2715
    112  CB       -34.4150  -12.8120   11.0630 C.3   220  VAL220      0.0290
    113  CG1      -33.2730  -12.1330   11.7990 C.3   220  VAL220      0.0023
    114  CG2      -35.2760  -13.5850   12.0540 C.3   220  VAL220      0.0023
    115  N        -33.9650   -9.8990    9.4740 N.am  221  TYR221     -0.1974
    116  CA       -33.3000   -9.0620    8.4840 C.3   221  TYR221      0.1639
    117  C        -31.9860   -8.5690    9.0640 C.2   221  TYR221      0.2290
    118  O        -31.8910   -8.3370   10.2670 O.2   221  TYR221     -0.2864
    119  CB       -34.1850   -7.8540    8.1400 C.3   221  TYR221      0.0560
    120  CG       -35.5390   -8.2190    7.5680 C.ar  221  TYR221     -0.0198
    121  CD1      -36.5610   -8.6980    8.3850 C.ar  221  TYR221     -0.0009
    122  CD2      -35.8040   -8.0720    6.2090 C.ar  221  TYR221     -0.0009
    123  CE1      -37.7940   -9.0440    7.8640 C.ar  221  TYR221      0.0417
    124  CE2      -37.0370   -8.4090    5.6780 C.ar  221  TYR221      0.0417
    125  CZ       -38.0280   -8.8950    6.5090 C.ar  221  TYR221      0.1957
    126  OH       -39.2500   -9.2370    5.9880 O.3   221  TYR221     -0.2866
@<TRIPOS>BOND
     1    33    32    2
     2    32    31    1
     3    42    41    2
     4    34    31    1
     5    34    35    1
     6    31    30    1
     7    39    40    1
     8    41    40    1
     9    35    36    1
    10     4     3    2
    11    43    40    1
    12    43    44    1
    13    30    26   am
    14    27    26    2
    15     3     2    1
    16    26    25    1
    17    36    37    1
    18    28    29    1
    19    28    25    1
    20    29    94    1
    21    25    24    1
    22     8    10   ar
    23     8     6   ar
    24    24    21   am
    25     2     1    1
    26     2     5    1
    27    37    38    1
    28    10     9   ar
    29     6     5    1
    30     6     7   ar
    31     9     7   ar
    32    21    20    1
    33    21    22    2
    34    50    49    1
    35    14    13    2
    36    49    51    1
    37    49    46    1
    38    20    23    1
    39    20    19    1
    40    94    93    1
    41    48    47    2
    42    93    90    1
    43    13    19   am
    44    13    12    1
    45    45    46    1
    46    46    47    1
    47    47    52   am
    48    11    12    1
    49    55    54    2
    50    12    15    1
    51    90    89    1
    52    90    91    1
    53    52    53    1
    54    92    91    2
    55    89    87   am
    56    53    54    1
    57    53    56    1
    58    88    87    2
    59    15    16    1
    60    54    58   am
    61   124   122   ar
    62   124   125   ar
    63    87    86    1
    64   126   125    1
    65   122   120   ar
    66    86    85    1
    67    16    17   ar
    68    16    18   ar
    69   125   123   ar
    70    56    57    1
    71    58    59    1
    72    59    60    1
    73    59    62    1
    74    85    78   am
    75   120   119    1
    76   120   121   ar
    77   123   121   ar
    78    75    74    2
    79    60    72   am
    80    60    61    2
    81    62    63    1
    82    72    73    1
    83   111   110    2
    84   119   116    1
    85    78    79    2
    86    78    77    1
    87   116   117    1
    88   116   115    1
    89    74    73    1
    90    74    76   am
    91   117   118    2
    92   110   115   am
    93   110   109    1
    94    63    64   ar
    95    63    65   ar
    96   105   106    1
    97   105   104    1
    98    64    66   ar
    99    77    76    1
   100    77    80    1
   101   108   106   am
   102   108   109    1
   103   106   107    2
   104   109   112    1
   105    65    68   ar
   106    65    67   ar
   107    66    67   ar
   108    80    81    1
   109    81    82    1
   110    68    70   ar
   111   112   113    1
   112   112   114    1
   113    98    97    2
   114    67    69   ar
   115    84    82   ar
   116    82    83   ar
   117    97    96    1
   118    99    96    1
   119    99   100    1
   120    70    71   ar
   121    69    71   ar
   122    96    95    1
   123   100   101    1
   124   103   101   am
   125   101   102    2
