@<TRIPOS>MOLECULE
tmp/5f8yB02.pdb
 80 79 0 0 0
SMALL
GASTEIGER

@<TRIPOS>ATOM
      1  N         -4.3660    9.8600   27.0360 N.3    26  ASN26      -0.1240
      2  CA        -4.1150   11.2610   27.3440 C.3    26  ASN26       0.1653
      3  C         -3.5400   11.5330   28.7350 C.2    26  ASN26       0.2266
      4  O         -3.4580   12.6850   29.1500 O.2    26  ASN26      -0.2867
      5  CB        -5.3060   12.1510   27.0060 C.3    26  ASN26       0.1155
      6  CG        -5.6440   12.0850   25.5380 C.2    26  ASN26       0.2627
      7  OD1       -4.7390   12.1460   24.6920 O.2    26  ASN26      -0.2716
      8  ND2       -6.9370   11.8990   25.2150 N.am   26  ASN26      -0.0877
      9  N          2.5570   10.6760   22.4240 N.3    63  HIS63      -0.1227
     10  CA         1.9240   11.5670   21.4460 C.3    63  HIS63       0.1737
     11  C          2.0260   13.0000   21.9370 C.2    63  HIS63       0.2438
     12  O          1.9680   13.2530   23.1360 O.2    63  HIS63      -0.2733
     13  CB         0.3990   11.3110   21.3700 C.3    63  HIS63       0.0758
     14  CG        -0.0020   10.0440   20.6860 C.ar   63  HIS63       0.0818
     15  ND1       -0.7970   10.0260   19.5520 N.ar   63  HIS63      -0.2268
     16  CD2        0.1810    8.7690   21.0340 C.ar   63  HIS63       0.1154
     17  CE1       -1.0170    8.7770   19.2020 C.ar   63  HIS63       0.1986
     18  NE2       -0.4340    7.9930   20.0810 N.ar   63  HIS63      -0.2212
     19  N          2.0540   13.9470   20.9960 N.am   64  PRO64      -0.2718
     20  CA         1.6470   15.2810   21.3680 C.3    64  PRO64       0.1535
     21  C          0.1230   15.3130   21.5890 C.2    64  PRO64       0.2599
     22  O         -0.6350   14.7320   20.7960 O.2    64  PRO64      -0.2715
     23  CB         2.0580   16.0990   20.1640 C.3    64  PRO64       0.0310
     24  CG         1.8820   15.1840   19.0180 C.3    64  PRO64       0.0237
     25  CD         2.1620   13.7940   19.5270 C.3    64  PRO64       0.0939
     26  N         -0.3240   15.9460   22.6720 N.am   65  TYR65      -0.1960
     27  CA        -1.7480   15.9780   22.9620 C.3    65  TYR65       0.1771
     28  C         -2.5060   16.5580   21.7750 C.2    65  TYR65       0.2620
     29  O         -2.2040   17.6630   21.3420 O.2    65  TYR65      -0.2715
     30  CB        -2.0110   16.7990   24.2100 C.3    65  TYR65       0.0574
     31  CG        -3.4770   16.8770   24.6060 C.ar   65  TYR65      -0.0198
     32  CD1       -4.1640   15.7460   25.0140 C.ar   65  TYR65      -0.0009
     33  CD2       -4.1630   18.0870   24.5660 C.ar   65  TYR65      -0.0009
     34  CE1       -5.5010   15.8170   25.3940 C.ar   65  TYR65       0.0417
     35  CE2       -5.4980   18.1690   24.9520 C.ar   65  TYR65       0.0417
     36  CZ        -6.1620   17.0220   25.3520 C.ar   65  TYR65       0.1957
     37  OH        -7.4940   17.0890   25.7300 O.3    65  TYR65      -0.2866
     38  N         -3.4910   15.8160   21.2710 N.am   66  GLY66      -0.1940
     39  CA        -4.2870   16.2870   20.1070 C.3    66  GLY66       0.2014
     40  C         -3.8000   15.7300   18.7770 C.2    66  GLY66       0.2639
     41  O         -4.4910   15.8440   17.7840 O.2    66  GLY66      -0.2714
     42  N         -2.6010   15.1560   18.7510 N.am   67  GLY67      -0.1954
     43  CA        -2.1220   14.4390   17.5610 C.3    67  GLY67       0.1869
     44  C         -1.9740   15.2930   16.3150 C.2    67  GLY67       0.2309
     45  O         -2.2410   14.8340   15.2140 O.2    67  GLY67      -0.2863
     46  N          1.6910   13.2430   26.0200 N.3    78  VAL78      -0.1245
     47  CA         0.8350   12.2750   26.6800 C.3    78  VAL78       0.1561
     48  C          1.0680   10.8910   26.1580 C.2    78  VAL78       0.2260
     49  O          1.7750   10.7200   25.1480 O.2    78  VAL78      -0.2867
     50  CB        -0.6670   12.6070   26.4300 C.3    78  VAL78       0.0252
     51  CG1       -0.9910   13.9800   26.9630 C.3    78  VAL78       0.0019
     52  CG2       -1.0500   12.5030   24.9590 C.3    78  VAL78       0.0019
     53  N         -1.0040    7.5860   24.5470 N.3    80  HIS80      -0.1241
     54  CA        -2.2340    7.2510   23.8710 C.3    80  HIS80       0.1621
     55  C         -2.0570    5.9360   23.1150 C.2    80  HIS80       0.2264
     56  O         -0.9230    5.6550   22.6180 O.2    80  HIS80      -0.2867
     57  CB        -2.6900    8.4010   22.9500 C.3    80  HIS80       0.0745
     58  CG        -4.1510    8.3880   22.5860 C.ar   80  HIS80       0.0817
     59  ND1       -4.7100    7.4620   21.7350 N.ar   80  HIS80      -0.2268
     60  CD2       -5.1590    9.2090   22.9420 C.ar   80  HIS80       0.1154
     61  CE1       -5.9920    7.7230   21.5720 C.ar   80  HIS80       0.1986
     62  NE2       -6.2880    8.7800   22.3000 N.ar   80  HIS80      -0.2212
     63  N         -3.3850    5.0780   20.2840 N.3    82  ASP82      -0.1239
     64  CA        -3.4280    5.2230   18.7990 C.3    82  ASP82       0.1674
     65  C         -2.0410    5.1790   18.1310 C.2    82  ASP82       0.2266
     66  O         -1.0560    5.6790   18.6770 O.2    82  ASP82      -0.2867
     67  CB        -4.0850    6.5500   18.3820 C.3    82  ASP82       0.1410
     68  CG        -5.5860    6.5690   18.5710 C.2    82  ASP82       0.3668
     69  OD1       -6.1590    5.5510   18.9810 O.co2  82  ASP82      -0.2456
     70  OD2       -6.1720    7.6440   18.2810 O.co2  82  ASP82      -0.2456
     71  N         -0.4200    6.4710   14.6020 N.3    84  HIS84      -0.1241
     72  CA        -0.5120    7.2330   13.3560 C.3    84  HIS84       0.1621
     73  C          0.7520    8.0700   13.1950 C.2    84  HIS84       0.2264
     74  O          1.6410    8.0820   14.0950 O.2    84  HIS84      -0.2867
     75  CB        -1.7620    8.1020   13.3320 C.3    84  HIS84       0.0745
     76  CG        -1.9460    8.9560   14.5410 C.ar   84  HIS84       0.0817
     77  ND1       -1.0780    9.9680   14.8690 N.ar   84  HIS84      -0.2268
     78  CD2       -2.9250    8.9840   15.4740 C.ar   84  HIS84       0.1154
     79  CE1       -1.4970   10.5770   15.9630 C.ar   84  HIS84       0.1986
     80  NE2       -2.6310   10.0010   16.3410 N.ar   84  HIS84      -0.2212
@<TRIPOS>BOND
     1    73    72    1
     2    73    74    2
     3    75    72    1
     4    75    76    1
     5    72    71    1
     6    76    77   ar
     7    76    78   ar
     8    77    79   ar
     9    45    44    2
    10    78    80   ar
    11    79    80   ar
    12    44    43    1
    13    43    42    1
    14    41    40    2
    15    65    66    2
    16    65    64    1
    17    70    68   ar
    18    67    68    1
    19    67    64    1
    20    68    69   ar
    21    42    40   am
    22    40    39    1
    23    64    63    1
    24    24    25    1
    25    24    23    1
    26    17    15   ar
    27    17    18   ar
    28    25    19    1
    29    15    14   ar
    30    18    16   ar
    31    39    38    1
    32    23    20    1
    33    14    16   ar
    34    14    13    1
    35    22    21    2
    36    19    20    1
    37    19    11   am
    38    38    28   am
    39    29    28    2
    40    20    21    1
    41    13    10    1
    42    10    11    1
    43    10     9    1
    44    61    59   ar
    45    61    62   ar
    46    21    26   am
    47    59    58   ar
    48    28    27    1
    49    11    12    2
    50    62    60   ar
    51    58    60   ar
    52    58    57    1
    53    56    55    2
    54    26    27    1
    55    57    54    1
    56    27    30    1
    57    55    54    1
    58    54    53    1
    59    30    31    1
    60    33    31   ar
    61    33    35   ar
    62    31    32   ar
    63     7     6    2
    64    35    36   ar
    65    52    50    1
    66    32    34   ar
    67    49    48    2
    68     8     6   am
    69    36    34   ar
    70    36    37    1
    71     6     5    1
    72    46    47    1
    73    48    47    1
    74    50    47    1
    75    50    51    1
    76     5     2    1
    77     1     2    1
    78     2     3    1
    79     3     4    2
