@<TRIPOS>MOLECULE
tmp/5f8yB01.pdb
 91 89 0 0 0
SMALL
GASTEIGER

@<TRIPOS>ATOM
      1  N          8.0900    9.5540   32.9360 N.3    15  HIS15      -0.1227
      2  CA         7.1310    8.6680   33.5800 C.3    15  HIS15       0.1737
      3  C          5.7290    9.0510   33.0740 C.2    15  HIS15       0.2438
      4  O          5.4630   10.2440   32.8600 O.2    15  HIS15      -0.2733
      5  CB         7.0390    8.9600   35.0630 C.3    15  HIS15       0.0758
      6  CG         8.1560    8.4380   35.8950 C.ar   15  HIS15       0.0818
      7  ND1        7.9300    7.5770   36.9450 N.ar   15  HIS15      -0.2268
      8  CD2        9.4870    8.6900   35.8950 C.ar   15  HIS15       0.1154
      9  CE1        9.0700    7.3300   37.5630 C.ar   15  HIS15       0.1986
     10  NE2       10.0350    7.9580   36.9270 N.ar   15  HIS15      -0.2212
     11  N          4.7940    8.0920   33.0470 N.am   16  PRO16      -0.2718
     12  CA         3.3680    8.4970   33.0510 C.3    16  PRO16       0.1535
     13  C          3.0270    9.1800   34.3800 C.2    16  PRO16       0.2599
     14  O          3.4930    8.7120   35.4190 O.2    16  PRO16      -0.2715
     15  CB         2.6140    7.1600   32.8860 C.3    16  PRO16       0.0310
     16  CG         3.5560    6.1150   33.3370 C.3    16  PRO16       0.0237
     17  CD         4.9690    6.6450   33.2900 C.3    16  PRO16       0.0939
     18  N          2.2840   10.2830   34.3570 N.am   17  TYR17      -0.1960
     19  CA         1.8580   10.9280   35.6180 C.3    17  TYR17       0.1771
     20  C          1.0790    9.9050   36.4150 C.2    17  TYR17       0.2620
     21  O          0.0950    9.3730   35.9150 O.2    17  TYR17      -0.2715
     22  CB         0.9620   12.1090   35.3340 C.3    17  TYR17       0.0574
     23  CG         0.5000   12.8210   36.5710 C.ar   17  TYR17      -0.0198
     24  CD1        1.4120   13.3490   37.4810 C.ar   17  TYR17      -0.0009
     25  CD2       -0.8310   12.8880   36.8850 C.ar   17  TYR17      -0.0009
     26  CE1        0.9900   14.0090   38.6310 C.ar   17  TYR17       0.0417
     27  CE2       -1.2630   13.5510   38.0310 C.ar   17  TYR17       0.0417
     28  CZ        -0.3430   14.0920   38.9080 C.ar   17  TYR17       0.1957
     29  OH        -0.7590   14.7590   40.0670 O.3    17  TYR17      -0.2866
     30  N          1.5070    9.6420   37.6500 N.am   18  GLY18      -0.1940
     31  CA         0.8850    8.6310   38.5220 C.3    18  GLY18       0.2014
     32  C          1.4510    7.2320   38.4130 C.2    18  GLY18       0.2639
     33  O          1.1140    6.3320   39.2310 O.2    18  GLY18      -0.2714
     34  N          2.3130    7.0050   37.4210 N.am   19  GLY19      -0.1954
     35  CA         3.0410    5.7490   37.3290 C.3    19  GLY19       0.1869
     36  C          2.2400    4.5340   36.9570 C.2    19  GLY19       0.2309
     37  O          2.6780    3.4270   37.2140 O.2    19  GLY19      -0.2863
     38  N          5.4830   13.0610   32.5160 N.3    30  VAL30      -0.1245
     39  CA         6.1910   13.9500   33.4500 C.3    30  VAL30       0.1561
     40  C          7.6030   13.4510   33.6780 C.2    30  VAL30       0.2260
     41  O          7.9530   12.3390   33.2980 O.2    30  VAL30      -0.2867
     42  CB         5.4530   14.0440   34.8060 C.3    30  VAL30       0.0252
     43  CG1        4.0380   14.5420   34.5710 C.3    30  VAL30       0.0019
     44  CG2        5.4490   12.6830   35.5320 C.3    30  VAL30       0.0019
     45  N         10.2630   12.4330   36.6800 N.3    32  HIS32      -0.1241
     46  CA        10.2850   11.9970   38.0890 C.3    32  HIS32       0.1621
     47  C         11.5560   11.1920   38.3450 C.2    32  HIS32       0.2264
     48  O         12.0510   10.4600   37.4500 O.2    32  HIS32      -0.2867
     49  CB         9.0120   11.1890   38.3590 C.3    32  HIS32       0.0745
     50  CG         8.6720   10.9720   39.7990 C.ar   32  HIS32       0.0817
     51  ND1        9.3680   10.1090   40.6060 N.ar   32  HIS32      -0.2268
     52  CD2        7.6810   11.4890   40.5820 C.ar   32  HIS32       0.1154
     53  CE1        8.8460   10.1070   41.8180 C.ar   32  HIS32       0.1986
     54  NE2        7.8040   10.9130   41.8250 N.ar   32  HIS32      -0.2212
     55  N         12.1170    8.5720   40.3480 N.3    34  ASP34      -0.1239
     56  CA        12.0150    7.1490   40.6800 C.3    34  ASP34       0.1674
     57  C         12.2700    6.2860   39.4520 C.2    34  ASP34       0.2266
     58  O         11.9980    6.6790   38.2950 O.2    34  ASP34      -0.2867
     59  CB        10.6170    6.7630   41.1870 C.3    34  ASP34       0.1410
     60  CG        10.2920    7.1910   42.6090 C.2    34  ASP34       0.3668
     61  OD1       11.1490    7.6920   43.3580 O.co2  34  ASP34      -0.2456
     62  OD2        9.0770    6.9770   42.9820 O.co2  34  ASP34      -0.2456
     63  N         11.2150    2.3500   38.1630 N.3    36  HIS36      -0.1241
     64  CA        10.3680    1.1670   38.3160 C.3    36  HIS36       0.1621
     65  C          9.8650    0.7380   36.9240 C.2    36  HIS36       0.2264
     66  O         10.0040    1.4920   35.9370 O.2    36  HIS36      -0.2867
     67  CB         9.1780    1.3840   39.2840 C.3    36  HIS36       0.0745
     68  CG         8.3120    2.5590   38.9630 C.ar   36  HIS36       0.0817
     69  ND1        7.4950    2.6050   37.8480 N.ar   36  HIS36      -0.2268
     70  CD2        8.1320    3.7440   39.6010 C.ar   36  HIS36       0.1154
     71  CE1        6.8340    3.7470   37.8300 C.ar   36  HIS36       0.1986
     72  NE2        7.2020    4.4600   38.8780 N.ar   36  HIS36      -0.2212
     73  N          7.1030    0.6190   35.4300 N.3    38  ARG38      -0.1245
     74  CA         6.0860    1.4320   34.7430 C.3    38  ARG38       0.1563
     75  C          6.6650    2.7220   34.1940 C.2    38  ARG38       0.2260
     76  O          5.9250    3.5660   33.7120 O.2    38  ARG38      -0.2867
     77  CB         4.8400    1.7250   35.6180 C.3    38  ARG38       0.0307
     78  CG         4.0960    0.4840   36.0400 C.3    38  ARG38       0.0489
     79  CD         4.2260    0.0910   37.4840 C.3    38  ARG38       0.2205
     80  NE         3.9980    1.1930   38.4260 N.pl3  38  ARG38      -0.0865
     81  CZ         4.5560    1.2390   39.6240 C.cat  38  ARG38       0.5346
     82  NH1        5.3380    0.2330   40.0380 N.pl3  38  ARG38       0.1354
     83  NH2        4.3390    2.2830   40.4010 N.pl3  38  ARG38       0.1354
     84  N          7.3060   15.4190   38.9360 N.3   118  ASN118     -0.1240
     85  CA         5.9930   15.5900   38.3170 C.3   118  ASN118      0.1653
     86  C          5.8720   16.8140   37.4320 C.2   118  ASN118      0.2266
     87  O          4.7930   17.2070   37.0600 O.2   118  ASN118     -0.2867
     88  CB         4.8390   15.4670   39.3170 C.3   118  ASN118      0.1155
     89  CG         4.7800   14.0970   39.9190 C.2   118  ASN118      0.2627
     90  OD1        4.9560   13.1010   39.2090 O.2   118  ASN118     -0.2716
     91  ND2        4.5610   14.0230   41.2200 N.am  118  ASN118     -0.0877
@<TRIPOS>BOND
     1    38    39    1
     2     4     3    2
     3    15    12    1
     4    15    16    1
     5     1     2    1
     6    11    12    1
     7    11     3   am
     8    11    17    1
     9    12    13    1
    10     3     2    1
    11    17    16    1
    12    41    40    2
    13    39    40    1
    14    39    42    1
    15     2     5    1
    16    76    75    2
    17    75    74    1
    18    18    13   am
    19    18    19    1
    20    13    14    2
    21    43    42    1
    22    74    73    1
    23    74    77    1
    24    42    44    1
    25     5     6    1
    26    22    19    1
    27    22    23    1
    28    19    20    1
    29    77    78    1
    30     6     8   ar
    31     6     7   ar
    32     8    10   ar
    33    21    20    2
    34    66    65    2
    35    78    79    1
    36    20    30   am
    37    23    25   ar
    38    23    24   ar
    39    45    46    1
    40    25    27   ar
    41    65    64    1
    42    10     9   ar
    43     7     9   ar
    44    36    37    2
    45    36    35    1
    46    87    86    2
    47    35    34    1
    48    34    32   am
    49    86    85    1
    50    48    47    2
    51    24    26   ar
    52    79    80    1
    53    30    31    1
    54    71    69   ar
    55    71    72   ar
    56    69    68   ar
    57    27    28   ar
    58    46    47    1
    59    46    49    1
    60    63    64    1
    61    58    57    2
    62    64    67    1
    63    85    84    1
    64    85    88    1
    65    49    50    1
    66    32    31    1
    67    32    33    2
    68    80    81    2
    69    26    28   ar
    70    72    70   ar
    71    28    29    1
    72    68    67    1
    73    68    70   ar
    74    90    89    2
    75    88    89    1
    76    57    56    1
    77    81    82    1
    78    81    83    1
    79    50    52   ar
    80    50    51   ar
    81    89    91   am
    82    55    56    1
    83    52    54   ar
    84    51    53   ar
    85    56    59    1
    86    59    60    1
    87    53    54   ar
    88    60    62   ar
    89    60    61   ar
