@<TRIPOS>MOLECULE
tmp/5f91C00.pdb
 114 106 0 0 0
SMALL
GASTEIGER

@<TRIPOS>ATOM
      1  N        172.0220    2.5490   23.6480 N.3   177  ARG177     -0.1245
      2  CA       172.4050    3.0780   24.9560 C.3   177  ARG177      0.1563
      3  C        172.9210    4.4900   24.7980 C.2   177  ARG177      0.2260
      4  O        173.9100    4.7080   24.1010 O.2   177  ARG177     -0.2867
      5  CB       173.4960    2.2240   25.6250 C.3   177  ARG177      0.0307
      6  CG       172.9810    1.1990   26.6050 C.3   177  ARG177      0.0489
      7  CD       174.1100    0.4160   27.2670 C.3   177  ARG177      0.2205
      8  NE       173.6350   -0.9240   27.5870 N.pl3 177  ARG177     -0.0865
      9  CZ       173.7560   -1.9640   26.7710 C.cat 177  ARG177      0.5346
     10  NH1      174.3660   -1.8160   25.6030 N.pl3 177  ARG177      0.1354
     11  NH2      173.2810   -3.1500   27.1220 N.pl3 177  ARG177      0.1354
     12  N        179.8480  -13.0510   33.4840 N.3   294  PRO294     -0.2102
     13  CA       178.7550  -13.4870   32.6140 C.3   294  PRO294      0.1504
     14  C        177.3540  -13.3230   33.2000 C.2   294  PRO294      0.2575
     15  O        176.3810  -13.5760   32.4800 O.2   294  PRO294     -0.2718
     16  CB       179.0660  -14.9720   32.4100 C.3   294  PRO294      0.0282
     17  CG       179.6680  -15.3840   33.6920 C.3   294  PRO294      0.0208
     18  CD       180.4540  -14.1880   34.2020 C.3   294  PRO294      0.0893
     19  N        177.2500  -12.9260   34.4670 N.am  295  LEU295     -0.1980
     20  CA       175.9520  -12.8130   35.1160 C.3   295  LEU295      0.1596
     21  C        175.5300  -11.3720   35.3730 C.2   295  LEU295      0.2287
     22  O        174.4150  -10.9770   35.0220 O.2   295  LEU295     -0.2864
     23  CB       175.9430  -13.5780   36.4420 C.3   295  LEU295      0.0297
     24  CG       174.6380  -13.4340   37.2250 C.3   295  LEU295      0.0022
     25  CD1      173.4810  -14.1100   36.5090 C.3   295  LEU295      0.0001
     26  CD2      174.7680  -13.9730   38.6560 C.3   295  LEU295      0.0001
     27  N        176.9070   -8.4340   34.3670 N.3   297  GLY297     -0.1210
     28  CA       177.2300   -7.4300   33.3540 C.3   297  GLY297      0.1956
     29  C        176.2310   -7.3110   32.2190 C.2   297  GLY297      0.2612
     30  O        175.1000   -7.7660   32.3240 O.2   297  GLY297     -0.2717
     31  N        176.6530   -6.6960   31.1160 N.am  298  LEU298     -0.1965
     32  CA       175.7670   -6.4810   29.9720 C.3   298  LEU298      0.1728
     33  C        175.5820   -7.7760   29.1840 C.2   298  LEU298      0.2616
     34  O        174.5050   -8.0300   28.6370 O.2   298  LEU298     -0.2715
     35  CB       176.3190   -5.3850   29.0580 C.3   298  LEU298      0.0311
     36  CG       176.6290   -4.0500   29.7460 C.3   298  LEU298      0.0022
     37  CD1      177.0310   -2.9870   28.7160 C.3   298  LEU298      0.0001
     38  CD2      175.4280   -3.6040   30.5830 C.3   298  LEU298      0.0001
     39  N        176.6440   -8.5780   29.1460 N.am  299  ALA299     -0.1977
     40  CA       176.6560   -9.8920   28.5000 C.3   299  ALA299      0.1597
     41  C        176.1080   -9.8660   27.0820 C.2   299  ALA299      0.2287
     42  O        175.2900  -10.7030   26.7030 O.2   299  ALA299     -0.2864
     43  CB       175.8800  -10.9020   29.3410 C.3   299  ALA299      0.0319
     44  N        180.6840  -12.3420   23.6840 N.3   302  GLN302     -0.1245
     45  CA       181.7330  -13.0800   24.3720 C.3   302  GLN302      0.1566
     46  C        183.0390  -12.8620   23.6300 C.2   302  GLN302      0.2260
     47  O        183.1140  -13.0510   22.4170 O.2   302  GLN302     -0.2867
     48  CB       181.4090  -14.5810   24.4500 C.3   302  GLN302      0.0367
     49  CG       180.1100  -14.8980   25.1600 C.3   302  GLN302      0.0905
     50  CD       179.6970  -16.3530   25.0160 C.2   302  GLN302      0.2608
     51  OE1      180.2260  -17.0850   24.1800 O.2   302  GLN302     -0.2717
     52  NE2      178.7410  -16.7760   25.8340 N.am  302  GLN302     -0.0878
     53  N        175.5550  -12.7570   21.5580 N.3   376  ASN376     -0.1240
     54  CA       174.3840  -13.4370   22.1050 C.3   376  ASN376      0.1653
     55  C        173.1220  -12.9160   21.4150 C.2   376  ASN376      0.2266
     56  O        172.3680  -12.1320   21.9850 O.2   376  ASN376     -0.2867
     57  CB       174.2960  -13.2420   23.6260 C.3   376  ASN376      0.1155
     58  CG       175.4780  -13.8370   24.3560 C.2   376  ASN376      0.2627
     59  OD1      176.0370  -14.8430   23.9250 O.2   376  ASN376     -0.2716
     60  ND2      175.8700  -13.2200   25.4670 N.am  376  ASN376     -0.0877
     61  N        169.3950  -13.3920   22.8630 N.3   379  HIS379     -0.1241
     62  CA       169.2940  -12.6460   24.1100 C.3   379  HIS379      0.1621
     63  C        169.2490  -11.1270   23.8780 C.2   379  HIS379      0.2264
     64  O        168.4460  -10.4170   24.4990 O.2   379  HIS379     -0.2867
     65  CB       170.4570  -13.0090   25.0250 C.3   379  HIS379      0.0745
     66  CG       170.4800  -12.2450   26.3090 C.ar  379  HIS379      0.0817
     67  ND1      169.5450  -12.4350   27.3070 N.ar  379  HIS379     -0.2268
     68  CD2      171.3310  -11.2960   26.7630 C.ar  379  HIS379      0.1154
     69  CE1      169.8220  -11.6320   28.3190 C.ar  379  HIS379      0.1986
     70  NE2      170.9010  -10.9340   28.0150 N.ar  379  HIS379     -0.2212
     71  N        165.7660  -10.2860   22.5060 N.3   382  ARG382     -0.1231
     72  CA       164.7640  -10.4070   23.5650 C.3   382  ARG382      0.1694
     73  C        164.7540   -9.1580   24.4530 C.2   382  ARG382      0.2591
     74  O        163.6940   -8.6140   24.7280 O.2   382  ARG382     -0.2718
     75  CB       165.0130  -11.6760   24.3920 C.3   382  ARG382      0.0321
     76  CG       164.2950  -11.7560   25.7470 C.3   382  ARG382      0.0489
     77  CD       162.7760  -11.7610   25.6180 C.3   382  ARG382      0.2205
     78  NE       162.1100  -12.4810   26.7130 N.pl3 382  ARG382     -0.0865
     79  CZ       161.6940  -11.9360   27.8600 C.cat 382  ARG382      0.5346
     80  NH1      161.8690  -10.6380   28.1090 N.pl3 382  ARG382      0.1354
     81  NH2      161.1000  -12.7010   28.7700 N.pl3 382  ARG382      0.1354
     82  N        165.9290   -8.6890   24.8750 N.am  383  LEU383     -0.1980
     83  CA       166.0190   -7.4420   25.6340 C.3   383  LEU383      0.1596
     84  C        165.4840   -6.2580   24.8320 C.2   383  LEU383      0.2287
     85  O        164.6800   -5.4730   25.3410 O.2   383  LEU383     -0.2864
     86  CB       167.4650   -7.1640   26.0710 C.3   383  LEU383      0.0297
     87  CG       168.0810   -8.1870   27.0290 C.3   383  LEU383      0.0022
     88  CD1      169.4730   -7.7580   27.4870 C.3   383  LEU383      0.0001
     89  CD2      167.1510   -8.4100   28.2200 C.3   383  LEU383      0.0001
     90  N        161.9290   -6.0970   24.8790 N.3   386  SER386     -0.1217
     91  CA       161.3670   -5.9840   26.2210 C.3   386  SER386      0.1889
     92  C        161.6030   -4.6200   26.8660 C.2   386  SER386      0.2288
     93  O        161.3240   -4.4290   28.0460 O.2   386  SER386     -0.2866
     94  CB       161.9490   -7.0740   27.1190 C.3   386  SER386      0.2089
     95  OG       161.6630   -8.3520   26.5700 O.3   386  SER386     -0.2183
     96  N        158.6430   -4.4940   32.3460 N.3   411  LEU411     -0.1245
     97  CA       159.8620   -4.4990   33.1250 C.3   411  LEU411      0.1561
     98  C        159.6820   -5.3210   34.4120 C.2   411  LEU411      0.2260
     99  O        160.5080   -6.1740   34.7410 O.2   411  LEU411     -0.2867
    100  CB       160.2710   -3.0600   33.4450 C.3   411  LEU411      0.0270
    101  CG       161.5730   -2.8710   34.2150 C.3   411  LEU411      0.0019
    102  CD1      162.7230   -3.4680   33.4260 C.3   411  LEU411      0.0001
    103  CD2      161.8080   -1.3950   34.5090 C.3   411  LEU411      0.0001
    104  N        159.3660   -8.9900   33.5590 N.3   414  ARG414     -0.1245
    105  CA       160.4130   -9.4610   32.6580 C.3   414  ARG414      0.1563
    106  C        159.8390  -10.1370   31.4130 C.2   414  ARG414      0.2260
    107  O        160.2190  -11.2570   31.0590 O.2   414  ARG414     -0.2867
    108  CB       161.3680  -10.3980   33.4050 C.3   414  ARG414      0.0307
    109  CG       162.1980   -9.6590   34.4590 C.3   414  ARG414      0.0489
    110  CD       163.0580  -10.5960   35.3060 C.3   414  ARG414      0.2205
    111  NE       163.9520   -9.8390   36.1860 N.pl3 414  ARG414     -0.0865
    112  CZ       163.5980   -9.3380   37.3680 C.cat 414  ARG414      0.5346
    113  NH1      162.3650   -9.5130   37.8170 N.pl3 414  ARG414      0.1354
    114  NH2      164.4750   -8.6600   38.1030 N.pl3 414  ARG414      0.1354
@<TRIPOS>BOND
     1    55    56    2
     2    55    54    1
     3    53    54    1
     4    54    57    1
     5    47    46    2
     6    71    72    1
     7    61    62    1
     8    72    75    1
     9    72    73    1
    10    57    58    1
    11    46    45    1
    12     1     2    1
    13    44    45    1
    14    63    62    1
    15    63    64    2
    16    59    58    2
    17     4     3    2
    18    62    65    1
    19    51    50    2
    20    58    60   am
    21    45    48    1
    22    75    76    1
    23    48    49    1
    24    73    74    2
    25    73    82   am
    26     3     2    1
    27    84    85    2
    28    84    83    1
    29    82    83    1
    30    90    91    1
    31     2     5    1
    32    50    49    1
    33    50    52   am
    34    65    66    1
    35    10     9    1
    36    77    76    1
    37    77    78    1
    38     5     6    1
    39    83    86    1
    40    86    87    1
    41    91    92    1
    42    91    94    1
    43    66    68   ar
    44    66    67   ar
    45    95    94    1
    46     6     7    1
    47    42    41    2
    48    78    79    2
    49    68    70   ar
    50     9    11    1
    51     9     8    2
    52    92    93    2
    53    87    88    1
    54    87    89    1
    55    41    40    1
    56     7     8    1
    57    67    69   ar
    58    79    80    1
    59    79    81    1
    60    70    69   ar
    61    40    39    1
    62    40    43    1
    63    34    33    2
    64    37    36    1
    65    35    36    1
    66    35    32    1
    67    39    33   am
    68    33    32    1
    69    36    38    1
    70    32    31    1
    71   107   106    2
    72    31    29   am
    73   106   105    1
    74    29    30    2
    75    29    28    1
    76    96    97    1
    77    16    13    1
    78    16    17    1
    79    15    14    2
    80    13    14    1
    81    13    12    1
    82   105   108    1
    83   105   104    1
    84    97   100    1
    85    97    98    1
    86    14    19   am
    87    28    27    1
    88   108   109    1
    89   102   101    1
    90   100   101    1
    91    12    18    1
    92    17    18    1
    93   101   103    1
    94    98    99    2
    95   109   110    1
    96    19    20    1
    97    22    21    2
    98    20    21    1
    99    20    23    1
   100   110   111    1
   101   111   112    2
   102    23    24    1
   103    25    24    1
   104    24    26    1
   105   112   113    1
   106   112   114    1
