@<TRIPOS>MOLECULE
tmp/5f93A03.pdb
 84 80 0 0 0
SMALL
GASTEIGER

@<TRIPOS>ATOM
      1  N         74.9820   11.5330  175.5330 N.3   159  CYS159     -0.1221
      2  CA        73.9140   11.5820  176.5670 C.3   159  CYS159      0.1808
      3  C         73.3140   12.9610  176.7650 C.2   159  CYS159      0.2601
      4  O         74.0230   13.9010  177.1250 O.2   159  CYS159     -0.2717
      5  CB        74.4620   11.2230  177.9340 C.3   159  CYS159      0.0970
      6  SG        74.9110    9.5130  178.0800 S.3   159  CYS159     -0.0800
      7  N         72.0050   13.0950  176.6170 N.am  160  TYR160     -0.1962
      8  CA        71.4000   14.3560  177.0230 C.3   160  TYR160      0.1771
      9  C         70.1020   14.2550  177.8180 C.2   160  TYR160      0.2620
     10  O         69.4710   13.1950  177.8700 O.2   160  TYR160     -0.2715
     11  CB        71.3060   15.3240  175.8300 C.3   160  TYR160      0.0574
     12  CG        70.3080   15.0590  174.7190 C.ar  160  TYR160     -0.0198
     13  CD1       68.9530   15.3290  174.8880 C.ar  160  TYR160     -0.0009
     14  CD2       70.7400   14.6600  173.4620 C.ar  160  TYR160     -0.0009
     15  CE1       68.0460   15.1540  173.8500 C.ar  160  TYR160      0.0417
     16  CE2       69.8480   14.4850  172.4140 C.ar  160  TYR160      0.0417
     17  CZ        68.5030   14.7330  172.6100 C.ar  160  TYR160      0.1957
     18  OH        67.6300   14.5590  171.5670 O.3   160  TYR160     -0.2866
     19  N         69.7610   15.3660  178.4770 N.am  161  GLY161     -0.1954
     20  CA        68.4940   15.5060  179.1680 C.3   161  GLY161      0.1869
     21  C         68.6730   15.4870  180.6590 C.2   161  GLY161      0.2309
     22  O         69.7130   15.0730  181.1490 O.2   161  GLY161     -0.2863
     23  N         68.8770   14.5500  184.3610 N.3   163  GLY163     -0.1210
     24  CA        69.0960   13.3410  185.1570 C.3   163  GLY163      0.1956
     25  C         69.6480   12.1330  184.4110 C.2   163  GLY163      0.2611
     26  O         69.7440   11.0410  184.9950 O.2   163  GLY163     -0.2717
     27  N         70.0260   12.3150  183.1320 N.am  164  ASN164     -0.1974
     28  CA        70.6510   11.2410  182.3360 C.3   164  ASN164      0.1688
     29  C         72.0460   10.9500  182.8340 C.2   164  ASN164      0.2292
     30  O         72.9260   11.7840  182.7130 O.2   164  ASN164     -0.2864
     31  CB        70.7220   11.5990  180.8560 C.3   164  ASN164      0.1181
     32  CG        71.2070   10.4380  180.0070 C.2   164  ASN164      0.2629
     33  OD1       71.7450    9.4530  180.5190 O.2   164  ASN164     -0.2716
     34  ND2       71.0070   10.5420  178.7020 N.am  164  ASN164     -0.0877
     35  N         78.1480    8.8390  182.8290 N.3   168  GLU168     -0.1245
     36  CA        79.0480    8.8600  183.9780 C.3   168  GLU168      0.1567
     37  C         79.8020    7.5390  183.9360 C.2   168  GLU168      0.2260
     38  O         79.2010    6.4850  183.8930 O.2   168  GLU168     -0.2867
     39  CB        78.2630    9.0240  185.2850 C.3   168  GLU168      0.0388
     40  CG        77.5350   10.3740  185.4110 C.3   168  GLU168      0.1160
     41  CD        76.6290   10.4740  186.6510 C.2   168  GLU168      0.3649
     42  OE1       76.9220    9.7960  187.6650 O.co2 168  GLU168     -0.2457
     43  OE2       75.6240   11.2350  186.6150 O.co2 168  GLU168     -0.2457
     44  N         84.3690   14.3040  183.5450 N.3   179  GLN179     -0.1245
     45  CA        83.2940   14.4660  182.5720 C.3   179  GLN179      0.1566
     46  C         83.6660   15.3590  181.3930 C.2   179  GLN179      0.2260
     47  O         83.2700   15.1000  180.2560 O.2   179  GLN179     -0.2867
     48  CB        82.0300   14.9880  183.2670 C.3   179  GLN179      0.0367
     49  CG        80.7840   14.9450  182.3890 C.3   179  GLN179      0.0905
     50  CD        79.5670   14.3330  183.0740 C.2   179  GLN179      0.2608
     51  OE1       79.6960   13.4610  183.9460 O.2   179  GLN179     -0.2717
     52  NE2       78.3680   14.7630  182.6540 N.am  179  GLN179     -0.0878
     53  N         82.1140   17.4360  177.2830 N.3   203  VAL203     -0.1245
     54  CA        80.8230   18.1210  177.4070 C.3   203  VAL203      0.1561
     55  C         80.6910   19.2110  176.3600 C.2   203  VAL203      0.2260
     56  O         81.6400   19.9380  176.1080 O.2   203  VAL203     -0.2867
     57  CB        80.6340   18.7880  178.7780 C.3   203  VAL203      0.0252
     58  CG1       79.2190   19.3430  178.8920 C.3   203  VAL203      0.0019
     59  CG2       80.9340   17.8080  179.9110 C.3   203  VAL203      0.0019
     60  N         72.4600   20.6530  175.9570 N.3   216  SER216     -0.1202
     61  CA        73.8440   20.3890  176.3930 C.3   216  SER216      0.2020
     62  C         74.0430   18.8900  176.5620 C.2   216  SER216      0.2619
     63  O         73.2270   18.2370  177.2160 O.2   216  SER216     -0.2717
     64  CB        74.1680   21.1020  177.7220 C.3   216  SER216      0.2103
     65  OG        74.0910   22.5230  177.6360 O.3   216  SER216     -0.2182
     66  N         75.1090   18.3410  175.9740 N.am  217  TYR217     -0.1961
     67  CA        75.3220   16.8860  176.0030 C.3   217  TYR217      0.1771
     68  C         76.7170   16.4450  176.3990 C.2   217  TYR217      0.2620
     69  O         77.6440   17.2370  176.4670 O.2   217  TYR217     -0.2715
     70  CB        74.9430   16.2360  174.6770 C.3   217  TYR217      0.0574
     71  CG        75.7910   16.6090  173.4860 C.ar  217  TYR217     -0.0198
     72  CD1       77.0520   16.0410  173.2730 C.ar  217  TYR217     -0.0009
     73  CD2       75.2940   17.4790  172.5190 C.ar  217  TYR217     -0.0009
     74  CE1       77.7950   16.3590  172.1410 C.ar  217  TYR217      0.0417
     75  CE2       76.0330   17.8140  171.3970 C.ar  217  TYR217      0.0417
     76  CZ        77.2740   17.2570  171.2150 C.ar  217  TYR217      0.1957
     77  OH        77.9530   17.6220  170.0970 O.3   217  TYR217     -0.2866
     78  N         76.8190   15.1570  176.6920 N.am  218  THR218     -0.1951
     79  CA        78.0620   14.5150  177.0070 C.3   218  THR218      0.1897
     80  C         78.3260   13.4530  175.9550 C.2   218  THR218      0.2313
     81  O         77.4890   12.5920  175.7110 O.2   218  THR218     -0.2863
     82  CB        77.9830   13.8160  178.3640 C.3   218  THR218      0.1794
     83  OG1       77.3840   14.6920  179.3350 O.3   218  THR218     -0.2208
     84  CG2       79.3880   13.3670  178.8070 C.3   218  THR218      0.0378
@<TRIPOS>BOND
     1    77    76    1
     2    76    75   ar
     3    76    74   ar
     4    75    73   ar
     5    18    17    1
     6    74    72   ar
     7    16    17   ar
     8    16    14   ar
     9    73    71   ar
    10    17    15   ar
    11    72    71   ar
    12    14    12   ar
    13    71    70    1
    14    15    13   ar
    15    70    67    1
    16    12    13   ar
    17    12    11    1
    18     1     2    1
    19    81    80    2
    20    11     8    1
    21    80    79    1
    22    60    61    1
    23    66    67    1
    24    66    62   am
    25    67    68    1
    26    56    55    2
    27    55    54    1
    28    61    62    1
    29    61    64    1
    30    68    69    2
    31    68    78   am
    32    62    63    2
    33     2     3    1
    34     2     5    1
    35     7     3   am
    36     7     8    1
    37    78    79    1
    38     3     4    2
    39    79    82    1
    40     8     9    1
    41    53    54    1
    42    54    57    1
    43    65    64    1
    44     9    10    2
    45     9    19   am
    46     5     6    1
    47    82    84    1
    48    82    83    1
    49    19    20    1
    50    34    32   am
    51    57    58    1
    52    57    59    1
    53    20    21    1
    54    32    33    2
    55    32    31    1
    56    47    46    2
    57    21    22    2
    58    31    28    1
    59    46    45    1
    60    28    29    1
    61    28    27    1
    62    49    50    1
    63    49    48    1
    64    45    48    1
    65    45    44    1
    66    52    50   am
    67    30    29    2
    68    35    36    1
    69    50    51    2
    70    27    25   am
    71    38    37    2
    72    37    36    1
    73    36    39    1
    74    23    24    1
    75    25    26    2
    76    25    24    1
    77    39    40    1
    78    40    41    1
    79    43    41   ar
    80    41    42   ar
