@<TRIPOS>MOLECULE
tmp/5f94B00.pdb
 167 159 0 0 0
SMALL
GASTEIGER

@<TRIPOS>ATOM
      1  N          3.8220    4.0210   29.5820 N.3    26  ILE26      -0.1231
      2  CA         3.0200    2.9520   30.1710 C.3    26  ILE26       0.1692
      3  C          1.6040    2.9620   29.6400 C.2    26  ILE26       0.2593
      4  O          0.7370    2.2620   30.1630 O.2    26  ILE26      -0.2718
      5  CB         2.9620    3.0450   31.7100 C.3    26  ILE26       0.0266
      6  CG1        2.1770    4.2890   32.1550 C.3    26  ILE26       0.0019
      7  CG2        4.3800    2.9730   32.3080 C.3    26  ILE26       0.0020
      8  CD1        2.1090    4.4690   33.6690 C.3    26  ILE26       0.0001
      9  N          1.3650    3.7910   28.6310 N.am   27  GLY27      -0.1942
     10  CA         0.0380    3.9210   28.0680 C.3    27  GLY27       0.2014
     11  C         -0.0340    4.9350   26.9490 C.2    27  GLY27       0.2638
     12  O          0.5160    6.0300   27.0450 O.2    27  GLY27      -0.2714
     13  N         -0.7060    4.5520   25.8740 N.am   28  ASN28      -0.1972
     14  CA        -0.9920    5.4590   24.7760 C.3    28  ASN28       0.1688
     15  C         -2.4860    5.5860   24.6540 C.2    28  ASN28       0.2292
     16  O         -3.2170    4.7520   25.1770 O.2    28  ASN28      -0.2864
     17  CB        -0.4040    4.9430   23.4670 C.3    28  ASN28       0.1181
     18  CG         1.0940    5.0350   23.4340 C.2    28  ASN28       0.2629
     19  OD1        1.6570    6.1060   23.2090 O.2    28  ASN28      -0.2716
     20  ND2        1.7580    3.9080   23.6620 N.am   28  ASN28      -0.0877
     21  N         -5.9220   10.6240   23.7850 N.3    31  PHE31      -0.1241
     22  CA        -5.6270   11.8090   24.5930 C.3    31  PHE31       0.1605
     23  C         -4.1620   12.2500   24.4690 C.2    31  PHE31       0.2264
     24  O         -3.8430   13.4390   24.5610 O.2    31  PHE31      -0.2867
     25  CB        -5.9620   11.5170   26.0500 C.3    31  PHE31       0.0534
     26  CG        -5.1920   10.3560   26.6050 C.ar   31  PHE31      -0.0203
     27  CD1       -3.9490   10.5400   27.1800 C.ar   31  PHE31      -0.0042
     28  CD2       -5.6920    9.0660   26.5000 C.ar   31  PHE31      -0.0042
     29  CE1       -3.2310    9.4560   27.6520 C.ar   31  PHE31      -0.0003
     30  CE2       -4.9830    7.9790   26.9850 C.ar   31  PHE31      -0.0003
     31  CZ        -3.7570    8.1690   27.5520 C.ar   31  PHE31      -0.0000
     32  N          0.7520    8.4670   28.4910 N.3    34  VAL34      -0.1245
     33  CA         0.9930    8.4160   29.9290 C.3    34  VAL34       0.1561
     34  C          2.3830    7.8200   30.2100 C.2    34  VAL34       0.2260
     35  O          2.6750    6.6740   29.8610 O.2    34  VAL34      -0.2867
     36  CB        -0.0870    7.6180   30.6820 C.3    34  VAL34       0.0252
     37  CG1        0.2020    7.6500   32.1910 C.3    34  VAL34       0.0019
     38  CG2       -1.4750    8.2080   30.4200 C.3    34  VAL34       0.0019
     39  N          2.9410    8.9810   37.5590 N.3    47  ALA47      -0.1245
     40  CA         2.4930    8.8890   36.1790 C.3    47  ALA47       0.1562
     41  C          2.3640   10.2980   35.6310 C.2    47  ALA47       0.2260
     42  O          1.7020   11.1480   36.2260 O.2    47  ALA47      -0.2867
     43  CB         1.1810    8.1520   36.0760 C.3    47  ALA47       0.0290
     44  N          0.7850   12.3330   32.7410 N.3    49  LYS49      -0.1245
     45  CA        -0.1360   12.3150   31.6150 C.3    49  LYS49       0.1561
     46  C          0.0900   13.5430   30.7500 C.2    49  LYS49       0.2260
     47  O         -0.1460   14.6670   31.1720 O.2    49  LYS49      -0.2867
     48  CB        -1.5880   12.2470   32.1090 C.3    49  LYS49       0.0271
     49  CG        -2.6290   12.1510   31.0010 C.3    49  LYS49       0.0035
     50  CD        -4.0240   12.1220   31.5960 C.3    49  LYS49       0.0206
     51  CE        -5.0770   11.9040   30.5100 C.3    49  LYS49       0.1093
     52  NZ        -6.4290   11.6030   31.0700 N.3    49  LYS49      -0.1314
     53  N         -7.3100    9.3390   42.0650 N.3    74  VAL74      -0.1245
     54  CA        -5.8940    9.4590   41.7180 C.3    74  VAL74       0.1561
     55  C         -5.4380   10.8730   42.0640 C.2    74  VAL74       0.2260
     56  O         -6.1580   11.8490   41.8380 O.2    74  VAL74      -0.2867
     57  CB        -5.6560    9.1350   40.2250 C.3    74  VAL74       0.0252
     58  CG1       -6.3910   10.1500   39.3040 C.3    74  VAL74       0.0019
     59  CG2       -4.1840    9.0710   39.9090 C.3    74  VAL74       0.0019
     60  N          0.7930   12.5540   38.4320 N.3    96  LEU96      -0.1231
     61  CA        -0.0980   11.8640   39.3250 C.3    96  LEU96       0.1693
     62  C          0.6910   10.8390   40.0960 C.2    96  LEU96       0.2592
     63  O          1.6230   10.2610   39.5540 O.2    96  LEU96      -0.2718
     64  CB        -1.2240   11.1860   38.5350 C.3    96  LEU96       0.0284
     65  CG        -1.9360   12.0020   37.4540 C.3    96  LEU96       0.0019
     66  CD1       -2.3220   11.1130   36.2830 C.3    96  LEU96       0.0001
     67  CD2       -3.1810   12.6840   38.0120 C.3    96  LEU96       0.0001
     68  N          0.3110   10.6030   41.3500 N.am   97  ASP97      -0.1960
     69  CA         0.9070    9.5270   42.1290 C.3    97  ASP97       0.1840
     70  C          0.6240    8.1950   41.4440 C.2    97  ASP97       0.2622
     71  O         -0.5210    7.8430   41.1920 O.2    97  ASP97      -0.2715
     72  CB         0.3780    9.5400   43.5750 C.3    97  ASP97       0.1450
     73  CG         1.1000    8.5400   44.4670 C.2    97  ASP97       0.3671
     74  OD1        2.2510    8.0700   44.1530 O.co2  97  ASP97      -0.2456
     75  OD2        0.6010    8.3010   45.5760 O.co2  97  ASP97      -0.2456
     76  N          1.6790    7.4660   41.1300 N.am   98  TYR98      -0.1960
     77  CA         1.5640    6.2020   40.4140 C.3    98  TYR98       0.1771
     78  C          0.9550    5.1080   41.2930 C.2    98  TYR98       0.2619
     79  O          1.3150    4.9540   42.4500 O.2    98  TYR98      -0.2715
     80  CB         2.9510    5.7730   39.8940 C.3    98  TYR98       0.0574
     81  CG         2.9790    4.4340   39.1950 C.ar   98  TYR98      -0.0198
     82  CD1        2.5720    4.3000   37.8750 C.ar   98  TYR98      -0.0009
     83  CD2        3.4300    3.3030   39.8570 C.ar   98  TYR98      -0.0009
     84  CE1        2.5920    3.0670   37.2380 C.ar   98  TYR98       0.0417
     85  CE2        3.4550    2.0720   39.2370 C.ar   98  TYR98       0.0417
     86  CZ         3.0370    1.9560   37.9260 C.ar   98  TYR98       0.1957
     87  OH         3.0690    0.7220   37.3050 O.3    98  TYR98      -0.2866
     88  N          0.0330    4.3430   40.7270 N.am   99  VAL99      -0.1964
     89  CA        -0.5490    3.1930   41.4080 C.3    99  VAL99       0.1712
     90  C         -0.2700    1.9630   40.5300 C.2    99  VAL99       0.2458
     91  O         -0.4870    2.0030   39.3190 O.2    99  VAL99      -0.2730
     92  CB        -2.0730    3.3920   41.6520 C.3    99  VAL99       0.0289
     93  CG1       -2.6690    2.2360   42.4070 C.3    99  VAL99       0.0023
     94  CG2       -2.3420    4.7180   42.3580 C.3    99  VAL99       0.0023
     95  N          0.2240    0.8670   41.1310 N.am  100  PRO100     -0.2716
     96  CA         0.8090   -0.1910   40.2940 C.3   100  PRO100      0.1536
     97  C         -0.1860   -1.0490   39.5120 C.2   100  PRO100      0.2598
     98  O          0.2230   -1.6490   38.5210 O.2   100  PRO100     -0.2715
     99  CB         1.5630   -1.0830   41.3090 C.3   100  PRO100      0.0310
    100  CG         1.4600   -0.4030   42.6130 C.3   100  PRO100      0.0237
    101  CD         0.3410    0.5610   42.5690 C.3   100  PRO100      0.0939
    102  N         -1.4450   -1.1320   39.9230 N.am  101  GLU101     -0.1964
    103  CA        -2.3430   -2.0530   39.2300 C.3   101  GLU101      0.1733
    104  C         -3.6740   -1.4390   38.8270 C.2   101  GLU101      0.2617
    105  O         -3.9550   -0.2740   39.1140 O.2   101  GLU101     -0.2715
    106  CB        -2.5830   -3.2970   40.0980 C.3   101  GLU101      0.0429
    107  CG        -1.4050   -4.2630   40.0810 C.3   101  GLU101      0.1163
    108  CD        -1.1640   -4.9020   38.7040 C.2   101  GLU101      0.3649
    109  OE1       -2.0700   -4.8230   37.8390 O.co2 101  GLU101     -0.2457
    110  OE2       -0.0500   -5.4450   38.4760 O.co2 101  GLU101     -0.2457
    111  N         -4.4640   -2.2210   38.1000 N.am  102  THR102     -0.1951
    112  CA        -5.8220   -1.8390   37.7690 C.3   102  THR102      0.1897
    113  C         -6.7480   -3.0260   37.9750 C.2   102  THR102      0.2313
    114  O         -6.3130   -4.1920   37.9970 O.2   102  THR102     -0.2863
    115  CB        -6.0000   -1.3320   36.2890 C.3   102  THR102      0.1794
    116  OG1       -5.8910   -2.4370   35.3820 O.3   102  THR102     -0.2208
    117  CG2       -5.0090   -0.2150   35.9250 C.3   102  THR102      0.0378
    118  N         -6.4510   -5.3630   34.9210 N.3   105  ARG105     -0.1245
    119  CA        -5.3480   -6.3230   34.9260 C.3   105  ARG105      0.1563
    120  C         -5.5430   -7.4390   35.9500 C.2   105  ARG105      0.2260
    121  O         -5.3310   -8.6100   35.6430 O.2   105  ARG105     -0.2867
    122  CB        -4.0150   -5.6120   35.1710 C.3   105  ARG105      0.0307
    123  CG        -3.6040   -4.7170   34.0120 C.3   105  ARG105      0.0489
    124  CD        -2.4950   -3.7400   34.3610 C.3   105  ARG105      0.2205
    125  NE        -1.4740   -4.3390   35.2100 N.pl3 105  ARG105     -0.0865
    126  CZ        -0.1790   -4.0340   35.1460 C.cat 105  ARG105      0.5346
    127  NH1        0.2470   -3.1370   34.2640 N.pl3 105  ARG105      0.1354
    128  NH2        0.6900   -4.6290   35.9540 N.pl3 105  ARG105      0.1354
    129  N        -10.1980   -0.4640   33.4100 N.3   149  GLN149     -0.1231
    130  CA        -8.8690    0.0760   33.1510 C.3   149  GLN149      0.1698
    131  C         -8.7070    1.4140   33.8430 C.2   149  GLN149      0.2592
    132  O         -7.5900    1.9070   33.9860 O.2   149  GLN149     -0.2718
    133  CB        -8.5910    0.2390   31.6550 C.3   149  GLN149      0.0381
    134  CG        -8.4970   -1.0680   30.8790 C.3   149  GLN149      0.0905
    135  CD        -9.7410   -1.3630   30.0590 C.2   149  GLN149      0.2608
    136  OE1      -10.8720   -1.4810   30.5880 O.2   149  GLN149     -0.2717
    137  NE2       -9.5400   -1.5010   28.7590 N.am  149  GLN149     -0.0878
    138  N         -9.8200    2.0110   34.2550 N.am  150  ASN150     -0.1974
    139  CA        -9.7560    3.2680   34.9920 C.3   150  ASN150      0.1688
    140  C         -9.9160    3.0750   36.5060 C.2   150  ASN150      0.2292
    141  O        -10.1610    4.0300   37.2360 O.2   150  ASN150     -0.2864
    142  CB       -10.8040    4.2420   34.4720 C.3   150  ASN150      0.1181
    143  CG       -10.4620    4.7560   33.0850 C.2   150  ASN150      0.2629
    144  OD1       -9.2980    4.8040   32.7200 O.2   150  ASN150     -0.2716
    145  ND2      -11.4700    5.1510   32.3160 N.am  150  ASN150     -0.0877
    146  N         -7.7130    2.0010   39.4190 N.3   152  LEU152     -0.1245
    147  CA        -6.3730    1.7090   39.9030 C.3   152  LEU152      0.1561
    148  C         -6.4080    0.9760   41.2530 C.2   152  LEU152      0.2260
    149  O         -7.2800    1.2190   42.0890 O.2   152  LEU152     -0.2867
    150  CB        -5.5860    3.0110   40.0300 C.3   152  LEU152      0.0270
    151  CG        -5.4570    3.7800   38.7150 C.3   152  LEU152      0.0019
    152  CD1       -4.7150    5.1010   38.8710 C.3   152  LEU152      0.0001
    153  CD2       -4.7310    2.8930   37.7520 C.3   152  LEU152      0.0001
    154  N         -9.2860    6.8300   38.2250 N.3   163  CYS163     -0.1221
    155  CA        -8.4690    7.7390   37.4110 C.3   163  CYS163      0.1808
    156  C         -9.1030    8.0090   36.0460 C.2   163  CYS163      0.2601
    157  O        -10.2220    7.5320   35.7570 O.2   163  CYS163     -0.2717
    158  CB        -7.0380    7.1920   37.2360 C.3   163  CYS163      0.0970
    159  SG        -6.7900    5.8500   36.0070 S.3   163  CYS163     -0.0800
    160  N         -8.3600    8.7400   35.2100 N.am  164  ASP164     -0.1973
    161  CA        -8.7960    9.1680   33.8780 C.3   164  ASP164      0.1709
    162  C        -10.0550   10.0440   33.8840 C.2   164  ASP164      0.2293
    163  O        -11.1670    9.5740   33.6550 O.2   164  ASP164     -0.2864
    164  CB        -9.0110    7.9550   32.9630 C.3   164  ASP164      0.1436
    165  CG        -9.2500    8.3540   31.5130 C.2   164  ASP164      0.3671
    166  OD1       -9.1230    9.5620   31.1900 O.co2 164  ASP164     -0.2456
    167  OD2       -9.5010    7.4480   30.6850 O.co2 164  ASP164     -0.2456
@<TRIPOS>BOND
     1    19    18    2
     2    18    17    1
     3    18    20   am
     4    17    14    1
     5    21    22    1
     6    23    24    2
     7    23    22    1
     8    22    25    1
     9    15    14    1
    10    15    16    2
    11    14    13    1
    12    13    11   am
    13    25    26    1
    14    28    26   ar
    15    28    30   ar
    16    26    27   ar
    17    11    12    2
    18    11    10    1
    19    30    31   ar
    20    27    29   ar
    21    31    29   ar
    22    10     9    1
    23    32    33    1
    24     9     3   am
    25   137   135   am
    26     1     2    1
    27     3     4    2
    28     3     2    1
    29    35    34    2
    30    33    34    1
    31    33    36    1
    32   135   136    2
    33   135   134    1
    34     2     5    1
    35    38    36    1
    36    51    52    1
    37    51    50    1
    38    36    37    1
    39   167   165   ar
    40    46    47    2
    41    46    45    1
    42   134   133    1
    43    49    50    1
    44    49    48    1
    45   166   165   ar
    46   165   164    1
    47    45    48    1
    48    45    44    1
    49   133   130    1
    50     5     6    1
    51     5     7    1
    52     6     8    1
    53   145   143   am
    54   144   143    2
    55   164   161    1
    56   143   142    1
    57   130   129    1
    58   130   131    1
    59   163   162    2
    60   131   132    2
    61   131   138   am
    62   161   162    1
    63   161   160    1
    64   123   124    1
    65   123   122    1
    66   138   139    1
    67   127   126    1
    68   124   125    1
    69   142   139    1
    70   118   119    1
    71   119   122    1
    72   119   120    1
    73   139   140    1
    74   126   125    2
    75   126   128    1
    76   160   156   am
    77   116   115    1
    78    41    40    1
    79    41    42    2
    80   121   120    2
    81   157   156    2
    82   117   115    1
    83   159   158    1
    84   156   155    1
    85    43    40    1
    86    40    39    1
    87    66    65    1
    88   115   112    1
    89   140   141    2
    90   158   155    1
    91    84    82   ar
    92    84    86   ar
    93    87    86    1
    94   155   154    1
    95    65    67    1
    96    65    64    1
    97   153   151    1
    98   112   113    1
    99   112   111    1
   100   109   108   ar
   101    82    81   ar
   102    86    85   ar
   103   113   114    2
   104   111   104   am
   105    60    61    1
   106   110   108   ar
   107    98    97    2
   108    64    61    1
   109   108   107    1
   110   151   152    1
   111   151   150    1
   112   104   105    2
   113   104   103    1
   114    81    83   ar
   115    81    80    1
   116   103   102    1
   117   103   106    1
   118    85    83   ar
   119    58    57    1
   120    91    90    2
   121    61    62    1
   122   146   147    1
   123    97   102   am
   124    97    96    1
   125    63    62    2
   126    80    77    1
   127   147   150    1
   128   147   148    1
   129    59    57    1
   130   107   106    1
   131    62    68   am
   132    57    54    1
   133    96    95    1
   134    96    99    1
   135    77    76    1
   136    77    78    1
   137    90    95   am
   138    90    89    1
   139    88    78   am
   140    88    89    1
   141    76    70   am
   142    95   101    1
   143    71    70    2
   144   148   149    2
   145    78    79    2
   146    99   100    1
   147    68    69    1
   148    89    92    1
   149    70    69    1
   150    92    94    1
   151    92    93    1
   152    54    55    1
   153    54    53    1
   154    56    55    2
   155    69    72    1
   156   101   100    1
   157    72    73    1
   158    74    73   ar
   159    73    75   ar
