@<TRIPOS>MOLECULE
tmp/5f95A00.pdb
 159 151 0 0 0
SMALL
GASTEIGER

@<TRIPOS>ATOM
      1  N         83.1440    0.3610  147.9790 N.3    27  ILE27      -0.1231
      2  CA        82.3060    1.4440  147.4540 C.3    27  ILE27       0.1692
      3  C         80.8430    1.2090  147.7750 C.2    27  ILE27       0.2592
      4  O         79.9600    1.7860  147.1380 O.2    27  ILE27      -0.2718
      5  CB        82.4500    1.6130  145.8980 C.3    27  ILE27       0.0266
      6  CG1       81.8990    0.3970  145.1430 C.3    27  ILE27       0.0019
      7  CG2       83.8980    1.8700  145.5110 C.3    27  ILE27       0.0020
      8  CD1       81.7550    0.6040  143.6150 C.3    27  ILE27       0.0001
      9  N         80.5790    0.3790  148.7750 N.am   28  GLY28      -0.1957
     10  CA        79.2090    0.0320  149.0840 C.3    28  GLY28       0.1869
     11  C         79.0870   -1.0640  150.1110 C.2    28  GLY28       0.2309
     12  O         79.8130   -2.0520  150.0730 O.2    28  GLY28      -0.2863
     13  N         72.6980   -6.8870  151.4010 N.3    32  PHE32      -0.1241
     14  CA        73.2230   -7.8710  150.4510 C.3    32  PHE32       0.1605
     15  C         74.6320   -8.3680  150.7700 C.2    32  PHE32       0.2264
     16  O         74.9460   -9.5520  150.5960 O.2    32  PHE32      -0.2867
     17  CB        73.2090   -7.2800  149.0370 C.3    32  PHE32       0.0534
     18  CG        73.9940   -6.0140  148.9010 C.ar   32  PHE32      -0.0203
     19  CD1       73.4060   -4.7870  149.1610 C.ar   32  PHE32      -0.0042
     20  CD2       75.3180   -6.0430  148.5050 C.ar   32  PHE32      -0.0042
     21  CE1       74.1320   -3.6060  149.0410 C.ar   32  PHE32      -0.0003
     22  CE2       76.0500   -4.8630  148.3820 C.ar   32  PHE32      -0.0003
     23  CZ        75.4550   -3.6470  148.6490 C.ar   32  PHE32      -0.0000
     24  N         80.0690   -4.1750  148.1480 N.3    35  VAL35      -0.1245
     25  CA        80.5530   -3.9900  146.7980 C.3    35  VAL35       0.1561
     26  C         81.9420   -3.3720  146.8240 C.2    35  VAL35       0.2260
     27  O         82.1880   -2.4220  147.5600 O.2    35  VAL35      -0.2867
     28  CB        79.6370   -3.0880  145.9810 C.3    35  VAL35       0.0252
     29  CG1       80.1100   -3.0670  144.5220 C.3    35  VAL35       0.0019
     30  CG2       78.2070   -3.5800  146.0590 C.3    35  VAL35       0.0019
     31  N         83.2480   -3.3390  139.2480 N.3    48  ALA48      -0.1245
     32  CA        82.6330   -3.4190  140.5630 C.3    48  ALA48       0.1562
     33  C         82.4660   -4.8960  140.9120 C.2    48  ALA48       0.2260
     34  O         81.9910   -5.6830  140.0890 O.2    48  ALA48      -0.2867
     35  CB        81.3080   -2.6940  140.5890 C.3    48  ALA48       0.0290
     36  N         80.6520   -7.3730  143.5130 N.3    50  LYS50      -0.1245
     37  CA        79.6120   -7.5150  144.5200 C.3    50  LYS50       0.1561
     38  C         79.7650   -8.8410  145.2410 C.2    50  LYS50       0.2260
     39  O         79.6330   -9.9070  144.6370 O.2    50  LYS50      -0.2867
     40  CB        78.2370   -7.4190  143.8800 C.3    50  LYS50       0.0271
     41  CG        77.0950   -7.6060  144.8500 C.3    50  LYS50       0.0035
     42  CD        75.7930   -7.2040  144.1790 C.3    50  LYS50       0.0206
     43  CE        74.5930   -7.6610  144.9780 C.3    50  LYS50       0.1093
     44  NZ        73.3420   -7.4550  144.2090 N.3    50  LYS50      -0.1314
     45  N         73.5080   -3.4580  133.4450 N.3    75  VAL75      -0.1245
     46  CA        74.9160   -3.5920  133.8150 C.3    75  VAL75       0.1561
     47  C         75.4240   -4.9840  133.4850 C.2    75  VAL75       0.2260
     48  O         74.7090   -5.9690  133.6510 O.2    75  VAL75      -0.2867
     49  CB        75.1580   -3.2900  135.3060 C.3    75  VAL75       0.0252
     50  CG1       74.5750   -4.3910  136.1870 C.3    75  VAL75       0.0019
     51  CG2       76.6540   -3.1180  135.5640 C.3    75  VAL75       0.0019
     52  N         81.3180   -6.9250  137.9180 N.3    97  LEU97      -0.1231
     53  CA        80.5430   -6.1340  136.9710 C.3    97  LEU97       0.1693
     54  C         81.3250   -4.9730  136.3850 C.2    97  LEU97       0.2592
     55  O         82.2490   -4.4620  137.0180 O.2    97  LEU97      -0.2718
     56  CB        79.2990   -5.5930  137.6600 C.3    97  LEU97       0.0284
     57  CG        78.5230   -6.5970  138.4930 C.3    97  LEU97       0.0019
     58  CD1       77.7790   -5.8400  139.5560 C.3    97  LEU97       0.0001
     59  CD2       77.5730   -7.4030  137.6290 C.3    97  LEU97       0.0001
     60  N         80.9480   -4.5620  135.1770 N.am   98  ASP98      -0.1960
     61  CA        81.4290   -3.3080  134.5970 C.3    98  ASP98       0.1840
     62  C         81.1920   -2.1490  135.5480 C.2    98  ASP98       0.2622
     63  O         80.0720   -1.9530  136.0070 O.2    98  ASP98      -0.2715
     64  CB        80.7130   -2.9930  133.2820 C.3    98  ASP98       0.1450
     65  CG        81.2640   -3.7750  132.0940 C.2    98  ASP98       0.3671
     66  OD1       82.4760   -4.0970  132.0850 O.co2  98  ASP98      -0.2456
     67  OD2       80.4730   -4.0260  131.1510 O.co2  98  ASP98      -0.2456
     68  N         82.2250   -1.3750  135.8550 N.am   99  TYR99      -0.1960
     69  CA        82.0290   -0.2250  136.7370 C.3    99  TYR99       0.1771
     70  C         81.4350    0.9730  136.0000 C.2    99  TYR99       0.2619
     71  O         81.9940    1.4530  135.0140 O.2    99  TYR99      -0.2715
     72  CB        83.3470    0.1810  137.4110 C.3    99  TYR99       0.0574
     73  CG        83.2210    1.3990  138.3010 C.ar   99  TYR99      -0.0198
     74  CD1       82.7330    1.2910  139.6100 C.ar   99  TYR99      -0.0009
     75  CD2       83.5860    2.6600  137.8460 C.ar   99  TYR99      -0.0009
     76  CE1       82.6110    2.4090  140.4360 C.ar   99  TYR99       0.0417
     77  CE2       83.4650    3.7910  138.6680 C.ar   99  TYR99       0.0417
     78  CZ        82.9810    3.6510  139.9590 C.ar   99  TYR99       0.1957
     79  OH        82.8620    4.7570  140.7680 O.3    99  TYR99      -0.2866
     80  N         80.3180    1.4730  136.5140 N.am  100  VAL100     -0.1964
     81  CA        79.7120    2.7030  136.0210 C.3   100  VAL100      0.1712
     82  C         79.8110    3.7750  137.1260 C.2   100  VAL100      0.2458
     83  O         79.4040    3.5330  138.2610 O.2   100  VAL100     -0.2730
     84  CB        78.2480    2.4660  135.6190 C.3   100  VAL100      0.0289
     85  CG1       77.6490    3.7010  135.0000 C.3   100  VAL100      0.0023
     86  CG2       78.1430    1.2730  134.6650 C.3   100  VAL100      0.0023
     87  N         80.3760    4.9520  136.8050 N.am  101  PRO101     -0.2716
     88  CA        80.8180    5.9270  137.8170 C.3   101  PRO101      0.1536
     89  C         79.7240    6.7370  138.5050 C.2   101  PRO101      0.2598
     90  O         80.0300    7.4180  139.4710 O.2   101  PRO101     -0.2715
     91  CB        81.7160    6.8690  137.0160 C.3   101  PRO101      0.0310
     92  CG        81.1410    6.8280  135.6420 C.3   101  PRO101      0.0237
     93  CD        80.6930    5.4090  135.4370 C.3   101  PRO101      0.0939
     94  N         78.5050    6.7400  137.9850 N.am  102  GLU102     -0.1964
     95  CA        77.4650    7.5970  138.5470 C.3   102  GLU102      0.1733
     96  C         76.1210    6.8980  138.6680 C.2   102  GLU102      0.2617
     97  O         75.9380    5.8090  138.1450 O.2   102  GLU102     -0.2715
     98  CB        77.3140    8.8730  137.7100 C.3   102  GLU102      0.0429
     99  CG        78.3560    9.9520  138.0040 C.3   102  GLU102      0.1163
    100  CD        78.3370   10.4210  139.4650 C.2   102  GLU102      0.3649
    101  OE1       77.3240   10.1910  140.1740 O.co2 102  GLU102     -0.2457
    102  OE2       79.3410   11.0290  139.9010 O.co2 102  GLU102     -0.2457
    103  N         75.1870    7.5260  139.3810 N.am  103  THR103     -0.1951
    104  CA        73.8240    7.0090  139.5120 C.3   103  THR103      0.1897
    105  C         72.8280    8.1450  139.3770 C.2   103  THR103      0.2313
    106  O         73.1860    9.3040  139.5960 O.2   103  THR103     -0.2863
    107  CB        73.6000    6.3160  140.8880 C.3   103  THR103      0.1794
    108  OG1       73.6550    7.2980  141.9340 O.3   103  THR103     -0.2208
    109  CG2       74.6600    5.2460  141.1500 C.3   103  THR103      0.0378
    110  N         72.8060   10.1450  142.8230 N.3   106  ARG106     -0.1245
    111  CA        73.8410   11.1480  143.0380 C.3   106  ARG106      0.1563
    112  C         73.6510   12.3630  142.1350 C.2   106  ARG106      0.2260
    113  O         73.8350   13.4940  142.5820 O.2   106  ARG106     -0.2867
    114  CB        75.2260   10.5430  142.8310 C.3   106  ARG106      0.0307
    115  CG        75.4870    9.4220  143.8060 C.3   106  ARG106      0.0489
    116  CD        76.5510    8.4710  143.3180 C.3   106  ARG106      0.2205
    117  NE        77.7780    9.1400  142.8920 N.pl3 106  ARG106     -0.0865
    118  CZ        78.9170    9.0900  143.5730 C.cat 106  ARG106      0.5346
    119  NH1       79.9940    9.7070  143.1140 N.pl3 106  ARG106      0.1354
    120  NH2       78.9790    8.3970  144.7030 N.pl3 106  ARG106      0.1354
    121  N         68.9380    4.8190  142.9540 N.3   150  GLN150     -0.1231
    122  CA        70.2750    4.3550  143.2950 C.3   150  GLN150      0.1698
    123  C         70.6640    3.1550  142.4180 C.2   150  GLN150      0.2592
    124  O         71.8520    2.8610  142.2540 O.2   150  GLN150     -0.2718
    125  CB        70.3550    3.9910  144.7870 C.3   150  GLN150      0.0381
    126  CG        69.8930    5.1370  145.6520 C.3   150  GLN150      0.0905
    127  CD        70.0120    4.8560  147.1250 C.2   150  GLN150      0.2608
    128  OE1       69.7090    3.7660  147.6000 O.2   150  GLN150     -0.2717
    129  NE2       70.5050    5.8540  147.8630 N.am  150  GLN150     -0.0878
    130  N         69.6640    2.5040  141.8180 N.am  151  ASN151     -0.1974
    131  CA        69.9050    1.3420  140.9750 C.3   151  ASN151      0.1688
    132  C         69.9810    1.6820  139.5000 C.2   151  ASN151      0.2292
    133  O         70.0600    0.7930  138.6760 O.2   151  ASN151     -0.2864
    134  CB        68.8250    0.2700  141.1920 C.3   151  ASN151      0.1181
    135  CG        68.9950   -0.4760  142.5090 C.2   151  ASN151      0.2629
    136  OD1       70.0950   -0.5590  143.0460 O.2   151  ASN151     -0.2716
    137  ND2       67.9000   -1.0260  143.0310 N.am  151  ASN151     -0.0877
    138  N         72.4530    3.2390  137.0690 N.3   153  LEU153     -0.1245
    139  CA        73.8280    3.6830  136.8600 C.3   153  LEU153      0.1561
    140  C         73.9520    4.6310  135.6560 C.2   153  LEU153      0.2260
    141  O         73.1890    4.5250  134.7040 O.2   153  LEU153     -0.2867
    142  CB        74.7330    2.4730  136.6810 C.3   153  LEU153      0.0270
    143  CG        74.6380    1.4570  137.8260 C.3   153  LEU153      0.0019
    144  CD1       75.6260    0.3290  137.5830 C.3   153  LEU153      0.0001
    145  CD2       74.8470    2.0850  139.2210 C.3   153  LEU153      0.0001
    146  N         70.9740   -1.7410  137.4830 N.3   164  CYS164     -0.1221
    147  CA        71.7520   -2.7150  138.2350 C.3   164  CYS164      0.1808
    148  C         70.9690   -3.2680  139.4090 C.2   164  CYS164      0.2601
    149  O         69.7750   -2.9770  139.5700 O.2   164  CYS164     -0.2717
    150  CB        73.0610   -2.0960  138.7230 C.3   164  CYS164      0.0970
    151  SG        72.8200   -0.7830  139.9340 S.3   164  CYS164     -0.0800
    152  N         71.6700   -4.0460  140.2330 N.am  165  ASP165     -0.1973
    153  CA        71.0920   -4.7090  141.3860 C.3   165  ASP165      0.1709
    154  C         69.8770   -5.5610  141.0620 C.2   165  ASP165      0.2293
    155  O         68.7370   -5.1130  141.1540 O.2   165  ASP165     -0.2864
    156  CB        70.7160   -3.7000  142.4770 C.3   165  ASP165      0.1436
    157  CG        70.2830   -4.3910  143.7680 C.2   165  ASP165      0.3671
    158  OD1       70.6590   -5.5700  143.9470 O.co2 165  ASP165     -0.2456
    159  OD2       69.5700   -3.7760  144.5930 O.co2 165  ASP165     -0.2456
@<TRIPOS>BOND
     1    67    65   ar
     2    66    65   ar
     3    65    64    1
     4    64    61    1
     5    45    46    1
     6    47    48    2
     7    47    46    1
     8    46    49    1
     9    61    60    1
    10    61    62    1
    11    86    84    1
    12   141   140    2
    13    85    84    1
    14    71    70    2
    15    60    54   am
    16    49    51    1
    17    49    50    1
    18    93    92    1
    19    93    87    1
    20    62    68   am
    21    62    63    2
    22    84    81    1
    23    92    91    1
    24   140   139    1
    25    68    69    1
    26    70    80   am
    27    70    69    1
    28    81    80    1
    29    81    82    1
    30    54    53    1
    31    54    55    2
    32   142   139    1
    33   142   143    1
    34    69    72    1
    35    87    82   am
    36    87    88    1
    37   139   138    1
    38    53    56    1
    39    53    52    1
    40    91    88    1
    41    82    83    2
    42    72    73    1
    43   146   147    1
    44   144   143    1
    45    59    57    1
    46    56    57    1
    47    98    99    1
    48    98    95    1
    49    88    89    1
    50   143   145    1
    51    75    73   ar
    52    75    77   ar
    53    94    89   am
    54    94    95    1
    55    99   100    1
    56    97    96    2
    57   147   150    1
    58   147   148    1
    59    73    74   ar
    60    57    58    1
    61    89    90    2
    62    95    96    1
    63    77    78   ar
    64    96   103   am
    65   133   132    2
    66   150   151    1
    67    31    32    1
    68   105   104    1
    69   105   106    2
    70   103   104    1
    71   148   149    2
    72   148   152   am
    73   100   102   ar
    74   100   101   ar
    75   132   131    1
    76   104   107    1
    77    74    76   ar
    78    78    76   ar
    79    78    79    1
    80    34    33    2
    81   152   153    1
    82    32    35    1
    83    32    33    1
    84   107   109    1
    85   107   108    1
    86   131   134    1
    87   131   130    1
    88   154   155    2
    89   154   153    1
    90   134   135    1
    91   153   156    1
    92   130   123   am
    93   112   113    2
    94   112   111    1
    95   124   123    2
    96   123   122    1
    97   156   157    1
    98   135   137   am
    99   135   136    2
   100   110   111    1
   101   114   111    1
   102   114   115    1
   103   117   116    1
   104   117   118    2
   105   121   122    1
   106   119   118    1
   107   122   125    1
   108   116   115    1
   109    36    37    1
   110   118   120    1
   111     8     6    1
   112   157   158   ar
   113   157   159   ar
   114    40    37    1
   115    40    41    1
   116    42    41    1
   117    42    43    1
   118    44    43    1
   119    37    38    1
   120    29    28    1
   121    39    38    2
   122   125   126    1
   123     6     5    1
   124     7     5    1
   125   126   127    1
   126     5     2    1
   127    28    30    1
   128    28    25    1
   129    25    26    1
   130    25    24    1
   131    26    27    2
   132   127   128    2
   133   127   129   am
   134     4     3    2
   135     2     3    1
   136     2     1    1
   137     3     9   am
   138    22    20   ar
   139    22    23   ar
   140    20    18   ar
   141    23    21   ar
   142     9    10    1
   143    18    17    1
   144    18    19   ar
   145    17    14    1
   146    21    19   ar
   147    10    11    1
   148    12    11    2
   149    14    15    1
   150    14    13    1
   151    16    15    2
