@<TRIPOS>MOLECULE
tmp/5f98K00.pdb
 84 76 0 0 0
SMALL
GASTEIGER

@<TRIPOS>ATOM
      1  N        -17.6900  -76.2220   23.3100 N.3   569  HIS569     -0.1241
      2  CA       -19.0640  -75.9770   22.8860 C.3   569  HIS569      0.1621
      3  C        -19.1460  -75.2390   21.5480 C.2   569  HIS569      0.2264
      4  O        -18.4030  -74.2850   21.3170 O.2   569  HIS569     -0.2867
      5  CB       -19.7990  -75.1810   23.9690 C.3   569  HIS569      0.0745
      6  CG       -21.2890  -75.2780   23.8880 C.ar  569  HIS569      0.0817
      7  ND1      -22.0380  -74.5190   23.0150 N.ar  569  HIS569     -0.2268
      8  CD2      -22.1730  -76.0430   24.5730 C.ar  569  HIS569      0.1154
      9  CE1      -23.3170  -74.8130   23.1630 C.ar  569  HIS569      0.1986
     10  NE2      -23.4260  -75.7350   24.1030 N.ar  569  HIS569     -0.2212
     11  N        -21.7510  -73.3310   20.2460 N.3   571  LYS571     -0.1245
     12  CA       -22.2420  -71.9690   20.4220 C.3   571  LYS571      0.1561
     13  C        -22.1840  -71.5450   21.8860 C.2   571  LYS571      0.2260
     14  O        -23.1740  -71.6510   22.6080 O.2   571  LYS571     -0.2867
     15  CB       -23.6730  -71.8430   19.8940 C.3   571  LYS571      0.0271
     16  CG       -24.4050  -70.5380   20.1520 C.3   571  LYS571      0.0035
     17  CD       -23.9290  -69.4720   19.1930 C.3   571  LYS571      0.0206
     18  CE       -24.9090  -68.3110   19.2210 C.3   571  LYS571      0.1093
     19  NZ       -24.6950  -67.4610   20.3740 N.3   571  LYS571     -0.1314
     20  N        -22.4920  -69.5330   25.0640 N.3   573  LYS573     -0.1245
     21  CA       -23.2680  -68.3990   25.5520 C.3   573  LYS573      0.1561
     22  C        -23.0250  -68.1840   27.0410 C.2   573  LYS573      0.2260
     23  O        -22.0730  -68.7210   27.6090 O.2   573  LYS573     -0.2867
     24  CB       -24.7600  -68.6110   25.2850 C.3   573  LYS573      0.0271
     25  CG       -25.1340  -68.6580   23.8300 C.3   573  LYS573      0.0035
     26  CD       -26.6130  -68.3870   23.6510 C.3   573  LYS573      0.0206
     27  CE       -27.3070  -69.5610   22.9950 C.3   573  LYS573      0.1093
     28  NZ       -28.6490  -69.1770   22.4680 N.3   573  LYS573     -0.1314
     29  N        -21.1290  -71.0870   29.5620 N.3   580  LYS580     -0.1245
     30  CA       -20.9000  -72.4090   28.9890 C.3   580  LYS580      0.1561
     31  C        -19.6010  -72.4740   28.1940 C.2   580  LYS580      0.2260
     32  O        -19.4490  -71.7980   27.1760 O.2   580  LYS580     -0.2867
     33  CB       -22.0720  -72.8170   28.0950 C.3   580  LYS580      0.0271
     34  CG       -23.3750  -72.1020   28.3990 C.3   580  LYS580      0.0035
     35  CD       -24.5330  -72.7350   27.6410 C.3   580  LYS580      0.0206
     36  CE       -24.3340  -72.6550   26.1380 C.3   580  LYS580      0.1093
     37  NZ       -25.6270  -72.7860   25.4090 N.3   580  LYS580     -0.1314
     38  N        -18.7140  -79.1750   26.8050 N.3   583  LYS583     -0.1245
     39  CA       -19.9010  -80.0160   26.7050 C.3   583  LYS583      0.1561
     40  C        -19.6060  -81.4230   27.2240 C.2   583  LYS583      0.2260
     41  O        -18.5580  -81.9950   26.9290 O.2   583  LYS583     -0.2867
     42  CB       -20.3930  -80.0730   25.2580 C.3   583  LYS583      0.0271
     43  CG       -21.9040  -80.1030   25.1140 C.3   583  LYS583      0.0035
     44  CD       -22.3120  -80.0390   23.6510 C.3   583  LYS583      0.0206
     45  CE       -23.8230  -79.9700   23.4990 C.3   583  LYS583      0.1093
     46  NZ       -24.5050  -81.1130   24.1630 N.3   583  LYS583     -0.1314
     47  N        -24.4560  -87.5640   24.6270 N.3   594  ASP594     -0.1239
     48  CA       -24.6740  -86.2420   25.2030 C.3   594  ASP594      0.1674
     49  C        -25.2440  -86.3670   26.6110 C.2   594  ASP594      0.2266
     50  O        -26.2800  -86.9960   26.8140 O.2   594  ASP594     -0.2867
     51  CB       -25.6170  -85.4210   24.3180 C.3   594  ASP594      0.1410
     52  CG       -25.6420  -83.9480   24.6900 C.2   594  ASP594      0.3668
     53  OD1      -25.1110  -83.5810   25.7610 O.co2 594  ASP594     -0.2456
     54  OD2      -26.2000  -83.1500   23.9060 O.co2 594  ASP594     -0.2456
     55  N        -24.6150  -83.4240   29.0860 N.3   596  GLY596     -0.1210
     56  CA       -24.8610  -82.0700   29.5460 C.3   596  GLY596      0.1956
     57  C        -23.8240  -81.0700   29.0740 C.2   596  GLY596      0.2611
     58  O        -23.3280  -81.1600   27.9510 O.2   596  GLY596     -0.2717
     59  N        -23.4990  -80.1100   29.9350 N.am  597  ILE597     -0.1979
     60  CA       -22.5180  -79.0780   29.6090 C.3   597  ILE597      0.1595
     61  C        -21.6320  -78.7300   30.8020 C.2   597  ILE597      0.2287
     62  O        -22.1230  -78.5090   31.9070 O.2   597  ILE597     -0.2864
     63  CB       -23.1980  -77.7860   29.1120 C.3   597  ILE597      0.0276
     64  CG1      -24.3820  -77.4220   30.0090 C.3   597  ILE597      0.0022
     65  CG2      -23.6620  -77.9440   27.6780 C.3   597  ILE597      0.0022
     66  CD1      -24.9980  -76.0790   29.6870 C.3   597  ILE597      0.0001
     67  N        -28.4450  -83.0780   32.3160 N.3   610  LYS610     -0.1245
     68  CA       -29.8910  -83.0650   32.1580 C.3   610  LYS610      0.1561
     69  C        -30.4480  -84.4760   32.3170 C.2   610  LYS610      0.2260
     70  O        -29.8620  -85.4410   31.8290 O.2   610  LYS610     -0.2867
     71  CB       -30.2800  -82.4810   30.7970 C.3   610  LYS610      0.0271
     72  CG       -29.6290  -83.1710   29.6090 C.3   610  LYS610      0.0035
     73  CD       -30.0800  -82.5540   28.2960 C.3   610  LYS610      0.0206
     74  CE       -29.4380  -83.2540   27.1110 C.3   610  LYS610      0.1093
     75  NZ       -27.9520  -83.1960   27.1810 N.3   610  LYS610     -0.1314
     76  N        -32.7880  -85.5990   30.8870 N.3   612  GLU612     -0.1245
     77  CA       -33.1650  -86.0190   29.5430 C.3   612  GLU612      0.1567
     78  C        -32.0140  -86.7570   28.8640 C.2   612  GLU612      0.2260
     79  O        -32.0490  -87.0050   27.6600 O.2   612  GLU612     -0.2867
     80  CB       -33.5890  -84.8140   28.7010 C.3   612  GLU612      0.0388
     81  CG       -34.0110  -85.1540   27.3050 C.3   612  GLU612      0.1160
     82  CD       -34.5480  -84.0220   26.4840 C.2   612  GLU612      0.3649
     83  OE1      -34.5410  -82.8950   26.9310 O.co2 612  GLU612     -0.2457
     84  OE2      -34.8610  -84.1610   25.2910 O.co2 612  GLU612     -0.2457
@<TRIPOS>BOND
     1    17    18    1
     2    17    16    1
     3    18    19    1
     4    15    16    1
     5    15    12    1
     6    11    12    1
     7    12    13    1
     8     4     3    2
     9     3     2    1
    10    13    14    2
    11    28    27    1
    12     2     1    1
    13     2     5    1
    14    27    26    1
    15     7     9   ar
    16     7     6   ar
    17     9    10   ar
    18    45    44    1
    19    45    46    1
    20    26    25    1
    21    44    43    1
    22    25    24    1
    23     6     5    1
    24     6     8   ar
    25    54    52   ar
    26    10     8   ar
    27    51    52    1
    28    51    48    1
    29    47    48    1
    30    52    53   ar
    31    20    21    1
    32    43    42    1
    33    48    49    1
    34    42    39    1
    35    24    21    1
    36    84    82   ar
    37    37    36    1
    38    21    22    1
    39    36    35    1
    40    82    83   ar
    41    82    81    1
    42    49    50    2
    43    39    38    1
    44    39    40    1
    45    41    40    2
    46    22    23    2
    47    74    75    1
    48    74    73    1
    49    32    31    2
    50    81    80    1
    51    35    34    1
    52    79    78    2
    53    65    63    1
    54    58    57    2
    55    33    34    1
    56    33    30    1
    57    31    30    1
    58    73    72    1
    59    80    77    1
    60    78    77    1
    61    30    29    1
    62    57    56    1
    63    57    59   am
    64    55    56    1
    65    63    60    1
    66    63    64    1
    67    77    76    1
    68    72    71    1
    69    60    59    1
    70    60    61    1
    71    66    64    1
    72    71    68    1
    73    61    62    2
    74    70    69    2
    75    68    67    1
    76    68    69    1
