@<TRIPOS>MOLECULE
tmp/5f98A00.pdb
 93 87 0 0 0
SMALL
GASTEIGER

@<TRIPOS>ATOM
      1  N        -62.2420  -28.4230   98.1420 N.3   390  ARG390     -0.1245
      2  CA       -63.4050  -27.6150   97.7910 C.3   390  ARG390      0.1563
      3  C        -64.1700  -27.1780   99.0380 C.2   390  ARG390      0.2260
      4  O        -64.9040  -26.1830   99.0190 O.2   390  ARG390     -0.2867
      5  CB       -64.3240  -28.3860   96.8430 C.3   390  ARG390      0.0307
      6  CG       -64.6620  -29.7890   97.3090 C.3   390  ARG390      0.0489
      7  CD       -65.4430  -30.5420   96.2450 C.3   390  ARG390      0.2205
      8  NE       -64.6960  -30.6510   94.9950 N.pl3 390  ARG390     -0.0865
      9  CZ       -65.1800  -31.1880   93.8790 C.cat 390  ARG390      0.5346
     10  NH1      -66.4170  -31.6660   93.8520 N.pl3 390  ARG390      0.1354
     11  NH2      -64.4280  -31.2450   92.7890 N.pl3 390  ARG390      0.1354
     12  N        -79.4610  -40.1550   88.8100 N.3   575  HIS575     -0.1227
     13  CA       -78.0810  -39.6970   88.9510 C.3   575  HIS575      0.1737
     14  C        -77.9620  -38.1740   88.8970 C.2   575  HIS575      0.2438
     15  O        -78.5300  -37.5340   88.0120 O.2   575  HIS575     -0.2733
     16  CB       -77.2040  -40.3250   87.8650 C.3   575  HIS575      0.0758
     17  CG       -75.7670  -40.4660   88.2570 C.ar  575  HIS575      0.0818
     18  ND1      -74.8580  -39.4350   88.1440 N.ar  575  HIS575     -0.2268
     19  CD2      -75.0800  -41.5180   88.7610 C.ar  575  HIS575      0.1154
     20  CE1      -73.6750  -39.8460   88.5620 C.ar  575  HIS575      0.1986
     21  NE2      -73.7810  -41.1070   88.9420 N.ar  575  HIS575     -0.2212
     22  N        -77.2150  -37.5920   89.8490 N.am  576  PRO576     -0.2718
     23  CA       -77.0390  -36.1390   89.9550 C.3   576  PRO576      0.1535
     24  C        -76.3250  -35.5350   88.7480 C.2   576  PRO576      0.2598
     25  O        -76.6310  -34.4090   88.3570 O.2   576  PRO576     -0.2715
     26  CB       -76.1940  -35.9790   91.2240 C.3   576  PRO576      0.0310
     27  CG       -75.4900  -37.2820   91.3770 C.3   576  PRO576      0.0237
     28  CD       -76.4630  -38.3120   90.8910 C.3   576  PRO576      0.0939
     29  N        -75.3850  -36.2760   88.1700 N.am  577  LYS577     -0.1978
     30  CA       -74.6530  -35.7980   87.0030 C.3   577  LYS577      0.1596
     31  C        -74.5320  -36.8840   85.9390 C.2   577  LYS577      0.2287
     32  O        -73.4900  -37.5280   85.8220 O.2   577  LYS577     -0.2864
     33  CB       -73.2620  -35.3040   87.4080 C.3   577  LYS577      0.0298
     34  CG       -72.4370  -34.7640   86.2420 C.3   577  LYS577      0.0038
     35  CD       -71.2850  -33.9070   86.7260 C.3   577  LYS577      0.0206
     36  CE       -70.3450  -33.5000   85.6010 C.3   577  LYS577      0.1093
     37  NZ       -71.0380  -33.0550   84.3540 N.3   577  LYS577     -0.1314
     38  N        -73.8640  -38.7440   82.5290 N.3   579  LYS579     -0.1245
     39  CA       -72.8680  -38.5350   81.4850 C.3   579  LYS579      0.1561
     40  C        -73.0340  -39.5450   80.3580 C.2   579  LYS579      0.2260
     41  O        -73.9940  -40.3140   80.3320 O.2   579  LYS579     -0.2867
     42  CB       -71.4540  -38.6390   82.0610 C.3   579  LYS579      0.0271
     43  CG       -71.2720  -37.9720   83.4140 C.3   579  LYS579      0.0035
     44  CD       -69.9590  -38.3910   84.0550 C.3   579  LYS579      0.0206
     45  CE       -69.8800  -37.9380   85.5030 C.3   579  LYS579      0.1093
     46  NZ       -68.6500  -38.4470   86.1710 N.3   579  LYS579     -0.1314
     47  N        -75.0570  -42.9250   81.5530 N.3   586  LYS586     -0.1245
     48  CA       -75.5320  -42.9360   82.9330 C.3   586  LYS586      0.1561
     49  C        -76.9820  -42.4810   83.0320 C.2   586  LYS586      0.2260
     50  O        -77.3360  -41.4050   82.5500 O.2   586  LYS586     -0.2867
     51  CB       -74.6530  -42.0430   83.8120 C.3   586  LYS586      0.0271
     52  CG       -73.2330  -42.5410   84.0060 C.3   586  LYS586      0.0035
     53  CD       -72.4900  -41.6650   85.0000 C.3   586  LYS586      0.0206
     54  CE       -71.0830  -42.1750   85.2520 C.3   586  LYS586      0.1093
     55  NZ       -70.3650  -41.3410   86.2560 N.3   586  LYS586     -0.1314
     56  N        -77.9870  -43.8480   89.6880 N.3   589  LYS589     -0.1245
     57  CA       -77.0180  -44.4180   90.6130 C.3   589  LYS589      0.1561
     58  C        -77.7060  -45.4820   91.4660 C.2   589  LYS589      0.2260
     59  O        -78.8910  -45.3650   91.7780 O.2   589  LYS589     -0.2867
     60  CB       -76.4060  -43.3240   91.4880 C.3   589  LYS589      0.0271
     61  CG       -75.1650  -43.7480   92.2510 C.3   589  LYS589      0.0035
     62  CD       -74.5020  -42.5510   92.9120 C.3   589  LYS589      0.0206
     63  CE       -73.2910  -42.9680   93.7260 C.3   589  LYS589      0.1093
     64  NZ       -72.3300  -43.7670   92.9160 N.3   589  LYS589     -0.1314
     65  N        -73.5010  -46.9440   98.6860 N.3   600  ASP600     -0.1239
     66  CA       -73.1530  -46.7860   97.2770 C.3   600  ASP600      0.1674
     67  C        -72.6060  -48.0800   96.6800 C.2   600  ASP600      0.2266
     68  O        -71.5420  -48.5540   97.0740 O.2   600  ASP600     -0.2867
     69  CB       -72.1310  -45.6570   97.1100 C.3   600  ASP600      0.1410
     70  CG       -71.6050  -45.5480   95.6890 C.2   600  ASP600      0.3668
     71  OD1      -72.3720  -45.8210   94.7420 O.co2 600  ASP600     -0.2456
     72  OD2      -70.4210  -45.1860   95.5220 O.co2 600  ASP600     -0.2456
     73  N        -73.1080  -48.9960   92.7760 N.3   602  GLY602     -0.1210
     74  CA       -72.6530  -48.6330   91.4470 C.3   602  GLY602      0.1956
     75  C        -73.6220  -47.6870   90.7670 C.2   602  GLY602      0.2611
     76  O        -74.1330  -46.7580   91.3920 O.2   602  GLY602     -0.2717
     77  N        -73.8760  -47.9220   89.4830 N.am  603  ILE603     -0.1979
     78  CA       -74.8060  -47.0930   88.7210 C.3   603  ILE603      0.1595
     79  C        -75.6660  -47.9190   87.7740 C.2   603  ILE603      0.2287
     80  O        -75.4400  -49.1140   87.5970 O.2   603  ILE603     -0.2864
     81  CB       -74.0690  -46.0250   87.8950 C.3   603  ILE603      0.0276
     82  CG1      -72.8790  -46.6510   87.1640 C.3   603  ILE603      0.0022
     83  CG2      -73.6260  -44.8740   88.7850 C.3   603  ILE603      0.0022
     84  CD1      -72.1310  -45.6890   86.2720 C.3   603  ILE603      0.0001
     85  N        -68.9380  -51.5580   91.1440 N.3   616  LYS616     -0.1245
     86  CA       -67.5100  -51.4620   91.4160 C.3   616  LYS616      0.1561
     87  C        -67.1250  -52.3680   92.5800 C.2   616  LYS616      0.2260
     88  O        -67.8250  -52.4240   93.5910 O.2   616  LYS616     -0.2867
     89  CB       -67.1120  -50.0150   91.7150 C.3   616  LYS616      0.0271
     90  CG       -67.9100  -49.3640   92.8350 C.3   616  LYS616      0.0035
     91  CD       -67.3970  -47.9680   93.1390 C.3   616  LYS616      0.0206
     92  CE       -68.2760  -47.2670   94.1610 C.3   616  LYS616      0.1093
     93  NZ       -67.8230  -45.8730   94.4200 N.3   616  LYS616     -0.1314
@<TRIPOS>BOND
     1    41    40    2
     2    40    39    1
     3    39    42    1
     4    39    38    1
     5    47    48    1
     6    42    43    1
     7    50    49    2
     8    48    49    1
     9    48    51    1
    10    43    44    1
    11    51    52    1
    12    52    53    1
    13    44    45    1
    14    37    36    1
    15    53    54    1
    16    54    55    1
    17    45    46    1
    18    36    35    1
    19    32    31    2
    20    31    30    1
    21    34    35    1
    22    34    33    1
    23    84    82    1
    24    30    33    1
    25    30    29    1
    26    82    81    1
    27    80    79    2
    28    79    78    1
    29    16    17    1
    30    16    13    1
    31    81    78    1
    32    81    83    1
    33    15    14    2
    34    18    17   ar
    35    18    20   ar
    36    29    24   am
    37    17    19   ar
    38    25    24    2
    39    20    21   ar
    40    78    77    1
    41    24    23    1
    42    19    21   ar
    43    12    13    1
    44    14    13    1
    45    14    22   am
    46    77    75   am
    47    56    57    1
    48    22    23    1
    49    22    28    1
    50    23    26    1
    51    57    58    1
    52    57    60    1
    53    75    76    2
    54    75    74    1
    55    28    27    1
    56    85    86    1
    57    26    27    1
    58    86    89    1
    59    86    87    1
    60    74    73    1
    61    58    59    2
    62    60    61    1
    63    89    90    1
    64    61    62    1
    65    87    88    2
    66    11     9    1
    67    90    91    1
    68    62    63    1
    69    64    63    1
    70    91    92    1
    71    10     9    1
    72     9     8    2
    73    92    93    1
    74    71    70   ar
    75     8     7    1
    76    72    70   ar
    77    70    69    1
    78     7     6    1
    79    67    68    2
    80    67    66    1
    81     5     6    1
    82     5     2    1
    83    69    66    1
    84    66    65    1
    85     2     1    1
    86     2     3    1
    87     4     3    2
