@<TRIPOS>MOLECULE
tmp/5f9bB00.pdb
 211 202 0 0 0
SMALL
GASTEIGER

@<TRIPOS>ATOM
      1  N         36.3230   -8.8680   53.9420 N.3    43  ILE43      -0.1245
      2  CA        37.2300   -7.7420   53.8550 C.3    43  ILE43       0.1561
      3  C         36.4100   -6.4710   53.9150 C.2    43  ILE43       0.2260
      4  O         35.6010   -6.1970   53.0260 O.2    43  ILE43      -0.2867
      5  CB        38.0840   -7.7930   52.5730 C.3    43  ILE43       0.0252
      6  CG1       38.8960   -9.0850   52.5500 C.3    43  ILE43       0.0019
      7  CG2       39.0040   -6.5890   52.4960 C.3    43  ILE43       0.0019
      8  CD1       39.8430   -9.1970   51.3890 C.3    43  ILE43       0.0001
      9  N         42.0070   -6.6640   54.9120 N.3    49  LEU49      -0.1245
     10  CA        42.6240   -6.8850   53.6020 C.3    49  LEU49       0.1561
     11  C         44.0080   -7.5000   53.7660 C.2    49  LEU49       0.2260
     12  O         44.2970   -8.5670   53.2100 O.2    49  LEU49      -0.2867
     13  CB        42.7230   -5.5830   52.8090 C.3    49  LEU49       0.0270
     14  CG        43.3720   -5.7060   51.4340 C.3    49  LEU49       0.0019
     15  CD1       42.7400   -6.8450   50.6320 C.3    49  LEU49       0.0001
     16  CD2       43.2260   -4.3900   50.6940 C.3    49  LEU49       0.0001
     17  N         46.7820   -2.5650   43.7960 N.3    58  ARG58      -0.1231
     18  CA        46.8670   -4.0150   43.7220 C.3    58  ARG58       0.1694
     19  C         45.5120   -4.7120   43.8040 C.2    58  ARG58       0.2591
     20  O         45.4010   -5.8810   43.4280 O.2    58  ARG58      -0.2718
     21  CB        47.7940   -4.5710   44.8030 C.3    58  ARG58       0.0321
     22  CG        49.0040   -5.2310   44.1650 C.3    58  ARG58       0.0489
     23  CD        49.9510   -5.9810   45.1130 C.3    58  ARG58       0.2205
     24  NE        50.9270   -6.6900   44.2860 N.pl3  58  ARG58      -0.0865
     25  CZ        52.2240   -6.8070   44.5540 C.cat  58  ARG58       0.5346
     26  NH1       52.7230   -6.3100   45.6740 N.pl3  58  ARG58       0.1354
     27  NH2       53.0210   -7.4650   43.7180 N.pl3  58  ARG58       0.1354
     28  N         44.4940   -4.0130   44.3070 N.am   59  ILE59      -0.1980
     29  CA        43.1320   -4.5340   44.2360 C.3    59  ILE59       0.1595
     30  C         42.6430   -4.4770   42.7880 C.2    59  ILE59       0.2287
     31  O         42.1770   -5.4730   42.2430 O.2    59  ILE59      -0.2864
     32  CB        42.1460   -3.7550   45.1450 C.3    59  ILE59       0.0276
     33  CG1       42.4300   -4.0230   46.6240 C.3    59  ILE59       0.0022
     34  CG2       40.7080   -4.1340   44.8400 C.3    59  ILE59       0.0022
     35  CD1       41.4130   -3.4090   47.5460 C.3    59  ILE59       0.0001
     36  N         44.3120   -7.1330   40.9290 N.3    62  GLY62      -0.1210
     37  CA        43.8140   -8.4770   41.1700 C.3    62  GLY62       0.1956
     38  C         42.5140   -8.6680   40.4110 C.2    62  GLY62       0.2612
     39  O         42.1130   -9.7810   40.0660 O.2    62  GLY62      -0.2717
     40  N         41.8750   -7.5350   40.1340 N.am   63  CYS63      -0.1956
     41  CA        40.6310   -7.4840   39.4020 C.3    63  CYS63       0.1843
     42  C         40.8160   -7.8610   37.9310 C.2    63  CYS63       0.2625
     43  O         39.9230   -8.4460   37.3070 O.2    63  CYS63      -0.2714
     44  CB        39.9870   -6.1110   39.5500 C.3    63  CYS63       0.0997
     45  SG        39.1890   -5.8550   41.1870 S.3    63  CYS63      -0.0797
     46  N         41.9900   -7.5460   37.4010 N.am   64  GLN64      -0.1963
     47  CA        42.3300   -7.9040   36.0490 C.3    64  GLN64       0.1733
     48  C         42.6550   -9.3950   35.9600 C.2    64  GLN64       0.2616
     49  O         42.2320  -10.0560   35.0200 O.2    64  GLN64      -0.2715
     50  CB        43.4860   -7.0340   35.5710 C.3    64  GLN64       0.0408
     51  CG        43.1090   -5.5530   35.4200 C.3    64  GLN64       0.0908
     52  CD        42.0130   -5.3320   34.3860 C.2    64  GLN64       0.2608
     53  OE1       40.8450   -5.1610   34.7300 O.2    64  GLN64      -0.2717
     54  NE2       42.3900   -5.3380   33.1090 N.am   64  GLN64      -0.0878
     55  N         43.3710   -9.9250   36.9480 N.am   65  PHE65      -0.1960
     56  CA        43.7220  -11.3450   36.9700 C.3    65  PHE65       0.1771
     57  C         42.4890  -12.2170   36.7560 C.2    65  PHE65       0.2619
     58  O         42.4590  -13.0200   35.8340 O.2    65  PHE65      -0.2715
     59  CB        44.4200  -11.7330   38.2910 C.3    65  PHE65       0.0574
     60  CG        44.9260  -13.1690   38.3240 C.ar   65  PHE65      -0.0200
     61  CD1       44.0860  -14.2190   38.6850 C.ar   65  PHE65      -0.0042
     62  CD2       46.2500  -13.4670   37.9920 C.ar   65  PHE65      -0.0042
     63  CE1       44.5510  -15.5420   38.7040 C.ar   65  PHE65      -0.0003
     64  CE2       46.7280  -14.7820   38.0260 C.ar   65  PHE65      -0.0003
     65  CZ        45.8830  -15.8210   38.3730 C.ar   65  PHE65      -0.0000
     66  N         41.4680  -12.0590   37.5980 N.am   66  ARG66      -0.1963
     67  CA        40.2860  -12.9180   37.4970 C.3    66  ARG66       0.1729
     68  C         39.4580  -12.6560   36.2380 C.2    66  ARG66       0.2616
     69  O         38.8240  -13.5660   35.7140 O.2    66  ARG66      -0.2715
     70  CB        39.4200  -12.7640   38.7310 C.3    66  ARG66       0.0348
     71  CG        37.9970  -13.2980   38.6170 C.3    66  ARG66       0.0492
     72  CD        37.9190  -14.7970   38.5800 C.3    66  ARG66       0.2205
     73  NE        36.5910  -15.1970   38.1340 N.pl3  66  ARG66      -0.0865
     74  CZ        36.3130  -16.3640   37.5680 C.cat  66  ARG66       0.5346
     75  NH1       37.2800  -17.2440   37.3530 N.pl3  66  ARG66       0.1354
     76  NH2       35.0730  -16.6370   37.1920 N.pl3  66  ARG66       0.1354
     77  N         39.4790  -11.4330   35.7270 N.am   67  SER67      -0.1950
     78  CA        38.7610  -11.1740   34.4760 C.3    67  SER67       0.1924
     79  C         39.4020  -11.9650   33.3130 C.2    67  SER67       0.2314
     80  O         38.7000  -12.5870   32.5110 O.2    67  SER67      -0.2863
     81  CB        38.7380   -9.6860   34.1540 C.3    67  SER67       0.2116
     82  OG        40.0370   -9.1850   33.9230 O.3    67  SER67      -0.2180
     83  N         33.3260   -8.4110   27.9960 N.3   101  HIS101     -0.1241
     84  CA        33.0710   -7.4390   29.0530 C.3   101  HIS101      0.1621
     85  C         31.6250   -7.4580   29.5530 C.2   101  HIS101      0.2264
     86  O         31.4030   -7.4540   30.7540 O.2   101  HIS101     -0.2867
     87  CB        33.4070   -6.0330   28.5900 C.3   101  HIS101      0.0745
     88  CG        34.8620   -5.7130   28.6540 C.ar  101  HIS101      0.0817
     89  ND1       35.7440   -6.0730   27.6610 N.ar  101  HIS101     -0.2268
     90  CD2       35.5880   -5.0630   29.5950 C.ar  101  HIS101      0.1154
     91  CE1       36.9580   -5.6580   27.9860 C.ar  101  HIS101      0.1986
     92  NE2       36.8900   -5.0450   29.1520 N.ar  101  HIS101     -0.2212
     93  N         31.0170  -10.4110   31.6370 N.3   104  ILE104     -0.1231
     94  CA        31.6950  -10.3790   32.9060 C.3   104  ILE104      0.1692
     95  C         30.8680   -9.6020   33.9430 C.2   104  ILE104      0.2592
     96  O         30.7110  -10.0660   35.0700 O.2   104  ILE104     -0.2718
     97  CB        33.0810   -9.7790   32.7740 C.3   104  ILE104      0.0266
     98  CG1       34.0090  -10.7570   32.0390 C.3   104  ILE104      0.0019
     99  CG2       33.6550   -9.5480   34.1060 C.3   104  ILE104      0.0020
    100  CD1       35.3530  -10.1710   31.6920 C.3   104  ILE104      0.0001
    101  N         30.3260   -8.4440   33.5600 N.am  105  TYR105     -0.1976
    102  CA        29.5090   -7.6760   34.4950 C.3   105  TYR105      0.1639
    103  C         28.2020   -8.3770   34.7790 C.2   105  TYR105      0.2290
    104  O         27.7050   -8.3280   35.9030 O.2   105  TYR105     -0.2864
    105  CB        29.2590   -6.2800   33.9700 C.3   105  TYR105      0.0560
    106  CG        30.5480   -5.5730   33.7860 C.ar  105  TYR105     -0.0198
    107  CD1       31.5360   -5.6610   34.7450 C.ar  105  TYR105     -0.0009
    108  CD2       30.8100   -4.8550   32.6410 C.ar  105  TYR105     -0.0009
    109  CE1       32.7460   -5.0270   34.5740 C.ar  105  TYR105      0.0417
    110  CE2       32.0170   -4.2210   32.4610 C.ar  105  TYR105      0.0417
    111  CZ        32.9830   -4.3150   33.4280 C.ar  105  TYR105      0.1957
    112  OH        34.1890   -3.6830   33.2560 O.3   105  TYR105     -0.2866
    113  N         29.0160  -11.1750   37.2190 N.3   108  LEU108     -0.1245
    114  CA        29.4970  -10.5560   38.4280 C.3   108  LEU108      0.1561
    115  C         28.3360  -10.0990   39.3370 C.2   108  LEU108      0.2260
    116  O         28.4730  -10.0360   40.5550 O.2   108  LEU108     -0.2867
    117  CB        30.3750   -9.3830   38.0480 C.3   108  LEU108      0.0270
    118  CG        30.7450   -8.4590   39.1790 C.3   108  LEU108      0.0019
    119  CD1       31.7200   -9.2050   40.0590 C.3   108  LEU108      0.0001
    120  CD2       31.2930   -7.1650   38.6120 C.3   108  LEU108      0.0001
    121  N         27.4880  -12.5540   41.8230 N.3   111  LEU111     -0.1245
    122  CA        28.3710  -12.7000   42.9660 C.3   111  LEU111      0.1561
    123  C         28.2160  -11.5160   43.9150 C.2   111  LEU111      0.2260
    124  O         28.9800  -11.3710   44.8770 O.2   111  LEU111     -0.2867
    125  CB        29.8370  -12.8190   42.5120 C.3   111  LEU111      0.0270
    126  CG        30.2720  -13.9500   41.5710 C.3   111  LEU111      0.0019
    127  CD1       31.7850  -14.1510   41.6410 C.3   111  LEU111      0.0001
    128  CD2       29.5480  -15.2490   41.8410 C.3   111  LEU111      0.0001
    129  N         30.7580   -7.9630   47.2220 N.3   117  VAL117     -0.1231
    130  CA        30.9700   -8.9440   46.1650 C.3   117  VAL117      0.1692
    131  C         31.7850  -10.1240   46.6600 C.2   117  VAL117      0.2592
    132  O         32.7980   -9.9620   47.3290 O.2   117  VAL117     -0.2718
    133  CB        31.6730   -8.3050   44.9050 C.3   117  VAL117      0.0266
    134  CG1       32.9610   -7.5820   45.2780 C.3   117  VAL117      0.0020
    135  CG2       31.9310   -9.3520   43.8170 C.3   117  VAL117      0.0020
    136  N         31.3180  -11.3200   46.3320 N.am  118  LEU118     -0.1966
    137  CA        32.0870  -12.5160   46.6040 C.3   118  LEU118      0.1728
    138  C         33.4180  -12.4400   45.9020 C.2   118  LEU118      0.2616
    139  O         33.5210  -12.1840   44.6900 O.2   118  LEU118     -0.2715
    140  CB        31.3410  -13.7770   46.1850 C.3   118  LEU118      0.0311
    141  CG        30.2010  -14.1030   47.1450 C.3   118  LEU118      0.0022
    142  CD1       29.4350  -15.3090   46.6420 C.3   118  LEU118      0.0001
    143  CD2       30.7740  -14.3610   48.5340 C.3   118  LEU118      0.0001
    144  N         34.4370  -12.6580   46.7110 N.am  119  ILE119     -0.1963
    145  CA        35.8040  -12.6230   46.2810 C.3   119  ILE119      0.1727
    146  C         36.3820  -14.0250   46.2670 C.2   119  ILE119      0.2616
    147  O         36.1500  -14.7970   47.1690 O.2   119  ILE119     -0.2715
    148  CB        36.6260  -11.6940   47.2050 C.3   119  ILE119      0.0290
    149  CG1       36.5010  -10.2390   46.7500 C.3   119  ILE119      0.0022
    150  CG2       38.0790  -12.1190   47.3240 C.3   119  ILE119      0.0023
    151  CD1       37.6400   -9.4100   47.2080 C.3   119  ILE119      0.0001
    152  N         37.0890  -14.3560   45.1990 N.am  120  SER120     -0.1950
    153  CA        37.9390  -15.5400   45.1390 C.3   120  SER120      0.1924
    154  C         37.2740  -16.7940   45.5640 C.2   120  SER120      0.2314
    155  O         37.1050  -16.9530   46.7870 O.2   120  SER120     -0.2863
    156  CB        39.1400  -15.3410   46.0510 C.3   120  SER120      0.2116
    157  OG        39.9880  -16.4630   46.0070 O.3   120  SER120     -0.2180
    158  N         34.2250   -8.9400   49.7300 N.3   126  MET126     -0.1245
    159  CA        34.7320   -7.5920   49.8960 C.3   126  MET126      0.1570
    160  C         33.5700   -6.6470   49.9640 C.2   126  MET126      0.2261
    161  O         32.7510   -6.6030   49.0460 O.2   126  MET126     -0.2867
    162  CB        35.6570   -7.2240   48.7510 C.3   126  MET126      0.0387
    163  CG        36.4460   -5.9590   48.9450 C.3   126  MET126      0.0595
    164  SD        37.6750   -5.8780   47.6410 S.3   126  MET126     -0.1393
    165  CE        39.0770   -6.6410   48.4470 C.3   126  MET126      0.0692
    166  N         35.2130   -0.7750   49.2730 N.3   131  LEU131     -0.1245
    167  CA        35.5600   -0.4910   47.8680 C.3   131  LEU131      0.1561
    168  C         35.4200    0.9800   47.4640 C.2   131  LEU131      0.2260
    169  O         36.2130    1.4780   46.6680 O.2   131  LEU131     -0.2867
    170  CB        34.7210   -1.3570   46.9200 C.3   131  LEU131      0.0270
    171  CG        35.2420   -2.7910   46.8470 C.3   131  LEU131      0.0019
    172  CD1       34.2820   -3.7010   46.1080 C.3   131  LEU131      0.0001
    173  CD2       36.6340   -2.7960   46.2100 C.3   131  LEU131      0.0001
    174  N         35.4800    2.7650   40.4720 N.3   140  PHE140     -0.1227
    175  CA        35.6330    1.5980   39.6160 C.3   140  PHE140      0.1736
    176  C         34.4700    0.6160   39.8030 C.2   140  PHE140      0.2595
    177  O         33.7960    0.2460   38.8430 O.2   140  PHE140     -0.2718
    178  CB        36.9980    0.9620   39.9350 C.3   140  PHE140      0.0547
    179  CG        37.3010   -0.3140   39.2000 C.ar  140  PHE140     -0.0202
    180  CD1       37.6820   -0.2990   37.8690 C.ar  140  PHE140     -0.0042
    181  CD2       37.3010   -1.5260   39.8750 C.ar  140  PHE140     -0.0042
    182  CE1       37.9940   -1.4820   37.2090 C.ar  140  PHE140     -0.0003
    183  CE2       37.6180   -2.7060   39.2230 C.ar  140  PHE140     -0.0003
    184  CZ        37.9630   -2.6870   37.8880 C.ar  140  PHE140     -0.0000
    185  N         34.2100    0.2350   41.0510 N.am  141  MET141     -0.1979
    186  CA        33.2460   -0.8250   41.3440 C.3   141  MET141      0.1605
    187  C         31.8170   -0.3510   41.6430 C.2   141  MET141      0.2287
    188  O         30.8780   -1.1400   41.5410 O.2   141  MET141     -0.2864
    189  CB        33.7530   -1.6690   42.5230 C.3   141  MET141      0.0413
    190  CG        34.9290   -2.5820   42.1840 C.3   141  MET141      0.0598
    191  SD        34.5170   -3.7440   40.8640 S.3   141  MET141     -0.1393
    192  CE        33.2690   -4.7160   41.6830 C.3   141  MET141      0.0692
    193  N         29.1040   -0.8900   39.0180 N.3   144  LYS144     -0.1245
    194  CA        28.8090   -2.3130   38.9000 C.3   144  LYS144      0.1561
    195  C         27.7740   -2.7300   39.9480 C.2   144  LYS144      0.2260
    196  O         26.8610   -3.5030   39.6390 O.2   144  LYS144     -0.2867
    197  CB        30.0710   -3.1610   39.0500 C.3   144  LYS144      0.0271
    198  CG        31.3320   -2.5070   38.5540 C.3   144  LYS144      0.0035
    199  CD        31.2750   -2.2460   37.0730 C.3   144  LYS144      0.0206
    200  CE        32.5940   -1.6700   36.5800 C.3   144  LYS144      0.1093
    201  NZ        32.4290   -1.0300   35.2420 N.3   144  LYS144     -0.1314
    202  N         33.2240    2.1020   31.6670 N.3   226  HIS226     -0.1241
    203  CA        34.3110    1.4090   32.3390 C.3   226  HIS226      0.1621
    204  C         35.6110    1.5410   31.5500 C.2   226  HIS226      0.2264
    205  O         36.6730    1.7430   32.1330 O.2   226  HIS226     -0.2867
    206  CB        33.9580   -0.0640   32.5530 C.3   226  HIS226      0.0745
    207  CG        35.0480   -0.8600   33.1990 C.ar  226  HIS226      0.0817
    208  ND1       35.9140   -1.6550   32.4800 N.ar  226  HIS226     -0.2268
    209  CD2       35.4120   -0.9880   34.4970 C.ar  226  HIS226      0.1154
    210  CE1       36.7650   -2.2380   33.3060 C.ar  226  HIS226      0.1986
    211  NE2       36.4790   -1.8530   34.5360 N.ar  226  HIS226     -0.2212
@<TRIPOS>BOND
     1    89    91   ar
     2    89    88   ar
     3    91    92   ar
     4    83    84    1
     5    87    88    1
     6    87    84    1
     7    88    90   ar
     8    84    85    1
     9    92    90   ar
    10    85    86    2
    11   204   205    2
    12   204   203    1
    13    93    94    1
    14   202   203    1
    15   100    98    1
    16    98    97    1
    17   203   206    1
    18   110   108   ar
    19   110   111   ar
    20   208   207   ar
    21   208   210   ar
    22    80    79    2
    23   206   207    1
    24   108   106   ar
    25    97    94    1
    26    97    99    1
    27    94    95    1
    28    54    52   am
    29   207   209   ar
    30   112   111    1
    31   210   211   ar
    32    79    78    1
    33   111   109   ar
    34   101    95   am
    35   101   102    1
    36   106   105    1
    37   106   107   ar
    38    82    81    1
    39    95    96    2
    40   105   102    1
    41    81    78    1
    42    52    53    2
    43    52    51    1
    44    78    77    1
    45   102   103    1
    46   209   211   ar
    47   109   107   ar
    48   103   104    2
    49    49    48    2
    50   201   200    1
    51    51    50    1
    52    50    47    1
    53    69    68    2
    54    77    68   am
    55    58    57    2
    56    48    47    1
    57    48    55   am
    58    47    46    1
    59    68    67    1
    60   200   199    1
    61    57    56    1
    62    57    66   am
    63    55    56    1
    64    56    59    1
    65   199   198    1
    66    76    74    1
    67   182   180   ar
    68   182   184   ar
    69   113   114    1
    70    43    42    2
    71    75    74    1
    72    46    42   am
    73    67    66    1
    74    67    70    1
    75    74    73    2
    76   180   179   ar
    77   184   183   ar
    78    42    41    1
    79    62    64   ar
    80    62    60   ar
    81    64    65   ar
    82   117   114    1
    83   117   118    1
    84    73    72    1
    85    59    60    1
    86    60    61   ar
    87    65    63   ar
    88   114   115    1
    89   198   197    1
    90    72    71    1
    91   120   118    1
    92    71    70    1
    93    61    63   ar
    94   177   176    2
    95   194   193    1
    96   194   197    1
    97   194   195    1
    98   118   119    1
    99   179   181   ar
   100   179   178    1
   101   183   181   ar
   102   115   116    2
   103    41    44    1
   104    41    40    1
   105    44    45    1
   106   175   176    1
   107   175   178    1
   108   175   174    1
   109   196   195    2
   110   176   185   am
   111    39    38    2
   112    40    38   am
   113    38    37    1
   114   191   192    1
   115   191   190    1
   116    36    37    1
   117   185   186    1
   118   186   187    1
   119   186   189    1
   120   188   187    2
   121   126   127    1
   122   126   128    1
   123   126   125    1
   124   121   122    1
   125   190   189    1
   126    31    30    2
   127   125   122    1
   128    30    29    1
   129   122   123    1
   130    20    19    2
   131    27    25    1
   132    18    17    1
   133    18    19    1
   134    18    21    1
   135    19    28   am
   136   135   133    1
   137   123   124    2
   138    22    21    1
   139    22    23    1
   140    29    28    1
   141    29    32    1
   142    24    25    2
   143    24    23    1
   144    25    26    1
   145   139   138    2
   146    34    32    1
   147   133   134    1
   148   133   130    1
   149   153   152    1
   150   153   154    1
   151   153   156    1
   152    32    33    1
   153   152   146   am
   154   154   155    2
   155   138   137    1
   156   138   144   am
   157   157   156    1
   158   172   171    1
   159   130   131    1
   160   130   129    1
   161   140   137    1
   162   140   141    1
   163   173   171    1
   164   146   145    1
   165   146   147    2
   166   145   144    1
   167   145   148    1
   168   136   137    1
   169   136   131   am
   170    33    35    1
   171   142   141    1
   172   131   132    2
   173   169   168    2
   174   149   148    1
   175   149   151    1
   176   171   170    1
   177   170   167    1
   178   141   143    1
   179   148   150    1
   180   168   167    1
   181   164   165    1
   182   164   163    1
   183   167   166    1
   184   162   163    1
   185   162   159    1
   186   161   160    2
   187   158   159    1
   188   159   160    1
   189    15    14    1
   190    16    14    1
   191     8     6    1
   192    14    13    1
   193     7     5    1
   194     6     5    1
   195     5     2    1
   196    13    10    1
   197     4     3    2
   198    12    11    2
   199    10    11    1
   200    10     9    1
   201     2     3    1
   202     2     1    1
