@<TRIPOS>MOLECULE
tmp/5f9eA00.pdb
 164 154 0 0 0
SMALL
GASTEIGER

@<TRIPOS>ATOM
      1  N         19.6420   83.7730   26.6790 N.3    13  LEU13      -0.1231
      2  CA        20.7600   84.1810   27.4990 C.3    13  LEU13       0.1693
      3  C         22.0080   84.2880   26.6430 C.2    13  LEU13       0.2592
      4  O         22.9220   85.0360   26.9670 O.2    13  LEU13      -0.2718
      5  CB        20.9870   83.1510   28.6220 C.3    13  LEU13       0.0284
      6  CG        19.8150   82.9570   29.5880 C.3    13  LEU13       0.0019
      7  CD1       20.0300   81.7620   30.4970 C.3    13  LEU13       0.0001
      8  CD2       19.5970   84.2260   30.4060 C.3    13  LEU13       0.0001
      9  N         22.0530   83.5090   25.5640 N.am   14  GLY14      -0.1957
     10  CA        23.1940   83.5430   24.6570 C.3    14  GLY14       0.1869
     11  C         22.9940   82.6600   23.4410 C.2    14  GLY14       0.2309
     12  O         22.1820   81.7170   23.4730 O.2    14  GLY14      -0.2863
     13  N         27.5870   77.1620   19.8950 N.3    18  PHE18      -0.1241
     14  CA        26.9780   76.1690   20.8010 C.3    18  PHE18       0.1605
     15  C         25.4580   76.0650   20.6580 C.2    18  PHE18       0.2264
     16  O         24.8250   75.2750   21.3440 O.2    18  PHE18      -0.2867
     17  CB        27.3220   76.5170   22.2590 C.3    18  PHE18       0.0534
     18  CG        26.9820   77.9420   22.6370 C.ar   18  PHE18      -0.0203
     19  CD1       27.9360   78.9430   22.5380 C.ar   18  PHE18      -0.0042
     20  CD2       25.6950   78.2850   23.0500 C.ar   18  PHE18      -0.0042
     21  CE1       27.6260   80.2690   22.8620 C.ar   18  PHE18      -0.0003
     22  CE2       25.3830   79.5920   23.3870 C.ar   18  PHE18      -0.0003
     23  CZ        26.3520   80.5890   23.2900 C.ar   18  PHE18      -0.0000
     24  N         20.9070   79.1540   24.1780 N.3    21  VAL21      -0.1245
     25  CA        20.6320   78.8310   25.5680 C.3    21  VAL21       0.1561
     26  C         19.5650   79.7940   26.0900 C.2    21  VAL21       0.2260
     27  O         19.7420   81.0260   26.0130 O.2    21  VAL21      -0.2867
     28  CB        21.9190   78.9380   26.4020 C.3    21  VAL21       0.0252
     29  CG1       21.6460   78.6410   27.8710 C.3    21  VAL21       0.0019
     30  CG2       22.9810   77.9960   25.8680 C.3    21  VAL21       0.0019
     31  N         18.2490   76.4360   32.5800 N.3    34  ALA34      -0.1245
     32  CA        18.8210   76.8670   31.3240 C.3    34  ALA34       0.1562
     33  C         18.6800   75.7280   30.3160 C.2    34  ALA34       0.2260
     34  O         19.2030   74.6320   30.5400 O.2    34  ALA34      -0.2867
     35  CB        20.2590   77.2400   31.5130 C.3    34  ALA34       0.0290
     36  N         19.6300   74.4450   26.6360 N.3    36  LYS36      -0.1245
     37  CA        20.4050   74.5850   25.4090 C.3    36  LYS36       0.1561
     38  C         19.7000   73.8160   24.2960 C.2    36  LYS36       0.2260
     39  O         19.3990   72.6070   24.4200 O.2    36  LYS36      -0.2867
     40  CB        21.8120   74.0640   25.6120 C.3    36  LYS36       0.0271
     41  CG        22.7430   73.9980   24.4020 C.3    36  LYS36       0.0035
     42  CD        24.0110   73.3720   24.9800 C.3    36  LYS36       0.0206
     43  CE        25.0200   72.9030   23.9830 C.3    36  LYS36       0.1093
     44  NZ        26.3110   72.6960   24.6820 N.3    36  LYS36      -0.1314
     45  N         28.8700   65.0570   24.8960 N.3    55  GLU55      -0.1245
     46  CA        28.3870   66.0350   25.8490 C.3    55  GLU55       0.1567
     47  C         27.3390   65.4000   26.7490 C.2    55  GLU55       0.2260
     48  O         27.3920   65.5220   27.9790 O.2    55  GLU55      -0.2867
     49  CB        27.8170   67.2990   25.1400 C.3    55  GLU55       0.0388
     50  CG        27.3840   68.3590   26.1440 C.3    55  GLU55       0.1160
     51  CD        26.8990   69.6790   25.5410 C.2    55  GLU55       0.3649
     52  OE1       26.8820   69.8540   24.3040 O.co2  55  GLU55      -0.2457
     53  OE2       26.4950   70.5480   26.3350 O.co2  55  GLU55      -0.2457
     54  N         28.5980   72.0620   35.3960 N.3    69  THR69      -0.1218
     55  CA        27.1770   72.3120   35.1400 C.3    69  THR69       0.1862
     56  C         26.4050   71.0030   35.2370 C.2    69  THR69       0.2287
     57  O         26.7990   69.9990   34.6650 O.2    69  THR69      -0.2866
     58  CB        26.9120   72.9020   33.7160 C.3    69  THR69       0.1770
     59  OG1       27.4690   72.0390   32.7180 O.3    69  THR69      -0.2211
     60  CG2       27.5030   74.2660   33.5780 C.3    69  THR69       0.0375
     61  N         19.4400   72.1220   31.6160 N.3    85  MET85      -0.1230
     62  CA        20.4430   72.3840   32.6190 C.3    85  MET85       0.1702
     63  C         19.9150   73.2240   33.8030 C.2    85  MET85       0.2592
     64  O         18.8650   73.8960   33.7510 O.2    85  MET85      -0.2718
     65  CB        21.6230   73.1620   31.9890 C.3    85  MET85       0.0401
     66  CG        22.0880   72.6390   30.6430 C.3    85  MET85       0.0596
     67  SD        22.7530   70.9600   30.7270 S.3    85  MET85      -0.1393
     68  CE        24.2270   71.3240   31.6880 C.3    85  MET85       0.0692
     69  N         20.6550   73.0890   34.8900 N.am   86  GLU86      -0.1966
     70  CA        20.7220   73.9890   36.0260 C.3    86  GLU86       0.1733
     71  C         20.8350   75.4400   35.5060 C.2    86  GLU86       0.2616
     72  O         21.6910   75.7000   34.6620 O.2    86  GLU86      -0.2715
     73  CB        22.0590   73.5860   36.6890 C.3    86  GLU86       0.0429
     74  CG        22.5060   74.3730   37.8460 C.3    86  GLU86       0.1163
     75  CD        23.7280   73.8080   38.5140 C.2    86  GLU86       0.3649
     76  OE1       24.6990   73.2620   37.8920 O.co2  86  GLU86      -0.2457
     77  OE2       23.6800   73.9480   39.7210 O.co2  86  GLU86      -0.2457
     78  N         19.9680   76.3460   35.9690 N.am   87  TYR87      -0.1960
     79  CA        20.0940   77.7730   35.6430 C.3    87  TYR87       0.1771
     80  C         21.0890   78.4380   36.5960 C.2    87  TYR87       0.2619
     81  O         20.8940   78.4090   37.8100 O.2    87  TYR87      -0.2715
     82  CB        18.7390   78.4970   35.7370 C.3    87  TYR87       0.0574
     83  CG        18.8570   79.9920   35.4610 C.ar   87  TYR87      -0.0198
     84  CD1       19.4990   80.4630   34.3190 C.ar   87  TYR87      -0.0009
     85  CD2       18.3710   80.9260   36.3670 C.ar   87  TYR87      -0.0009
     86  CE1       19.6470   81.8180   34.0900 C.ar   87  TYR87       0.0417
     87  CE2       18.4890   82.2810   36.1330 C.ar   87  TYR87       0.0417
     88  CZ        19.1230   82.7290   34.9970 C.ar   87  TYR87       0.1957
     89  OH        19.2400   84.0870   34.7830 O.3    87  TYR87      -0.2866
     90  N         22.1460   79.0210   36.0440 N.am   88  LEU88      -0.1977
     91  CA        23.2430   79.6160   36.8250 C.3    88  LEU88       0.1596
     92  C         23.2910   81.0980   36.4900 C.2    88  LEU88       0.2287
     93  O         23.6040   81.4340   35.3510 O.2    88  LEU88      -0.2864
     94  CB        24.5800   78.9480   36.4370 C.3    88  LEU88       0.0297
     95  CG        24.6490   77.4520   36.7770 C.3    88  LEU88       0.0022
     96  CD1       25.7160   76.6990   35.9970 C.3    88  LEU88       0.0001
     97  CD2       24.8710   77.2770   38.2730 C.3    88  LEU88       0.0001
     98  N         29.0770   84.6840   33.2900 N.3    92  ASP92      -0.1239
     99  CA        30.3040   84.0070   32.8830 C.3    92  ASP92       0.1674
    100  C         31.5440   84.8810   33.0680 C.2    92  ASP92       0.2266
    101  O         31.4530   86.1180   33.1600 O.2    92  ASP92      -0.2867
    102  CB        30.1790   83.4100   31.4720 C.3    92  ASP92       0.1410
    103  CG        30.3220   84.4170   30.3850 C.2    92  ASP92       0.3668
    104  OD1       29.3070   84.7240   29.7540 O.co2  92  ASP92      -0.2456
    105  OD2       31.4490   84.9120   30.1510 O.co2  92  ASP92      -0.2456
    106  N         35.3980   81.6760   28.3340 N.3   135  ASP135     -0.1225
    107  CA        34.0160   81.6580   27.8610 C.3   135  ASP135      0.1805
    108  C         33.2120   80.4890   28.4120 C.2   135  ASP135      0.2597
    109  O         31.9940   80.5430   28.4150 O.2   135  ASP135     -0.2718
    110  CB        33.9990   81.5440   26.3420 C.3   135  ASP135      0.1424
    111  CG        34.9790   82.4860   25.6930 C.2   135  ASP135      0.3668
    112  OD1       34.5060   83.4990   25.1900 O.co2 135  ASP135     -0.2456
    113  OD2       36.2130   82.2440   25.8040 O.co2 135  ASP135     -0.2456
    114  N         33.8950   79.4320   28.8560 N.am  136  ASN136     -0.1974
    115  CA        33.2320   78.2030   29.3100 C.3   136  ASN136      0.1688
    116  C         33.1230   78.0780   30.8400 C.2   136  ASN136      0.2292
    117  O         32.7230   77.0250   31.3580 O.2   136  ASN136     -0.2864
    118  CB        33.9640   77.0000   28.7380 C.3   136  ASN136      0.1181
    119  CG        33.6810   76.7760   27.2730 C.2   136  ASN136      0.2629
    120  OD1       32.9970   77.5570   26.6190 O.2   136  ASN136     -0.2716
    121  ND2       34.2510   75.7080   26.7360 N.am  136  ASN136     -0.0877
    122  N         31.2470   79.5400   34.0650 N.3   138  LEU138     -0.1245
    123  CA        30.0910   80.2730   34.5480 C.3   138  LEU138      0.1561
    124  C         30.2380   80.4530   36.0510 C.2   138  LEU138      0.2260
    125  O         30.9130   79.6600   36.6880 O.2   138  LEU138     -0.2867
    126  CB        28.8300   79.4190   34.3200 C.3   138  LEU138      0.0270
    127  CG        28.1080   79.4040   32.9810 C.3   138  LEU138      0.0019
    128  CD1       29.0120   79.7400   31.8170 C.3   138  LEU138      0.0001
    129  CD2       27.4050   78.0820   32.7710 C.3   138  LEU138      0.0001
    130  N         31.3560   74.5430   31.8880 N.3   148  ALA148     -0.1231
    131  CA        30.2810   74.2300   30.9440 C.3   148  ALA148      0.1694
    132  C         30.8350   73.7840   29.5860 C.2   148  ALA148      0.2592
    133  O         31.9740   74.0890   29.2430 O.2   148  ALA148     -0.2718
    134  CB        29.3750   75.4440   30.7510 C.3   148  ALA148      0.0304
    135  N         29.9730   73.1150   28.8140 N.am  149  ASP149     -0.1974
    136  CA        30.2070   72.6890   27.4340 C.3   149  ASP149      0.1709
    137  C         31.1930   71.5400   27.3500 C.2   149  ASP149      0.2293
    138  O         32.4180   71.7330   27.2460 O.2   149  ASP149     -0.2864
    139  CB        30.6420   73.8050   26.4960 C.3   149  ASP149      0.1436
    140  CG        30.5490   73.3850   25.0580 C.2   149  ASP149      0.3671
    141  OD1       30.2510   72.2060   24.7730 O.co2 149  ASP149     -0.2456
    142  OD2       30.7440   74.2230   24.2020 O.co2 149  ASP149     -0.2456
    143  N         24.2300   88.8620   32.2300 N.3   291  PHE291     -0.1241
    144  CA        24.4380   88.3520   30.8940 C.3   291  PHE291      0.1605
    145  C         24.4000   89.5170   29.9140 C.2   291  PHE291      0.2264
    146  O         23.8140   90.5790   30.1910 O.2   291  PHE291     -0.2867
    147  CB        23.3480   87.3440   30.5540 C.3   291  PHE291      0.0534
    148  CG        23.3640   86.1230   31.4330 C.ar  291  PHE291     -0.0203
    149  CD1       24.3750   85.1680   31.2960 C.ar  291  PHE291     -0.0042
    150  CD2       22.3940   85.9370   32.4180 C.ar  291  PHE291     -0.0042
    151  CE1       24.3970   84.0390   32.1110 C.ar  291  PHE291     -0.0003
    152  CE2       22.4170   84.8150   33.2350 C.ar  291  PHE291     -0.0003
    153  CZ        23.4160   83.8640   33.0800 C.ar  291  PHE291     -0.0000
    154  N         21.9820   89.7170   23.6800 N.3   295  PHE295     -0.1241
    155  CA        21.1780   88.4990   23.5190 C.3   295  PHE295      0.1605
    156  C         19.8140   88.6360   24.2010 C.2   295  PHE295      0.2264
    157  O         18.7920   88.2270   23.6510 O.2   295  PHE295     -0.2867
    158  CB        21.9130   87.2910   24.1170 C.3   295  PHE295      0.0534
    159  CG        23.3040   87.0520   23.5620 C.ar  295  PHE295     -0.0203
    160  CD1       24.4100   86.9700   24.4200 C.ar  295  PHE295     -0.0042
    161  CD2       23.5090   86.8530   22.2040 C.ar  295  PHE295     -0.0042
    162  CE1       25.6810   86.7230   23.9300 C.ar  295  PHE295     -0.0003
    163  CE2       24.7790   86.6000   21.7080 C.ar  295  PHE295     -0.0003
    164  CZ        25.8650   86.5330   22.5720 C.ar  295  PHE295     -0.0000
@<TRIPOS>BOND
     1    13    14    1
     2    15    14    1
     3    15    16    2
     4    14    17    1
     5   163   161   ar
     6   163   164   ar
     7   161   159   ar
     8    17    18    1
     9    19    18   ar
    10    19    21   ar
    11   164   162   ar
    12    18    20   ar
    13    21    23   ar
    14    20    22   ar
    15    23    22   ar
    16    11    12    2
    17    11    10    1
    18   155   154    1
    19   155   158    1
    20   155   156    1
    21   159   158    1
    22   159   160   ar
    23   157   156    2
    24   162   160   ar
    25    43    44    1
    26    43    42    1
    27    24    25    1
    28   142   140   ar
    29    38    39    2
    30    38    37    1
    31    52    51   ar
    32    41    42    1
    33    41    40    1
    34    10     9    1
    35   141   140   ar
    36    45    46    1
    37   140   139    1
    38    49    46    1
    39    49    50    1
    40   112   111   ar
    41    37    40    1
    42    37    36    1
    43    51    50    1
    44    51    53   ar
    45     9     3   am
    46    25    26    1
    47    25    28    1
    48   111   113   ar
    49   111   110    1
    50    46    47    1
    51    30    28    1
    52    27    26    2
    53   110   107    1
    54    28    29    1
    55   139   136    1
    56   120   119    2
    57     3     4    2
    58     3     2    1
    59     1     2    1
    60   121   119   am
    61    47    48    2
    62   138   137    2
    63   119   118    1
    64   137   136    1
    65   136   135    1
    66     2     5    1
    67   107   106    1
    68   107   108    1
    69   108   109    2
    70   108   114   am
    71     5     6    1
    72   118   115    1
    73   135   132   am
    74   114   115    1
    75   133   132    2
    76   115   116    1
    77   132   131    1
    78     6     8    1
    79     6     7    1
    80   104   103   ar
    81   145   146    2
    82   145   144    1
    83   105   103   ar
    84    33    34    2
    85    33    32    1
    86   103   102    1
    87   147   144    1
    88   147   148    1
    89    66    67    1
    90    66    65    1
    91    67    68    1
    92   134   131    1
    93   116   117    2
    94   144   143    1
    95   131   130    1
    96   149   148   ar
    97   149   151   ar
    98    32    35    1
    99    32    31    1
   100   148   150   ar
   101   102    99    1
   102    61    62    1
   103   128   127    1
   104    65    62    1
   105   151   153   ar
   106   150   152   ar
   107    62    63    1
   108    59    58    1
   109   129   127    1
   110    99   100    1
   111    99    98    1
   112   127   126    1
   113   100   101    2
   114   153   152   ar
   115    60    58    1
   116    58    55    1
   117    64    63    2
   118    63    69   am
   119   122   123    1
   120    86    84   ar
   121    86    88   ar
   122    84    83   ar
   123   126   123    1
   124   123   124    1
   125    72    71    2
   126    57    56    2
   127    89    88    1
   128    69    70    1
   129    88    87   ar
   130    55    56    1
   131    55    54    1
   132    93    92    2
   133    83    82    1
   134    83    85   ar
   135    71    78   am
   136    71    70    1
   137    79    82    1
   138    79    78    1
   139    79    80    1
   140    96    95    1
   141    70    73    1
   142    90    80   am
   143    90    91    1
   144   124   125    2
   145    87    85   ar
   146    94    95    1
   147    94    91    1
   148    92    91    1
   149    80    81    2
   150    73    74    1
   151    95    97    1
   152    74    75    1
   153    76    75   ar
   154    75    77   ar
