@<TRIPOS>MOLECULE
tmp/5f9hG00.pdb
 149 144 0 0 0
SMALL
GASTEIGER

@<TRIPOS>ATOM
      1  N        -26.5170  -18.0550   43.3230 N.3   560  CYS560     -0.1221
      2  CA       -26.4490  -17.5750   41.9520 C.3   560  CYS560      0.1808
      3  C        -27.5590  -16.5970   41.6040 C.2   560  CYS560      0.2601
      4  O        -27.2900  -15.4630   41.2170 O.2   560  CYS560     -0.2717
      5  CB       -26.4780  -18.7540   40.9800 C.3   560  CYS560      0.0970
      6  SG       -25.0160  -19.8070   41.0780 S.3   560  CYS560     -0.0800
      7  N        -28.8060  -17.0440   41.7050 N.am  561  HIS561     -0.1961
      8  CA       -29.9020  -16.2790   41.1120 C.3   561  HIS561      0.1787
      9  C        -30.5780  -15.3600   42.1220 C.2   561  HIS561      0.2620
     10  O        -30.7160  -15.7120   43.2760 O.2   561  HIS561     -0.2715
     11  CB       -30.8980  -17.2480   40.4870 C.3   561  HIS561      0.0785
     12  CG       -30.2370  -18.3820   39.7700 C.ar  561  HIS561      0.0821
     13  ND1      -29.7570  -18.2720   38.4820 N.ar  561  HIS561     -0.2267
     14  CD2      -29.9370  -19.6390   40.1760 C.ar  561  HIS561      0.1154
     15  CE1      -29.2120  -19.4180   38.1190 C.ar  561  HIS561      0.1986
     16  NE2      -29.3080  -20.2640   39.1270 N.ar  561  HIS561     -0.2212
     17  N        -30.9880  -14.1720   41.6940 N.am  562  TYR562     -0.1974
     18  CA       -31.5140  -13.1860   42.6360 C.3   562  TYR562      0.1639
     19  C        -32.9930  -12.8890   42.4100 C.2   562  TYR562      0.2290
     20  O        -33.4180  -12.6290   41.2850 O.2   562  TYR562     -0.2864
     21  CB       -30.6990  -11.8930   42.5520 C.3   562  TYR562      0.0560
     22  CG       -29.2720  -12.0450   43.0330 C.ar  562  TYR562     -0.0198
     23  CD1      -28.3210  -12.6810   42.2500 C.ar  562  TYR562     -0.0009
     24  CD2      -28.8770  -11.5520   44.2700 C.ar  562  TYR562     -0.0009
     25  CE1      -27.0210  -12.8280   42.6850 C.ar  562  TYR562      0.0417
     26  CE2      -27.5730  -11.6920   44.7120 C.ar  562  TYR562      0.0417
     27  CZ       -26.6510  -12.3310   43.9120 C.ar  562  TYR562      0.1957
     28  OH       -25.3510  -12.4790   44.3360 O.3   562  TYR562     -0.2866
     29  N        -42.6070  -16.5660   27.8710 N.3   578  HIS578     -0.1241
     30  CA       -41.2430  -16.6950   27.3630 C.3   578  HIS578      0.1621
     31  C        -41.2170  -17.3400   25.9830 C.2   578  HIS578      0.2264
     32  O        -41.7940  -18.4080   25.7830 O.2   578  HIS578     -0.2867
     33  CB       -40.3870  -17.5100   28.3370 C.3   578  HIS578      0.0745
     34  CG       -38.9360  -17.1400   28.3290 C.ar  578  HIS578      0.0817
     35  ND1      -38.1110  -17.3840   27.2540 N.ar  578  HIS578     -0.2268
     36  CD2      -38.1610  -16.5550   29.2730 C.ar  578  HIS578      0.1154
     37  CE1      -36.8910  -16.9570   27.5310 C.ar  578  HIS578      0.1986
     38  NE2      -36.8950  -16.4510   28.7510 N.ar  578  HIS578     -0.2212
     39  N        -37.0600  -22.6030   28.9520 N.3   582  LYS582     -0.1245
     40  CA       -36.0560  -23.6240   29.2060 C.3   582  LYS582      0.1561
     41  C        -36.0190  -23.9990   30.6760 C.2   582  LYS582      0.2260
     42  O        -36.4300  -23.2240   31.5380 O.2   582  LYS582     -0.2867
     43  CB       -34.6680  -23.1500   28.7680 C.3   582  LYS582      0.0271
     44  CG       -34.4990  -22.9670   27.2710 C.3   582  LYS582      0.0035
     45  CD       -33.0420  -22.7150   26.9170 C.3   582  LYS582      0.0206
     46  CE       -32.4900  -21.5220   27.6760 C.3   582  LYS582      0.1093
     47  NZ       -31.0530  -21.2870   27.3680 N.3   582  LYS582     -0.1314
     48  N        -33.3950  -24.7810   33.5860 N.3   584  PHE584     -0.1227
     49  CA       -32.0070  -24.7580   34.0220 C.3   584  PHE584      0.1736
     50  C        -31.9300  -25.0660   35.5110 C.2   584  PHE584      0.2596
     51  O        -32.6110  -24.4360   36.3200 O.2   584  PHE584     -0.2718
     52  CB       -31.3460  -23.4110   33.7010 C.3   584  PHE584      0.0547
     53  CG       -32.0130  -22.2240   34.3430 C.ar  584  PHE584     -0.0202
     54  CD1      -33.0850  -21.5980   33.7290 C.ar  584  PHE584     -0.0042
     55  CD2      -31.5490  -21.7160   35.5450 C.ar  584  PHE584     -0.0042
     56  CE1      -33.6910  -20.5020   34.3120 C.ar  584  PHE584     -0.0003
     57  CE2      -32.1510  -20.6200   36.1310 C.ar  584  PHE584     -0.0003
     58  CZ       -33.2230  -20.0120   35.5130 C.ar  584  PHE584     -0.0000
     59  N        -31.1020  -26.0480   35.8560 N.am  585  SER585     -0.1952
     60  CA       -30.9690  -26.5280   37.2280 C.3   585  SER585      0.1924
     61  C        -32.3330  -26.8440   37.8370 C.2   585  SER585      0.2314
     62  O        -33.0880  -27.6520   37.3000 O.2   585  SER585     -0.2863
     63  CB       -30.2260  -25.5040   38.0920 C.3   585  SER585      0.2116
     64  OG       -30.9740  -24.3090   38.2360 O.3   585  SER585     -0.2180
     65  N        -38.1500  -21.7030   33.4110 N.3   589  LYS589     -0.1245
     66  CA       -38.5700  -20.4340   32.8300 C.3   589  LYS589      0.1561
     67  C        -40.0220  -20.4850   32.3780 C.2   589  LYS589      0.2260
     68  O        -40.4480  -21.4490   31.7440 O.2   589  LYS589     -0.2867
     69  CB       -37.6820  -20.0590   31.6440 C.3   589  LYS589      0.0271
     70  CG       -36.2540  -19.7210   32.0070 C.3   589  LYS589      0.0035
     71  CD       -35.4960  -19.2440   30.7840 C.3   589  LYS589      0.0206
     72  CE       -34.0600  -18.9120   31.1210 C.3   589  LYS589      0.1093
     73  NZ       -33.3200  -18.4130   29.9310 N.3   589  LYS589     -0.1314
     74  N        -41.0650  -13.7550   30.5920 N.3   592  LYS592     -0.1245
     75  CA       -40.1320  -12.6380   30.6580 C.3   592  LYS592      0.1561
     76  C        -40.8130  -11.4680   31.3550 C.2   592  LYS592      0.2260
     77  O        -42.0090  -11.2470   31.1660 O.2   592  LYS592     -0.2867
     78  CB       -39.6780  -12.2210   29.2570 C.3   592  LYS592      0.0271
     79  CG       -38.7760  -13.2160   28.5560 C.3   592  LYS592      0.0035
     80  CD       -37.3620  -13.1440   29.1010 C.3   592  LYS592      0.0206
     81  CE       -36.7750  -11.7550   28.9230 C.3   592  LYS592      0.1093
     82  NZ       -35.4080  -11.6520   29.4990 N.3   592  LYS592     -0.1314
     83  N        -36.2360   -4.8520   29.6600 N.3   603  ASP603     -0.1239
     84  CA       -36.1520   -6.2260   30.1370 C.3   603  ASP603      0.1674
     85  C        -35.4580   -6.2680   31.4930 C.2   603  ASP603      0.2266
     86  O        -34.2720   -5.9660   31.6010 O.2   603  ASP603     -0.2867
     87  CB       -35.4020   -7.0850   29.1120 C.3   603  ASP603      0.1410
     88  CG       -35.0470   -8.4630   29.6380 C.2   603  ASP603      0.3668
     89  OD1      -35.8130   -9.0160   30.4540 O.co2 603  ASP603     -0.2456
     90  OD2      -33.9960   -8.9990   29.2260 O.co2 603  ASP603     -0.2456
     91  N        -35.5720   -9.1440   33.5220 N.3   605  GLY605     -0.1210
     92  CA       -35.3280  -10.5090   33.9490 C.3   605  GLY605      0.1956
     93  C        -36.3670  -11.4910   33.4460 C.2   605  GLY605      0.2611
     94  O        -37.0080  -11.2700   32.4200 O.2   605  GLY605     -0.2717
     95  N        -36.5310  -12.5850   34.1840 N.am  606  ILE606     -0.1979
     96  CA       -37.4860  -13.6310   33.8330 C.3   606  ILE606      0.1595
     97  C        -38.4230  -13.9430   34.9960 C.2   606  ILE606      0.2287
     98  O        -38.1890  -13.5070   36.1190 O.2   606  ILE606     -0.2864
     99  CB       -36.7700  -14.9240   33.4170 C.3   606  ILE606      0.0276
    100  CG1      -35.8190  -15.3750   34.5280 C.3   606  ILE606      0.0022
    101  CG2      -36.0100  -14.7160   32.1210 C.3   606  ILE606      0.0022
    102  CD1      -34.9440  -16.5460   34.1500 C.3   606  ILE606      0.0001
    103  N        -37.0020  -13.6370   38.7270 N.3   617  VAL617     -0.1231
    104  CA       -35.5550  -13.5650   38.8670 C.3   617  VAL617      0.1692
    105  C        -35.0290  -12.4180   38.0120 C.2   617  VAL617      0.2592
    106  O        -35.2850  -12.3610   36.8070 O.2   617  VAL617     -0.2718
    107  CB       -34.8690  -14.8790   38.4550 C.3   617  VAL617      0.0266
    108  CG1      -33.3570  -14.7310   38.5250 C.3   617  VAL617      0.0020
    109  CG2      -35.3350  -16.0210   39.3390 C.3   617  VAL617      0.0020
    110  N        -34.2950  -11.5060   38.6390 N.am  618  ILE618     -0.1966
    111  CA       -33.8310  -10.3050   37.9600 C.3   618  ILE618      0.1727
    112  C        -32.3240  -10.3110   37.7500 C.2   618  ILE618      0.2616
    113  O        -31.5790  -10.9230   38.5140 O.2   618  ILE618     -0.2715
    114  CB       -34.2140   -9.0350   38.7410 C.3   618  ILE618      0.0290
    115  CG1      -33.5830   -9.0570   40.1330 C.3   618  ILE618      0.0022
    116  CG2      -35.7240   -8.9050   38.8400 C.3   618  ILE618      0.0023
    117  CD1      -33.6960   -7.7480   40.8710 C.3   618  ILE618      0.0001
    118  N        -31.8860   -9.6310   36.6960 N.am  619  LYS619     -0.1977
    119  CA       -30.4670   -9.4720   36.4100 C.3   619  LYS619      0.1596
    120  C        -30.0310   -8.0410   36.7080 C.2   619  LYS619      0.2287
    121  O        -30.7290   -7.0880   36.3650 O.2   619  LYS619     -0.2864
    122  CB       -30.1690   -9.8370   34.9550 C.3   619  LYS619      0.0298
    123  CG       -31.1040   -9.1840   33.9510 C.3   619  LYS619      0.0038
    124  CD       -30.8140   -9.6460   32.5360 C.3   619  LYS619      0.0206
    125  CE       -31.7530   -8.9860   31.5430 C.3   619  LYS619      0.1093
    126  NZ       -31.4990   -9.4330   30.1470 N.3   619  LYS619     -0.1314
    127  N        -27.7100   -6.3640   35.4570 N.3   621  GLU621     -0.1245
    128  CA       -27.2230   -5.6500   34.2830 C.3   621  GLU621      0.1567
    129  C        -28.3160   -4.7900   33.6580 C.2   621  GLU621      0.2260
    130  O        -28.0450   -3.9650   32.7890 O.2   621  GLU621     -0.2867
    131  CB       -26.6750   -6.6290   33.2430 C.3   621  GLU621      0.0388
    132  CG       -27.7440   -7.3640   32.4540 C.3   621  GLU621      0.1160
    133  CD       -27.1580   -8.2650   31.3850 C.2   621  GLU621      0.3649
    134  OE1      -27.8480   -8.5160   30.3750 O.co2 621  GLU621     -0.2457
    135  OE2      -26.0090   -8.7240   31.5570 O.co2 621  GLU621     -0.2457
    136  N        -23.6710   -9.8620   38.9410 N.3   639  TRP639     -0.1241
    137  CA       -24.0760   -9.8530   40.3420 C.3   639  TRP639      0.1605
    138  C        -22.9030  -10.0510   41.2950 C.2   639  TRP639      0.2264
    139  O        -22.8860   -9.4950   42.3910 O.2   639  TRP639     -0.2867
    140  CB       -25.1270  -10.9310   40.6000 C.3   639  TRP639      0.0550
    141  CG       -26.5300  -10.5090   40.2850 C.ar  639  TRP639      0.0003
    142  CD1      -27.2660  -10.8610   39.1930 C.ar  639  TRP639      0.0946
    143  CD2      -27.3680   -9.6560   41.0750 C.ar  639  TRP639      0.0152
    144  NE1      -28.5090  -10.2810   39.2520 N.ar  639  TRP639     -0.2442
    145  CE2      -28.5980   -9.5370   40.3970 C.ar  639  TRP639      0.0810
    146  CE3      -27.1990   -8.9830   42.2880 C.ar  639  TRP639      0.0012
    147  CZ2      -29.6510   -8.7700   40.8930 C.ar  639  TRP639      0.0191
    148  CZ3      -28.2460   -8.2230   42.7770 C.ar  639  TRP639      0.0001
    149  CH2      -29.4560   -8.1230   42.0810 C.ar  639  TRP639      0.0015
@<TRIPOS>BOND
     1    32    31    2
     2    31    30    1
     3    45    44    1
     4    45    46    1
     5    35    37   ar
     6    35    34   ar
     7    44    43    1
     8    30    29    1
     9    30    33    1
    10    47    46    1
    11    37    38   ar
    12    34    33    1
    13    34    36   ar
    14    79    80    1
    15    79    78    1
    16    38    36   ar
    17    43    40    1
    18    81    80    1
    19    81    82    1
    20    39    40    1
    21    87    88    1
    22    87    84    1
    23    40    41    1
    24    90    88   ar
    25    78    75    1
    26    88    89   ar
    27    83    84    1
    28    73    72    1
    29    84    85    1
    30   126   125    1
    31   134   133   ar
    32    74    75    1
    33    75    76    1
    34    41    42    2
    35    71    72    1
    36    71    70    1
    37    77    76    2
    38   133   135   ar
    39   133   132    1
    40    85    86    2
    41   125   124    1
    42    69    70    1
    43    69    66    1
    44    68    67    2
    45   101    99    1
    46    67    66    1
    47    94    93    2
    48   132   131    1
    49   124   123    1
    50   130   129    2
    51    66    65    1
    52   131   128    1
    53    99    96    1
    54    99   100    1
    55    93    92    1
    56    93    95   am
    57    91    92    1
    58    48    49    1
    59   129   128    1
    60    52    49    1
    61    52    53    1
    62    54    56   ar
    63    54    53   ar
    64    96    95    1
    65    96    97    1
    66   123   122    1
    67    49    50    1
    68   102   100    1
    69   128   127    1
    70    56    58   ar
    71    53    55   ar
    72   122   119    1
    73    97    98    2
    74    50    59   am
    75    50    51    2
    76    58    57   ar
    77    55    57   ar
    78    59    60    1
    79   121   120    2
    80   119   118    1
    81   119   120    1
    82   118   112   am
    83   106   105    2
    84    60    61    1
    85    60    63    1
    86    62    61    2
    87   112   111    1
    88   112   113    2
    89   111   110    1
    90   111   114    1
    91   105   110   am
    92   105   104    1
    93    63    64    1
    94    15    13   ar
    95    15    16   ar
    96   107   108    1
    97   107   104    1
    98   107   109    1
    99    13    12   ar
   100   103   104    1
   101   114   116    1
   102   114   115    1
   103   136   137    1
   104    16    14   ar
   105   142   144   ar
   106   142   141   ar
   107   144   145   ar
   108    12    14   ar
   109    12    11    1
   110   115   117    1
   111   141   140    1
   112   141   143   ar
   113   137   140    1
   114   137   138    1
   115   145   147   ar
   116   145   143   ar
   117    11     8    1
   118   147   149   ar
   119     5     6    1
   120     5     2    1
   121   143   146   ar
   122     8     7    1
   123     8     9    1
   124     4     3    2
   125    20    19    2
   126   138   139    2
   127     3     7   am
   128     3     2    1
   129    17     9   am
   130    17    18    1
   131     2     1    1
   132   149   148   ar
   133     9    10    2
   134    23    25   ar
   135    23    22   ar
   136   146   148   ar
   137    19    18    1
   138    21    18    1
   139    21    22    1
   140    25    27   ar
   141    22    24   ar
   142    27    28    1
   143    27    26   ar
   144    24    26   ar
