@<TRIPOS>MOLECULE
tmp/5f9kB01.pdb
 99 92 0 0 0
SMALL
GASTEIGER

@<TRIPOS>ATOM
      1  N         30.8850   11.5360  -14.6000 N.3    44  LEU44      -0.1245
      2  CA        29.6660   11.0420  -13.9470 C.3    44  LEU44       0.1561
      3  C         28.8040   10.2930  -14.9400 C.2    44  LEU44       0.2260
      4  O         28.3570   10.8730  -15.9230 O.2    44  LEU44      -0.2867
      5  CB        28.8150   12.1690  -13.3570 C.3    44  LEU44       0.0270
      6  CG        28.8260   12.5990  -11.8950 C.3    44  LEU44       0.0019
      7  CD1       27.8330   13.7290  -11.7320 C.3    44  LEU44       0.0001
      8  CD2       28.4180   11.4460  -11.0040 C.3    44  LEU44       0.0001
      9  N         25.3300    8.8380  -15.0420 N.3    46  MET46      -0.1245
     10  CA        24.0490    8.7170  -14.3430 C.3    46  MET46       0.1570
     11  C         23.2830    7.5100  -14.8390 C.2    46  MET46       0.2261
     12  O         23.2760    7.1970  -16.0380 O.2    46  MET46      -0.2867
     13  CB        23.1830    9.9670  -14.5040 C.3    46  MET46       0.0387
     14  CG        23.8450   11.2570  -14.0820 C.3    46  MET46       0.0595
     15  SD        24.5870   11.2320  -12.4290 S.3    46  MET46      -0.1393
     16  CE        23.1090   11.3860  -11.4190 C.3    46  MET46       0.0692
     17  N         28.6330    1.2020   -5.0190 N.3    61  ILE61      -0.1245
     18  CA        28.9340    1.1840   -6.4230 C.3    61  ILE61       0.1561
     19  C         30.2850    0.5570   -6.5630 C.2    61  ILE61       0.2260
     20  O         31.3020    1.1630   -6.1960 O.2    61  ILE61      -0.2867
     21  CB        28.9680    2.5840   -7.0450 C.3    61  ILE61       0.0252
     22  CG1       27.7630    3.4470   -6.6360 C.3    61  ILE61       0.0019
     23  CG2       29.0640    2.4470   -8.5540 C.3    61  ILE61       0.0019
     24  CD1       26.5000    3.0840   -7.3170 C.3    61  ILE61       0.0001
     25  N         34.8590    5.7900   -8.3100 N.3    76  GLY76      -0.1210
     26  CA        35.1000    6.6620   -7.1810 C.3    76  GLY76       0.1956
     27  C         33.8520    6.7820   -6.3270 C.2    76  GLY76       0.2612
     28  O         32.8040    6.2410   -6.6930 O.2    76  GLY76      -0.2717
     29  N         33.9710    7.4910   -5.2000 N.am   77  ALA77      -0.1965
     30  CA        32.8550    7.6980   -4.2810 C.3    77  ALA77       0.1728
     31  C         32.1630    6.3560   -4.0030 C.2    77  ALA77       0.2617
     32  O         32.7700    5.4580   -3.4240 O.2    77  ALA77      -0.2715
     33  CB        31.8900    8.7150   -4.8440 C.3    77  ALA77       0.0334
     34  N         30.8930    6.2240   -4.3800 N.am   78  GLY78      -0.1940
     35  CA        30.2770    4.9050   -4.3850 C.3    78  GLY78       0.2014
     36  C         29.3540    4.4960   -3.2460 C.2    78  GLY78       0.2639
     37  O         28.8170    3.3580   -3.2510 O.2    78  GLY78      -0.2714
     38  N         29.1340    5.3950   -2.2860 N.am   79  VAL79      -0.1963
     39  CA        28.2810    5.0550   -1.1440 C.3    79  VAL79       0.1727
     40  C         26.8530    5.5490   -1.3750 C.2    79  VAL79       0.2616
     41  O         26.6100    6.7530   -1.3180 O.2    79  VAL79      -0.2715
     42  CB        28.7930    5.6760    0.1740 C.3    79  VAL79       0.0290
     43  CG1       27.8870    5.2550    1.3450 C.3    79  VAL79       0.0023
     44  CG2       30.2280    5.2660    0.4480 C.3    79  VAL79       0.0023
     45  N         25.9140    4.6380   -1.6340 N.am   80  ILE80      -0.1963
     46  CA        24.5180    5.0360   -1.7860 C.3    80  ILE80       0.1727
     47  C         23.7400    4.7940   -0.4880 C.2    80  ILE80       0.2616
     48  O         23.4480    3.6520   -0.1320 O.2    80  ILE80      -0.2715
     49  CB        23.8050    4.2970   -2.9400 C.3    80  ILE80       0.0290
     50  CG1       24.6780    4.2920   -4.1880 C.3    80  ILE80       0.0022
     51  CG2       22.4760    4.9340   -3.2040 C.3    80  ILE80       0.0023
     52  CD1       24.9660    5.6870   -4.7180 C.3    80  ILE80       0.0001
     53  N         23.4760    5.8710    0.2410 N.am   81  ASP81      -0.1971
     54  CA        22.7290    5.8310    1.5060 C.3    81  ASP81       0.1709
     55  C         21.2720    5.3950    1.3790 C.2    81  ASP81       0.2293
     56  O         20.7010    5.5190    0.3150 O.2    81  ASP81      -0.2864
     57  CB        22.7580    7.2010    2.1680 C.3    81  ASP81       0.1436
     58  CG        24.1420    7.6590    2.4660 C.2    81  ASP81       0.3671
     59  OD1       24.7840    7.0450    3.3560 O.co2  81  ASP81      -0.2456
     60  OD2       24.5920    8.6040    1.7760 O.co2  81  ASP81      -0.2456
     61  N         18.6780    6.7990    2.4420 N.3    83  ASP83      -0.1225
     62  CA        17.7530    7.8890    2.1890 C.3    83  ASP83       0.1805
     63  C         18.0850    8.6670    0.9230 C.2    83  ASP83       0.2597
     64  O         17.4750    9.6920    0.6550 O.2    83  ASP83      -0.2718
     65  CB        17.6690    8.7950    3.4370 C.3    83  ASP83       0.1424
     66  CG        19.0490    9.2710    3.9340 C.2    83  ASP83       0.3668
     67  OD1       20.0670    9.0230    3.2570 O.co2  83  ASP83      -0.2456
     68  OD2       19.1160    9.8580    5.0430 O.co2  83  ASP83      -0.2456
     69  N         19.0270    8.1770    0.1250 N.am   84  TYR84      -0.1976
     70  CA        19.2770    8.8030   -1.1710 C.3    84  TYR84       0.1639
     71  C         18.1300    8.5270   -2.1160 C.2    84  TYR84       0.2290
     72  O         17.8730    7.3630   -2.4350 O.2    84  TYR84      -0.2864
     73  CB        20.5740    8.3260   -1.8090 C.3    84  TYR84       0.0560
     74  CG        20.9020    9.0830   -3.0820 C.ar   84  TYR84      -0.0198
     75  CD1       21.1750   10.4470   -3.0520 C.ar   84  TYR84      -0.0009
     76  CD2       20.9160    8.4440   -4.3140 C.ar   84  TYR84      -0.0009
     77  CE1       21.4800   11.1470   -4.2150 C.ar   84  TYR84       0.0417
     78  CE2       21.2100    9.1320   -5.4790 C.ar   84  TYR84       0.0417
     79  CZ        21.4940   10.4800   -5.4240 C.ar   84  TYR84       0.1957
     80  OH        21.7930   11.1650   -6.5810 O.3    84  TYR84      -0.2866
     81  N         18.9590   10.5970   -8.5510 N.3    87  ASN87      -0.1240
     82  CA        19.4250    9.8010   -9.6640 C.3    87  ASN87       0.1653
     83  C         20.7570    9.1360   -9.2720 C.2    87  ASN87       0.2266
     84  O         21.7120    9.8180   -8.9360 O.2    87  ASN87      -0.2867
     85  CB        19.6000   10.7070  -10.8890 C.3    87  ASN87       0.1155
     86  CG        19.8380    9.9460  -12.1740 C.2    87  ASN87       0.2627
     87  OD1       20.3700    8.8310  -12.1800 O.2    87  ASN87      -0.2716
     88  ND2       19.5310   10.5920  -13.2900 N.am   87  ASN87      -0.0877
     89  N         24.2780    7.9360   -9.4500 N.3    89  GLY89      -0.1225
     90  CA        25.3990    8.2490  -10.3150 C.3    89  GLY89       0.1811
     91  C         26.6540    7.4360  -10.0370 C.2    89  GLY89       0.2280
     92  O         27.0270    7.1760   -8.8990 O.2    89  GLY89      -0.2866
     93  N         30.5520    7.3350  -10.3640 N.3    91  VAL91      -0.1245
     94  CA        31.6830    8.1950  -10.5490 C.3    91  VAL91       0.1561
     95  C         32.7870    7.3270  -11.1310 C.2    91  VAL91       0.2260
     96  O         33.2990    6.4610  -10.4660 O.2    91  VAL91      -0.2867
     97  CB        32.1440    8.8140   -9.2320 C.3    91  VAL91       0.0252
     98  CG1       33.3710    9.6570   -9.4570 C.3    91  VAL91       0.0019
     99  CG2       31.0430    9.6360   -8.6060 C.3    91  VAL91       0.0019
@<TRIPOS>BOND
     1    12    11    2
     2     4     3    2
     3     9    10    1
     4     3     2    1
     5    11    10    1
     6     1     2    1
     7    13    10    1
     8    13    14    1
     9    14    15    1
    10     2     5    1
    11     5     6    1
    12    88    86   am
    13    15    16    1
    14    87    86    2
    15    86    85    1
    16     6     7    1
    17     6     8    1
    18    95    94    1
    19    95    96    2
    20    85    82    1
    21    94    93    1
    22    94    97    1
    23    90    91    1
    24    90    89    1
    25    91    92    2
    26    82    83    1
    27    82    81    1
    28    98    97    1
    29    83    84    2
    30    97    99    1
    31    23    21    1
    32    25    26    1
    33    24    22    1
    34    26    27    1
    35    21    22    1
    36    21    18    1
    37    28    27    2
    38    80    79    1
    39    19    18    1
    40    19    20    2
    41    18    17    1
    42    27    29   am
    43    78    79   ar
    44    78    76   ar
    45    79    77   ar
    46    29    30    1
    47    33    30    1
    48    52    50    1
    49    35    34    1
    50    35    36    1
    51    34    31   am
    52    76    74   ar
    53    30    31    1
    54    77    75   ar
    55    50    49    1
    56    31    32    2
    57    37    36    2
    58    36    38   am
    59    51    49    1
    60    74    75   ar
    61    74    73    1
    62    49    46    1
    63    72    71    2
    64    38    39    1
    65    71    70    1
    66    73    70    1
    67    46    45    1
    68    46    47    1
    69    45    40   am
    70    40    41    2
    71    40    39    1
    72    70    69    1
    73    39    42    1
    74    47    48    2
    75    47    53   am
    76    69    63   am
    77    42    44    1
    78    42    43    1
    79    53    54    1
    80    56    55    2
    81    64    63    2
    82    63    62    1
    83    55    54    1
    84    54    57    1
    85    60    58   ar
    86    57    58    1
    87    62    61    1
    88    62    65    1
    89    58    59   ar
    90    67    66   ar
    91    65    66    1
    92    66    68   ar
