@<TRIPOS>MOLECULE
tmp/5f9kB00.pdb
 85 83 0 0 0
SMALL
GASTEIGER

@<TRIPOS>ATOM
      1  N         24.2630   -5.3250  -12.1720 N.3    28  ASP28      -0.1239
      2  CA        24.8760   -4.5110  -13.2280 C.3    28  ASP28       0.1674
      3  C         24.2360   -3.1530  -13.2610 C.2    28  ASP28       0.2266
      4  O         23.0150   -3.0520  -13.3090 O.2    28  ASP28      -0.2867
      5  CB        24.7110   -5.1490  -14.6140 C.3    28  ASP28       0.1410
      6  CG        25.4680   -6.4570  -14.7680 C.2    28  ASP28       0.3668
      7  OD1       26.4010   -6.7290  -13.9900 O.co2  28  ASP28      -0.2456
      8  OD2       25.0770   -7.2560  -15.6450 O.co2  28  ASP28      -0.2456
      9  N         33.4800   -3.0620  -12.0570 N.3    64  ARG64      -0.1231
     10  CA        33.5070   -4.2760  -12.8570 C.3    64  ARG64       0.1694
     11  C         34.9540   -4.7030  -13.0860 C.2    64  ARG64       0.2593
     12  O         35.8420   -3.8620  -13.2670 O.2    64  ARG64      -0.2718
     13  CB        32.7930   -4.0520  -14.1740 C.3    64  ARG64       0.0321
     14  CG        31.4480   -3.4530  -14.0010 C.3    64  ARG64       0.0489
     15  CD        30.8300   -3.2490  -15.3310 C.3    64  ARG64       0.2205
     16  NE        30.5180   -4.5200  -15.9550 N.pl3  64  ARG64      -0.0865
     17  CZ        30.7280   -4.7740  -17.2400 C.cat  64  ARG64       0.5346
     18  NH1       31.2470   -3.8340  -18.0250 N.pl3  64  ARG64       0.1354
     19  NH2       30.4180   -5.9600  -17.7450 N.pl3  64  ARG64       0.1354
     20  N         35.1870   -6.0060  -13.0710 N.am   65  SER65      -0.1938
     21  CA        36.5400   -6.5370  -13.1340 C.3    65  SER65       0.2055
     22  C         37.1930   -6.3910  -14.5100 C.2    65  SER65       0.2644
     23  O         38.3770   -6.0850  -14.6000 O.2    65  SER65      -0.2714
     24  CB        36.5300   -8.0090  -12.7200 C.3    65  SER65       0.2130
     25  OG        36.1440   -8.1180  -11.3610 O.3    65  SER65      -0.2179
     26  N         36.4220   -6.5880  -15.5720 N.am   66  GLY66      -0.1939
     27  CA        36.9270   -6.4120  -16.9220 C.3    66  GLY66       0.2014
     28  C         37.4290   -5.0080  -17.1740 C.2    66  GLY66       0.2639
     29  O         38.5860   -4.8100  -17.5270 O.2    66  GLY66      -0.2714
     30  N         36.5720   -4.0280  -16.9210 N.am   67  LEU67      -0.1963
     31  CA        36.9140   -2.6320  -17.1260 C.3    67  LEU67       0.1728
     32  C         38.1630   -2.2560  -16.3300 C.2    67  LEU67       0.2616
     33  O         38.9880   -1.4550  -16.7870 O.2    67  LEU67      -0.2715
     34  CB        35.7480   -1.7570  -16.7060 C.3    67  LEU67       0.0311
     35  CG        34.4320   -2.1280  -17.3810 C.3    67  LEU67       0.0022
     36  CD1       33.4230   -1.0600  -17.0910 C.3    67  LEU67       0.0001
     37  CD2       34.6090   -2.3340  -18.8840 C.3    67  LEU67       0.0001
     38  N         38.2920   -2.8390  -15.1380 N.am   68  ALA68      -0.1963
     39  CA        39.4090   -2.5370  -14.2400 C.3    68  ALA68       0.1728
     40  C         40.7480   -2.9830  -14.8220 C.2    68  ALA68       0.2616
     41  O         41.7340   -2.2350  -14.7990 O.2    68  ALA68      -0.2715
     42  CB        39.1840   -3.1890  -12.8840 C.3    68  ALA68       0.0334
     43  N         40.8010   -4.2250  -15.3010 N.am   69  TRP69      -0.1960
     44  CA        42.0550   -4.7550  -15.8010 C.3    69  TRP69       0.1771
     45  C         42.3190   -4.3040  -17.2300 C.2    69  TRP69       0.2619
     46  O         43.4620   -4.0070  -17.5930 O.2    69  TRP69      -0.2715
     47  CB        42.0900   -6.2770  -15.7300 C.3    69  TRP69       0.0590
     48  CG        43.3490   -6.8190  -16.3370 C.ar   69  TRP69       0.0006
     49  CD1       43.4520   -7.7140  -17.3630 C.ar   69  TRP69       0.0946
     50  CD2       44.6920   -6.4760  -15.9640 C.ar   69  TRP69       0.0152
     51  NE1       44.7740   -7.9560  -17.6360 N.ar   69  TRP69      -0.2442
     52  CE2       45.5530   -7.2070  -16.7940 C.ar   69  TRP69       0.0810
     53  CE3       45.2420   -5.6290  -15.0020 C.ar   69  TRP69       0.0012
     54  CZ2       46.9430   -7.1170  -16.6930 C.ar   69  TRP69       0.0191
     55  CZ3       46.6020   -5.5370  -14.9030 C.ar   69  TRP69       0.0001
     56  CH2       47.4440   -6.2760  -15.7410 C.ar   69  TRP69       0.0015
     57  N         41.2590   -4.2760  -18.0310 N.am   70  LYS70      -0.1977
     58  CA        41.3470   -3.9280  -19.4440 C.3    70  LYS70       0.1596
     59  C         41.5190   -2.4300  -19.6800 C.2    70  LYS70       0.2287
     60  O         42.3270   -2.0230  -20.5080 O.2    70  LYS70      -0.2864
     61  CB        40.0870   -4.4000  -20.1770 C.3    70  LYS70       0.0298
     62  CG        39.8780   -5.9190  -20.2090 C.3    70  LYS70       0.0038
     63  CD        38.5460   -6.2780  -20.8950 C.3    70  LYS70       0.0206
     64  CE        38.4190   -5.6010  -22.2500 C.3    70  LYS70       0.1093
     65  NZ        39.6710   -5.7680  -23.0500 N.3    70  LYS70      -0.1314
     66  N         27.3600   -1.4720  -19.2810 N.3   107  ARG107     -0.1245
     67  CA        27.5490   -1.7350  -17.8610 C.3   107  ARG107      0.1563
     68  C         28.8460   -1.0370  -17.4010 C.2   107  ARG107      0.2260
     69  O         29.9310   -1.2980  -17.9380 O.2   107  ARG107     -0.2867
     70  CB        27.6020   -3.2290  -17.5850 C.3   107  ARG107      0.0307
     71  CG        26.4220   -4.0210  -18.1120 C.3   107  ARG107      0.0489
     72  CD        26.7940   -5.4860  -18.0070 C.3   107  ARG107      0.2205
     73  NE        26.3740   -6.2690  -19.1620 N.pl3 107  ARG107     -0.0865
     74  CZ        26.9020   -7.4480  -19.4980 C.cat 107  ARG107      0.5346
     75  NH1       27.8870   -7.9720  -18.7780 N.pl3 107  ARG107      0.1354
     76  NH2       26.4570   -8.0970  -20.5680 N.pl3 107  ARG107      0.1354
     77  N         28.8050   -2.2610  -10.7210 N.3   110  GLN110     -0.1245
     78  CA        27.8490   -3.2050  -10.1390 C.3   110  GLN110      0.1566
     79  C         27.4580   -2.7470   -8.7510 C.2   110  GLN110      0.2260
     80  O         28.2970   -2.3750   -7.9590 O.2   110  GLN110     -0.2867
     81  CB        28.4200   -4.6340  -10.0980 C.3   110  GLN110      0.0367
     82  CG        29.7730   -4.8290   -9.3220 C.3   110  GLN110      0.0905
     83  CD        30.3330   -6.2310   -9.4670 C.2   110  GLN110      0.2608
     84  OE1       29.5970   -7.2180   -9.3490 O.2   110  GLN110     -0.2717
     85  NE2       31.6290   -6.3350   -9.7750 N.am  110  GLN110     -0.0878
@<TRIPOS>BOND
     1    65    64    1
     2    64    63    1
     3    63    62    1
     4    76    74    1
     5    60    59    2
     6    62    61    1
     7    61    58    1
     8    59    58    1
     9    74    73    2
    10    74    75    1
    11    58    57    1
    12    66    67    1
    13    73    72    1
    14    37    35    1
    15    71    72    1
    16    71    70    1
    17    57    45   am
    18    18    17    1
    19    69    68    2
    20    67    70    1
    21    67    68    1
    22    19    17    1
    23    51    49   ar
    24    51    52   ar
    25    46    45    2
    26    29    28    2
    27    35    36    1
    28    35    34    1
    29    49    48   ar
    30    17    16    2
    31    45    44    1
    32    28    27    1
    33    28    30   am
    34    31    30    1
    35    31    34    1
    36    31    32    1
    37    27    26    1
    38    52    54   ar
    39    52    50   ar
    40    33    32    2
    41    54    56   ar
    42    48    50   ar
    43    48    47    1
    44    32    38   am
    45    50    53   ar
    46    16    15    1
    47    44    47    1
    48    44    43    1
    49    56    55   ar
    50     8     6   ar
    51    26    22   am
    52    15    14    1
    53    43    40   am
    54    38    39    1
    55    53    55   ar
    56    40    41    2
    57    40    39    1
    58     6     5    1
    59     6     7   ar
    60     5     2    1
    61    23    22    2
    62    22    21    1
    63    39    42    1
    64    13    14    1
    65    13    10    1
    66     4     3    2
    67    12    11    2
    68     3     2    1
    69     2     1    1
    70    21    20    1
    71    21    24    1
    72    11    20   am
    73    11    10    1
    74    10     9    1
    75    24    25    1
    76    77    78    1
    77    78    81    1
    78    78    79    1
    79    81    82    1
    80    85    83   am
    81    83    84    2
    82    83    82    1
    83    79    80    2
