@<TRIPOS>MOLECULE
tmp/5f9tA01.pdb
 108 100 0 0 0
SMALL
GASTEIGER

@<TRIPOS>ATOM
      1  N        124.3530   -7.9820   42.1430 N.3    46  LEU46      -0.1245
      2  CA       125.4740   -7.7290   43.0240 C.3    46  LEU46       0.1561
      3  C        126.7730   -7.9880   42.2560 C.2    46  LEU46       0.2260
      4  O        127.0040   -9.0940   41.7920 O.2    46  LEU46      -0.2867
      5  CB       125.3630   -8.6470   44.2500 C.3    46  LEU46       0.0270
      6  CG       126.5000   -8.4700   45.2800 C.3    46  LEU46       0.0019
      7  CD1      126.6160   -7.0380   45.7620 C.3    46  LEU46       0.0001
      8  CD2      126.2900   -9.4140   46.4560 C.3    46  LEU46       0.0001
      9  N        132.8310  -19.2000   51.9170 N.3    61  ASN61      -0.1240
     10  CA       132.8320  -18.0080   52.7970 C.3    61  ASN61       0.1653
     11  C        134.2140  -17.5100   53.2310 C.2    61  ASN61       0.2266
     12  O        134.3630  -16.8540   54.2810 O.2    61  ASN61      -0.2867
     13  CB       131.9440  -18.2650   54.0100 C.3    61  ASN61       0.1155
     14  CG       130.5190  -18.5620   53.6120 C.2    61  ASN61       0.2627
     15  OD1      130.0690  -18.2060   52.5120 O.2    61  ASN61      -0.2716
     16  ND2      129.7990  -19.2130   54.4950 N.am   61  ASN61      -0.0877
     17  N        136.5840  -15.0750   51.5470 N.3    63  TYR63      -0.1241
     18  CA       136.9890  -14.0920   50.5480 C.3    63  TYR63       0.1605
     19  C        136.9900  -12.6510   51.0160 C.2    63  TYR63       0.2264
     20  O        136.4350  -12.3080   52.0680 O.2    63  TYR63      -0.2867
     21  CB       136.1050  -14.1960   49.2900 C.3    63  TYR63       0.0534
     22  CG       134.6360  -13.9040   49.5370 C.ar   63  TYR63      -0.0201
     23  CD1      133.7710  -14.9200   49.9520 C.ar   63  TYR63      -0.0009
     24  CD2      134.1030  -12.6340   49.3300 C.ar   63  TYR63      -0.0009
     25  CE1      132.4320  -14.6640   50.1870 C.ar   63  TYR63       0.0417
     26  CE2      132.7580  -12.3720   49.5550 C.ar   63  TYR63       0.0417
     27  CZ       131.9250  -13.3840   49.9800 C.ar   63  TYR63       0.1957
     28  OH       130.5980  -13.1090   50.2020 O.3    63  TYR63      -0.2866
     29  N        136.2450   -8.8930   48.9430 N.3    65  ASP65      -0.1239
     30  CA       135.8320   -8.2230   47.7220 C.3    65  ASP65       0.1674
     31  C        135.3860   -6.7880   48.0260 C.2    65  ASP65       0.2266
     32  O        135.2020   -6.3950   49.1810 O.2    65  ASP65      -0.2867
     33  CB       134.7480   -9.0270   46.9530 C.3    65  ASP65       0.1410
     34  CG       133.3560   -8.9740   47.6010 C.2    65  ASP65       0.3668
     35  OD1      133.2560   -8.5530   48.7630 O.co2  65  ASP65      -0.2456
     36  OD2      132.3490   -9.3440   46.9180 O.co2  65  ASP65      -0.2456
     37  N        132.2340   -4.5290   46.4070 N.3    67  PHE67      -0.1241
     38  CA       131.0440   -4.7330   45.5970 C.3    67  PHE67       0.1605
     39  C        130.2340   -3.4630   45.3500 C.2    67  PHE67       0.2264
     40  O        130.3220   -2.4860   46.0940 O.2    67  PHE67      -0.2867
     41  CB       130.1450   -5.8150   46.1960 C.3    67  PHE67       0.0534
     42  CG       129.5550   -5.4600   47.5420 C.ar   67  PHE67      -0.0203
     43  CD1      128.3780   -4.7370   47.6410 C.ar   67  PHE67      -0.0042
     44  CD2      130.1600   -5.8930   48.7110 C.ar   67  PHE67      -0.0042
     45  CE1      127.8280   -4.4300   48.8770 C.ar   67  PHE67      -0.0003
     46  CE2      129.6080   -5.5920   49.9560 C.ar   67  PHE67      -0.0003
     47  CZ       128.4380   -4.8610   50.0350 C.ar   67  PHE67      -0.0000
     48  N        126.0830   -2.4370   44.2570 N.3    69  ARG69      -0.1245
     49  CA       124.6780   -2.8160   44.0660 C.3    69  ARG69       0.1563
     50  C        123.9780   -1.8820   43.0960 C.2    69  ARG69       0.2260
     51  O        124.4790   -0.7810   42.7730 O.2    69  ARG69      -0.2867
     52  CB       123.9090   -2.7870   45.3830 C.3    69  ARG69       0.0307
     53  CG       124.4480   -3.6880   46.4730 C.3    69  ARG69       0.0489
     54  CD       123.4900   -3.6750   47.6530 C.3    69  ARG69       0.2205
     55  NE       124.0700   -4.2460   48.8530 N.pl3  69  ARG69      -0.0865
     56  CZ       124.1110   -5.5480   49.1310 C.cat  69  ARG69       0.5346
     57  NH1      123.6230   -6.4500   48.2830 N.pl3  69  ARG69       0.1354
     58  NH2      124.6750   -5.9560   50.2600 N.pl3  69  ARG69       0.1354
     59  N        133.3030   -6.9650   51.5040 N.3    77  GLU77      -0.1245
     60  CA       133.2240   -8.1010   52.4120 C.3    77  GLU77       0.1567
     61  C        134.6320   -8.6130   52.7140 C.2    77  GLU77       0.2260
     62  O        135.5590   -8.5190   51.8850 O.2    77  GLU77      -0.2867
     63  CB       132.3570   -9.2580   51.8600 C.3    77  GLU77       0.0388
     64  CG       130.9400   -8.8890   51.4590 C.3    77  GLU77       0.1160
     65  CD       130.0320  -10.0950   51.3970 C.2    77  GLU77       0.3649
     66  OE1      129.6050  -10.5530   52.4620 O.co2  77  GLU77      -0.2457
     67  OE2      129.7340  -10.5790   50.2800 O.co2  77  GLU77      -0.2457
     68  N        135.6730  -12.2150   54.7850 N.3    79  ARG79      -0.1245
     69  CA       135.0740  -13.3560   55.4530 C.3    79  ARG79       0.1563
     70  C        136.0710  -14.4960   55.5360 C.2    79  ARG79       0.2260
     71  O        136.9030  -14.6540   54.6420 O.2    79  ARG79      -0.2867
     72  CB       133.8570  -13.8160   54.6630 C.3    79  ARG79       0.0307
     73  CG       132.8720  -12.6880   54.3220 C.3    79  ARG79       0.0489
     74  CD       131.6980  -13.2100   53.5330 C.3    79  ARG79       0.2205
     75  NE       130.8430  -14.0800   54.3370 N.pl3  79  ARG79      -0.0865
     76  CZ       129.8160  -14.7930   53.8690 C.cat  79  ARG79       0.5346
     77  NH1      129.4560  -14.7440   52.5860 N.pl3  79  ARG79       0.1354
     78  NH2      129.1270  -15.5610   54.6980 N.pl3  79  ARG79       0.1354
     79  N        131.1620   -7.0990   56.8560 N.3    88  LEU88      -0.1245
     80  CA       130.5950   -6.3450   55.7510 C.3    88  LEU88       0.1561
     81  C        130.6020   -4.8700   56.1550 C.2    88  LEU88       0.2260
     82  O        130.0210   -4.5050   57.1790 O.2    88  LEU88      -0.2867
     83  CB       129.1830   -6.8280   55.4520 C.3    88  LEU88       0.0270
     84  CG       128.6270   -6.3480   54.0960 C.3    88  LEU88       0.0019
     85  CD1      127.5470   -7.2940   53.5790 C.3    88  LEU88       0.0001
     86  CD2      128.0810   -4.9320   54.1740 C.3    88  LEU88       0.0001
     87  N        134.2640  -18.7660   44.0590 N.3   155  ARG155     -0.1245
     88  CA       133.7220  -19.5120   45.1900 C.3   155  ARG155      0.1563
     89  C        133.3760  -20.9170   44.7140 C.2   155  ARG155      0.2260
     90  O        132.6260  -21.0690   43.7540 O.2   155  ARG155     -0.2867
     91  CB       132.4590  -18.8430   45.7140 C.3   155  ARG155      0.0307
     92  CG       132.6230  -17.3560   46.0110 C.3   155  ARG155      0.0489
     93  CD       131.2970  -16.7690   46.4650 C.3   155  ARG155      0.2205
     94  NE       130.9480  -17.1240   47.8470 N.pl3 155  ARG155     -0.0865
     95  CZ       129.7770  -16.8590   48.4380 C.cat 155  ARG155      0.5346
     96  NH1      128.7960  -16.2430   47.7780 N.pl3 155  ARG155      0.1354
     97  NH2      129.5840  -17.1870   49.7110 N.pl3 155  ARG155      0.1354
     98  N        129.2410  -13.0310   41.6390 N.3   161  PHE161     -0.1241
     99  CA       129.1430  -11.5760   41.6420 C.3   161  PHE161      0.1605
    100  C        129.8050  -10.9590   40.4170 C.2   161  PHE161      0.2264
    101  O        130.5650  -10.0030   40.5430 O.2   161  PHE161     -0.2867
    102  CB       129.7710  -10.9820   42.9170 C.3   161  PHE161      0.0534
    103  CG       129.4020  -11.7020   44.1940 C.ar  161  PHE161     -0.0203
    104  CD1      128.0720  -11.9530   44.5200 C.ar  161  PHE161     -0.0042
    105  CD2      130.4020  -12.0880   45.1060 C.ar  161  PHE161     -0.0042
    106  CE1      127.7450  -12.5840   45.7210 C.ar  161  PHE161     -0.0003
    107  CE2      130.0780  -12.6990   46.3110 C.ar  161  PHE161     -0.0003
    108  CZ       128.7430  -12.9380   46.6260 C.ar  161  PHE161     -0.0000
@<TRIPOS>BOND
     1   100   101    2
     2   100    99    1
     3    98    99    1
     4    99   102    1
     5     4     3    2
     6     1     2    1
     7     3     2    1
     8    51    50    2
     9   102   103    1
    10     2     5    1
    11    50    49    1
    12    90    89    2
    13    87    88    1
    14    49    48    1
    15    49    52    1
    16   103   104   ar
    17   103   105   ar
    18     5     6    1
    19   104   106   ar
    20    89    88    1
    21   105   107   ar
    22    88    91    1
    23     6     7    1
    24     6     8    1
    25    39    38    1
    26    39    40    2
    27    52    53    1
    28    38    41    1
    29    38    37    1
    30    91    92    1
    31   106   108   ar
    32    92    93    1
    33    41    42    1
    34   107   108   ar
    35    93    94    1
    36    53    54    1
    37    36    34   ar
    38    33    34    1
    39    33    30    1
    40    42    43   ar
    41    42    44   ar
    42    34    35   ar
    43    43    45   ar
    44    54    55    1
    45    30    31    1
    46    30    29    1
    47    96    95    1
    48    94    95    2
    49    31    32    2
    50    57    56    1
    51    95    97    1
    52    44    46   ar
    53    55    56    2
    54    45    47   ar
    55    56    58    1
    56    21    22    1
    57    21    18    1
    58    24    22   ar
    59    24    26   ar
    60    22    23   ar
    61    26    27   ar
    62    23    25   ar
    63    46    47   ar
    64    27    25   ar
    65    27    28    1
    66    67    65   ar
    67    18    19    1
    68    18    17    1
    69    19    20    2
    70    65    64    1
    71    65    66   ar
    72    64    63    1
    73    59    60    1
    74    63    60    1
    75    62    61    2
    76     9    10    1
    77    60    61    1
    78    15    14    2
    79    77    76    1
    80    10    11    1
    81    10    13    1
    82    11    12    2
    83    74    73    1
    84    74    75    1
    85    85    84    1
    86    14    13    1
    87    14    16   am
    88    76    75    2
    89    76    78    1
    90    84    86    1
    91    84    83    1
    92    73    72    1
    93    71    70    2
    94    72    69    1
    95    68    69    1
    96    83    80    1
    97    69    70    1
    98    80    81    1
    99    80    79    1
   100    81    82    2
