@<TRIPOS>MOLECULE
tmp/5f9yB01.pdb
 159 155 0 0 0
SMALL
GASTEIGER

@<TRIPOS>ATOM
      1  N         28.6390   -2.8590   13.7260 N.3   128  ARG128     -0.1245
      2  CA        29.6530   -3.9080   13.7530 C.3   128  ARG128      0.1563
      3  C         29.8920   -4.3860   12.3300 C.2   128  ARG128      0.2260
      4  O         28.9540   -4.8180   11.6520 O.2   128  ARG128     -0.2867
      5  CB        29.2310   -5.0780   14.6460 C.3   128  ARG128      0.0307
      6  CG        29.1490   -4.7430   16.1240 C.3   128  ARG128      0.0489
      7  CD        28.7640   -5.9670   16.9390 C.3   128  ARG128      0.2205
      8  NE        28.5900   -5.6510   18.3530 N.pl3 128  ARG128     -0.0865
      9  CZ        28.2080   -6.5310   19.2730 C.cat 128  ARG128      0.5346
     10  NH1       27.9590   -7.7870   18.9310 N.pl3 128  ARG128      0.1354
     11  NH2       28.0750   -6.1530   20.5380 N.pl3 128  ARG128      0.1354
     12  N         30.7460   -6.9890   10.1450 N.3   130  GLU130     -0.1245
     13  CA        30.8270   -8.4410   10.1450 C.3   130  GLU130      0.1567
     14  C         31.0330   -8.9670    8.7290 C.2   130  GLU130      0.2260
     15  O         30.5330   -8.3980    7.7550 O.2   130  GLU130     -0.2867
     16  CB        29.5620   -9.0560   10.7490 C.3   130  GLU130      0.0388
     17  CG        29.0110   -8.3220   11.9530 C.3   130  GLU130      0.1160
     18  CD        27.7050   -8.9540   12.4480 C.2   130  GLU130      0.3649
     19  OE1       27.3330  -10.0180   11.9000 O.co2 130  GLU130     -0.2457
     20  OE2       27.1290   -8.3250   13.3590 O.co2 130  GLU130     -0.2457
     21  N         17.3670   -7.8350   10.6440 N.3   137  PHE137     -0.1227
     22  CA        17.1220   -8.0170   12.0720 C.3   137  PHE137      0.1736
     23  C         18.1580   -8.9210   12.7370 C.2   137  PHE137      0.2595
     24  O         18.8150   -8.5030   13.6950 O.2   137  PHE137     -0.2718
     25  CB        15.7100   -8.5580   12.3180 C.3   137  PHE137      0.0547
     26  CG        14.6220   -7.6180   11.8880 C.ar  137  PHE137     -0.0202
     27  CD1       14.3700   -6.4580   12.6030 C.ar  137  PHE137     -0.0042
     28  CD2       13.8490   -7.8930   10.7730 C.ar  137  PHE137     -0.0042
     29  CE1       13.3720   -5.5910   12.2110 C.ar  137  PHE137     -0.0003
     30  CE2       12.8480   -7.0290   10.3770 C.ar  137  PHE137     -0.0003
     31  CZ        12.6100   -5.8770   11.0970 C.ar  137  PHE137     -0.0000
     32  N         18.3150  -10.1530   12.2460 N.am  138  ILE138     -0.1966
     33  CA        19.1580  -11.1240   12.9420 C.3   138  ILE138      0.1727
     34  C         20.6230  -10.7040   12.8910 C.2   138  ILE138      0.2616
     35  O         21.2980  -10.6280   13.9250 O.2   138  ILE138     -0.2715
     36  CB        18.9540  -12.5370   12.3650 C.3   138  ILE138      0.0290
     37  CG1       17.6240  -13.1340   12.8400 C.3   138  ILE138      0.0022
     38  CG2       20.1090  -13.4450   12.7650 C.3   138  ILE138      0.0023
     39  CD1       16.4210  -12.7320   12.0060 C.3   138  ILE138      0.0001
     40  N         21.1380  -10.4280   11.6930 N.am  139  ARG139     -0.1963
     41  CA        22.5340  -10.0250   11.5130 C.3   139  ARG139      0.1729
     42  C         22.5840   -8.8230   10.5760 C.2   139  ARG139      0.2616
     43  O         22.5180   -8.9780    9.3530 O.2   139  ARG139     -0.2715
     44  CB        23.3790  -11.1750   10.9780 C.3   139  ARG139      0.0348
     45  CG        24.5330  -11.5510   11.8900 C.3   139  ARG139      0.0492
     46  CD        25.4540  -12.5610   11.2400 C.3   139  ARG139      0.2205
     47  NE        24.7240  -13.7010   10.6940 N.pl3 139  ARG139     -0.0865
     48  CZ        24.3120  -14.7400   11.4130 C.cat 139  ARG139      0.5346
     49  NH1       24.5480  -14.7860   12.7170 N.pl3 139  ARG139      0.1354
     50  NH2       23.6600  -15.7340   10.8250 N.pl3 139  ARG139      0.1354
     51  N         22.7180   -7.6300   11.1500 N.am  140  THR140     -0.1951
     52  CA        22.7750   -6.3920   10.3890 C.3   140  THR140      0.1897
     53  C         24.0350   -5.6210   10.7570 C.2   140  THR140      0.2313
     54  O         24.5770   -5.7730   11.8550 O.2   140  THR140     -0.2863
     55  CB        21.5380   -5.5170   10.6420 C.3   140  THR140      0.1794
     56  OG1       21.5190   -5.0920   12.0100 O.3   140  THR140     -0.2208
     57  CG2       20.2700   -6.2980   10.3500 C.3   140  THR140      0.0378
     58  N         22.5040   -2.0140   14.0620 N.3   143  PHE143     -0.1241
     59  CA        21.3220   -2.5180   14.7420 C.3   143  PHE143      0.1605
     60  C         21.0490   -1.6720   15.9750 C.2   143  PHE143      0.2264
     61  O         21.9800   -1.2190   16.6470 O.2   143  PHE143     -0.2867
     62  CB        21.4740   -3.9990   15.1350 C.3   143  PHE143      0.0534
     63  CG        22.6640   -4.2860   16.0120 C.ar  143  PHE143     -0.0203
     64  CD1       22.5590   -4.2240   17.3940 C.ar  143  PHE143     -0.0042
     65  CD2       23.8820   -4.6410   15.4570 C.ar  143  PHE143     -0.0042
     66  CE1       23.6490   -4.4940   18.2010 C.ar  143  PHE143     -0.0003
     67  CE2       24.9760   -4.9150   16.2600 C.ar  143  PHE143     -0.0003
     68  CZ        24.8580   -4.8420   17.6320 C.ar  143  PHE143     -0.0000
     69  N         19.7330   -1.3540   19.8190 N.3   145  TRP145     -0.1241
     70  CA        19.7940   -2.2640   20.9540 C.3   145  TRP145      0.1605
     71  C         19.6660   -1.4770   22.2500 C.2   145  TRP145      0.2264
     72  O         19.4570   -0.2610   22.2550 O.2   145  TRP145     -0.2867
     73  CB        21.0860   -3.0970   20.9340 C.3   145  TRP145      0.0550
     74  CG        22.3320   -2.4520   21.5200 C.ar  145  TRP145      0.0003
     75  CD1       22.5620   -1.1200   21.7380 C.ar  145  TRP145      0.0946
     76  CD2       23.5190   -3.1330   21.9520 C.ar  145  TRP145      0.0152
     77  NE1       23.8080   -0.9350   22.2860 N.ar  145  TRP145     -0.2442
     78  CE2       24.4170   -2.1550   22.4260 C.ar  145  TRP145      0.0810
     79  CE3       23.9080   -4.4770   21.9860 C.ar  145  TRP145      0.0012
     80  CZ2       25.6800   -2.4770   22.9170 C.ar  145  TRP145      0.0191
     81  CZ3       25.1620   -4.7940   22.4810 C.ar  145  TRP145      0.0001
     82  CH2       26.0320   -3.7990   22.9400 C.ar  145  TRP145      0.0015
     83  N         31.6090  -14.4740   26.6470 N.3   192  PHE192     -0.1241
     84  CA        32.1700  -13.1710   26.3250 C.3   192  PHE192      0.1605
     85  C         33.6940  -13.2460   26.3740 C.2   192  PHE192      0.2264
     86  O         34.2520  -13.9850   27.1940 O.2   192  PHE192     -0.2867
     87  CB        31.6510  -12.1190   27.3090 C.3   192  PHE192      0.0534
     88  CG        31.5740  -10.7280   26.7400 C.ar  192  PHE192     -0.0203
     89  CD1       30.7810  -10.4570   25.6360 C.ar  192  PHE192     -0.0042
     90  CD2       32.2750   -9.6870   27.3250 C.ar  192  PHE192     -0.0042
     91  CE1       30.7010   -9.1770   25.1170 C.ar  192  PHE192     -0.0003
     92  CE2       32.1990   -8.4040   26.8100 C.ar  192  PHE192     -0.0003
     93  CZ        31.4110   -8.1500   25.7050 C.ar  192  PHE192     -0.0000
     94  N         20.7950  -17.0760   18.7790 N.3   213  GLN213     -0.1231
     95  CA        20.9960  -16.5220   20.1110 C.3   213  GLN213      0.1698
     96  C         20.0630  -15.3290   20.2940 C.2   213  GLN213      0.2592
     97  O         20.1620  -14.3420   19.5590 O.2   213  GLN213     -0.2718
     98  CB        22.4530  -16.1120   20.3060 C.3   213  GLN213      0.0381
     99  CG        22.7070  -15.3330   21.5800 C.3   213  GLN213      0.0905
    100  CD        24.1770  -15.0360   21.8000 C.2   213  GLN213      0.2608
    101  OE1       24.5320  -14.0020   22.3650 O.2   213  GLN213     -0.2717
    102  NE2       25.0400  -15.9460   21.3610 N.am  213  GLN213     -0.0878
    103  N         19.1600  -15.4160   21.2750 N.am  214  ALA214     -0.1966
    104  CA        18.1090  -14.4120   21.4260 C.3   214  ALA214      0.1728
    105  C         18.5970  -13.1610   22.1520 C.2   214  ALA214      0.2616
    106  O         18.2590  -12.0410   21.7510 O.2   214  ALA214     -0.2715
    107  CB        16.9130  -15.0160   22.1610 C.3   214  ALA214      0.0334
    108  N         19.3650  -13.3290   23.2250 N.am  215  ALA215     -0.1963
    109  CA        19.9130  -12.2160   23.9920 C.3   215  ALA215      0.1728
    110  C         21.0270  -12.7730   24.8650 C.2   215  ALA215      0.2616
    111  O         21.2520  -13.9840   24.9080 O.2   215  ALA215     -0.2715
    112  CB        18.8420  -11.5190   24.8360 C.3   215  ALA215      0.0334
    113  N         21.7260  -11.8790   25.5660 N.am  216  THR216     -0.1951
    114  CA        22.8520  -12.2940   26.3930 C.3   216  THR216      0.1897
    115  C         22.9250  -11.4560   27.6610 C.2   216  THR216      0.2313
    116  O         22.6520  -10.2530   27.6420 O.2   216  THR216     -0.2863
    117  CB        24.1860  -12.1850   25.6380 C.3   216  THR216      0.1794
    118  OG1       23.9740  -12.4120   24.2400 O.3   216  THR216     -0.2208
    119  CG2       25.1530  -13.2270   26.1480 C.3   216  THR216      0.0378
    120  N         25.8380  -11.0290   30.7530 N.3   218  HIS218     -0.1241
    121  CA        27.2100  -11.3740   31.0970 C.3   218  HIS218      0.1621
    122  C         27.4920  -11.0760   32.5620 C.2   218  HIS218      0.2264
    123  O         26.9890  -10.0940   33.1160 O.2   218  HIS218     -0.2867
    124  CB        28.2080  -10.6040   30.2260 C.3   218  HIS218      0.0745
    125  CG        28.0170  -10.8140   28.7580 C.ar  218  HIS218      0.0817
    126  ND1       28.3820  -11.9800   28.1200 N.ar  218  HIS218     -0.2268
    127  CD2       27.5060  -10.0050   27.8000 C.ar  218  HIS218      0.1154
    128  CE1       28.1020  -11.8800   26.8330 C.ar  218  HIS218      0.1986
    129  NE2       27.5680  -10.6920   26.6130 N.ar  218  HIS218     -0.2212
    130  N         22.5660   -7.2250   27.0050 N.3   248  GLY248     -0.1210
    131  CA        22.0860   -6.5690   25.8070 C.3   248  GLY248      0.1956
    132  C         21.0520   -7.3520   25.0230 C.2   248  GLY248      0.2612
    133  O         21.1750   -8.5680   24.8460 O.2   248  GLY248     -0.2717
    134  N         20.0190   -6.6540   24.5590 N.am  249  LEU249     -0.1965
    135  CA        19.0280   -7.1980   23.6430 C.3   249  LEU249      0.1728
    136  C         18.9070   -6.2510   22.4590 C.2   249  LEU249      0.2616
    137  O         18.9050   -5.0280   22.6330 O.2   249  LEU249     -0.2715
    138  CB        17.6680   -7.3820   24.3300 C.3   249  LEU249      0.0311
    139  CG        16.5090   -7.9340   23.4970 C.3   249  LEU249      0.0022
    140  CD1       15.6900   -8.9070   24.3240 C.3   249  LEU249      0.0001
    141  CD2       15.6260   -6.8070   22.9800 C.3   249  LEU249      0.0001
    142  N         18.8120   -6.8130   21.2600 N.am  250  THR250     -0.1951
    143  CA        18.8540   -6.0400   20.0250 C.3   250  THR250      0.1897
    144  C         17.5670   -6.2350   19.2300 C.2   250  THR250      0.2313
    145  O         16.6440   -6.9380   19.6510 O.2   250  THR250     -0.2863
    146  CB        20.0670   -6.4370   19.1780 C.3   250  THR250      0.1794
    147  OG1       19.8600   -7.7450   18.6310 O.3   250  THR250     -0.2208
    148  CG2       21.3220   -6.4510   20.0280 C.3   250  THR250      0.0378
    149  N         17.3560   -8.0180   16.8210 N.3   252  ARG252     -0.1245
    150  CA        17.2740   -9.4170   16.4180 C.3   252  ARG252      0.1563
    151  C         16.0070  -10.0790   16.9490 C.2   252  ARG252      0.2260
    152  O         15.4780  -11.0020   16.3180 O.2   252  ARG252     -0.2867
    153  CB        18.5190  -10.1670   16.8980 C.3   252  ARG252      0.0307
    154  CG        18.4260  -11.6770   16.7730 C.3   252  ARG252      0.0489
    155  CD        19.7180  -12.3570   17.1660 C.3   252  ARG252      0.2205
    156  NE        20.8260  -11.9840   16.2940 N.pl3 252  ARG252     -0.0865
    157  CZ        21.9890  -12.6240   16.2590 C.cat 252  ARG252      0.5346
    158  NH1       22.1880  -13.6760   17.0420 N.pl3 252  ARG252      0.1354
    159  NH2       22.9480  -12.2190   15.4380 N.pl3 252  ARG252      0.1354
@<TRIPOS>BOND
     1    15    14    2
     2    14    13    1
     3    43    42    2
     4    12    13    1
     5    13    16    1
     6    57    55    1
     7    30    28   ar
     8    30    31   ar
     9    52    55    1
    10    52    53    1
    11    52    51    1
    12    42    51   am
    13    42    41    1
    14    55    56    1
    15    21    22    1
    16    47    46    1
    17    47    48    2
    18    16    17    1
    19    53    54    2
    20    28    26   ar
    21    50    48    1
    22    44    41    1
    23    44    45    1
    24    31    29   ar
    25    46    45    1
    26    48    49    1
    27    41    40    1
    28     4     3    2
    29    40    34   am
    30    26    25    1
    31    26    27   ar
    32    19    18   ar
    33    17    18    1
    34    39    37    1
    35    22    25    1
    36    22    23    1
    37    29    27   ar
    38    32    23   am
    39    32    33    1
    40     3     2    1
    41    36    38    1
    42    36    37    1
    43    36    33    1
    44    18    20   ar
    45    23    24    2
    46    34    33    1
    47    34    35    2
    48     1     2    1
    49     2     5    1
    50    58    59    1
    51     5     6    1
    52    59    62    1
    53    59    60    1
    54    62    63    1
    55   159   157    1
    56    65    63   ar
    57    65    67   ar
    58    60    61    2
    59    63    64   ar
    60     6     7    1
    61   157   156    2
    62   157   158    1
    63    67    68   ar
    64   156   155    1
    65   152   151    2
    66   150   149    1
    67   150   153    1
    68   150   151    1
    69   154   153    1
    70   154   155    1
    71     7     8    1
    72    64    66   ar
    73    68    66   ar
    74     8     9    2
    75   147   146    1
    76    94    95    1
    77    10     9    1
    78   146   143    1
    79   146   148    1
    80   144   145    2
    81   144   143    1
    82     9    11    1
    83    97    96    2
    84    69    70    1
    85   143   142    1
    86    95    96    1
    87    95    98    1
    88    96   103   am
    89    98    99    1
    90    73    70    1
    91    73    74    1
    92    70    71    1
    93   142   136   am
    94   103   104    1
    95   102   100   am
    96   104   105    1
    97   104   107    1
    98    74    75   ar
    99    74    76   ar
   100    99   100    1
   101    75    77   ar
   102   106   105    2
   103   100   101    2
   104    76    79   ar
   105    76    78   ar
   106    79    81   ar
   107   105   108   am
   108    71    72    2
   109    77    78   ar
   110    78    80   ar
   111   136   137    2
   112   136   135    1
   113    81    82   ar
   114    80    82   ar
   115   141   139    1
   116   108   109    1
   117   139   140    1
   118   139   138    1
   119   135   138    1
   120   135   134    1
   121   109   112    1
   122   109   110    1
   123   118   117    1
   124   134   132   am
   125   133   132    2
   126   110   111    2
   127   110   113   am
   128   132   131    1
   129    91    89   ar
   130    91    93   ar
   131   113   114    1
   132    89    88   ar
   133   117   119    1
   134   117   114    1
   135    93    92   ar
   136   131   130    1
   137    84    85    1
   138    84    83    1
   139    84    87    1
   140    85    86    2
   141   114   115    1
   142   129   128   ar
   143   129   127   ar
   144    88    87    1
   145    88    90   ar
   146    92    90   ar
   147   128   126   ar
   148   116   115    2
   149   127   125   ar
   150   126   125   ar
   151   125   124    1
   152   124   121    1
   153   120   121    1
   154   121   122    1
   155   122   123    2
