@<TRIPOS>MOLECULE
tmp/5f9yB00.pdb
 112 109 0 0 0
SMALL
GASTEIGER

@<TRIPOS>ATOM
      1  N         30.5120   -1.7760   21.1410 N.3    97  THR97      -0.1218
      2  CA        30.0140   -1.9550   22.4960 C.3    97  THR97       0.1862
      3  C         30.6460   -0.8570   23.3400 C.2    97  THR97       0.2287
      4  O         31.6380   -0.2450   22.9360 O.2    97  THR97      -0.2866
      5  CB        30.3440   -3.3440   23.0510 C.3    97  THR97       0.1770
      6  OG1       29.7350   -3.5050   24.3380 O.3    97  THR97      -0.2211
      7  CG2       31.8510   -3.5290   23.1710 C.3    97  THR97       0.0375
      8  N         31.7980   -0.9890   26.6350 N.3    99  GLU99      -0.1245
      9  CA        32.6340   -1.3400   27.7820 C.3    99  GLU99       0.1567
     10  C         33.8330   -0.4050   27.9010 C.2    99  GLU99       0.2260
     11  O         34.1060    0.1400   28.9770 O.2    99  GLU99      -0.2867
     12  CB        33.1000   -2.7950   27.6760 C.3    99  GLU99       0.0388
     13  CG        32.1770   -3.8140   28.3290 C.3    99  GLU99       0.1160
     14  CD        31.0210   -4.2210   27.4380 C.2    99  GLU99       0.3649
     15  OE1       30.9060   -3.6710   26.3250 O.co2  99  GLU99      -0.2457
     16  OE2       30.2310   -5.0960   27.8480 O.co2  99  GLU99      -0.2457
     17  N         28.6390   -2.8590   13.7260 N.3   128  ARG128     -0.1245
     18  CA        29.6530   -3.9080   13.7530 C.3   128  ARG128      0.1563
     19  C         29.8920   -4.3860   12.3300 C.2   128  ARG128      0.2260
     20  O         28.9540   -4.8180   11.6520 O.2   128  ARG128     -0.2867
     21  CB        29.2310   -5.0780   14.6460 C.3   128  ARG128      0.0307
     22  CG        29.1490   -4.7430   16.1240 C.3   128  ARG128      0.0489
     23  CD        28.7640   -5.9670   16.9390 C.3   128  ARG128      0.2205
     24  NE        28.5900   -5.6510   18.3530 N.pl3 128  ARG128     -0.0865
     25  CZ        28.2080   -6.5310   19.2730 C.cat 128  ARG128      0.5346
     26  NH1       27.9590   -7.7870   18.9310 N.pl3 128  ARG128      0.1354
     27  NH2       28.0750   -6.1530   20.5380 N.pl3 128  ARG128      0.1354
     28  N         19.7330   -1.3540   19.8190 N.3   145  TRP145     -0.1241
     29  CA        19.7940   -2.2640   20.9540 C.3   145  TRP145      0.1605
     30  C         19.6660   -1.4770   22.2500 C.2   145  TRP145      0.2264
     31  O         19.4570   -0.2610   22.2550 O.2   145  TRP145     -0.2867
     32  CB        21.0860   -3.0970   20.9340 C.3   145  TRP145      0.0550
     33  CG        22.3320   -2.4520   21.5200 C.ar  145  TRP145      0.0003
     34  CD1       22.5620   -1.1200   21.7380 C.ar  145  TRP145      0.0946
     35  CD2       23.5190   -3.1330   21.9520 C.ar  145  TRP145      0.0152
     36  NE1       23.8080   -0.9350   22.2860 N.ar  145  TRP145     -0.2442
     37  CE2       24.4170   -2.1550   22.4260 C.ar  145  TRP145      0.0810
     38  CE3       23.9080   -4.4770   21.9860 C.ar  145  TRP145      0.0012
     39  CZ2       25.6800   -2.4770   22.9170 C.ar  145  TRP145      0.0191
     40  CZ3       25.1620   -4.7940   22.4810 C.ar  145  TRP145      0.0001
     41  CH2       26.0320   -3.7990   22.9400 C.ar  145  TRP145      0.0015
     42  N         21.9220   -1.6300   26.0890 N.3   147  GLU147     -0.1245
     43  CA        23.0100   -2.2320   26.8500 C.3   147  GLU147      0.1567
     44  C         22.9810   -1.6880   28.2690 C.2   147  GLU147      0.2260
     45  O         23.0200   -0.4700   28.4740 O.2   147  GLU147     -0.2867
     46  CB        24.3720   -1.9800   26.1960 C.3   147  GLU147      0.0388
     47  CG        24.6580   -0.5390   25.8330 C.3   147  GLU147      0.1160
     48  CD        26.0730   -0.3440   25.3230 C.2   147  GLU147      0.3649
     49  OE1       26.9730   -1.1000   25.7510 O.co2 147  GLU147     -0.2457
     50  OE2       26.2840    0.5540   24.4840 O.co2 147  GLU147     -0.2457
     51  N         24.7420   -1.8520   32.1560 N.3   149  HIS149     -0.1241
     52  CA        26.0010   -2.1500   32.8200 C.3   149  HIS149      0.1621
     53  C         25.8740   -1.8150   34.2950 C.2   149  HIS149      0.2264
     54  O         25.4880   -0.6980   34.6490 O.2   149  HIS149     -0.2867
     55  CB        27.1530   -1.3680   32.1860 C.3   149  HIS149      0.0745
     56  CG        27.3830   -1.7040   30.7460 C.ar  149  HIS149      0.0817
     57  ND1       28.4880   -2.4050   30.3130 N.ar  149  HIS149     -0.2268
     58  CD2       26.6510   -1.4350   29.6390 C.ar  149  HIS149      0.1154
     59  CE1       28.4280   -2.5530   29.0020 C.ar  149  HIS149      0.1986
     60  NE2       27.3240   -1.9710   28.5670 N.ar  149  HIS149     -0.2212
     61  N         31.6090  -14.4740   26.6470 N.3   192  PHE192     -0.1241
     62  CA        32.1700  -13.1710   26.3250 C.3   192  PHE192      0.1605
     63  C         33.6940  -13.2460   26.3740 C.2   192  PHE192      0.2264
     64  O         34.2520  -13.9850   27.1940 O.2   192  PHE192     -0.2867
     65  CB        31.6510  -12.1190   27.3090 C.3   192  PHE192      0.0534
     66  CG        31.5740  -10.7280   26.7400 C.ar  192  PHE192     -0.0203
     67  CD1       30.7810  -10.4570   25.6360 C.ar  192  PHE192     -0.0042
     68  CD2       32.2750   -9.6870   27.3250 C.ar  192  PHE192     -0.0042
     69  CE1       30.7010   -9.1770   25.1170 C.ar  192  PHE192     -0.0003
     70  CE2       32.1990   -8.4040   26.8100 C.ar  192  PHE192     -0.0003
     71  CZ        31.4110   -8.1500   25.7050 C.ar  192  PHE192     -0.0000
     72  N         21.7260  -11.8790   25.5660 N.3   216  THR216     -0.1218
     73  CA        22.8520  -12.2940   26.3930 C.3   216  THR216      0.1862
     74  C         22.9250  -11.4560   27.6610 C.2   216  THR216      0.2287
     75  O         22.6520  -10.2530   27.6420 O.2   216  THR216     -0.2866
     76  CB        24.1860  -12.1850   25.6380 C.3   216  THR216      0.1770
     77  OG1       23.9740  -12.4120   24.2400 O.3   216  THR216     -0.2211
     78  CG2       25.1530  -13.2270   26.1480 C.3   216  THR216      0.0375
     79  N         25.8380  -11.0290   30.7530 N.3   218  HIS218     -0.1241
     80  CA        27.2100  -11.3740   31.0970 C.3   218  HIS218      0.1621
     81  C         27.4920  -11.0760   32.5620 C.2   218  HIS218      0.2264
     82  O         26.9890  -10.0940   33.1160 O.2   218  HIS218     -0.2867
     83  CB        28.2080  -10.6040   30.2260 C.3   218  HIS218      0.0745
     84  CG        28.0170  -10.8140   28.7580 C.ar  218  HIS218      0.0817
     85  ND1       28.3820  -11.9800   28.1200 N.ar  218  HIS218     -0.2268
     86  CD2       27.5060  -10.0050   27.8000 C.ar  218  HIS218      0.1154
     87  CE1       28.1020  -11.8800   26.8330 C.ar  218  HIS218      0.1986
     88  NE2       27.5680  -10.6920   26.6130 N.ar  218  HIS218     -0.2212
     89  N         27.1350   -6.9900   32.3440 N.3   246  SER246     -0.1202
     90  CA        26.6990   -6.2820   31.1490 C.3   246  SER246      0.2020
     91  C         25.7270   -7.1840   30.4040 C.2   246  SER246      0.2619
     92  O         25.8950   -8.4060   30.3880 O.2   246  SER246     -0.2717
     93  CB        27.8760   -5.8890   30.2460 C.3   246  SER246      0.2103
     94  OG        28.3120   -6.9810   29.4560 O.3   246  SER246     -0.2182
     95  N         24.7070   -6.5770   29.8010 N.am  247  TRP247     -0.1961
     96  CA        23.6360   -7.3320   29.1700 C.3   247  TRP247      0.1771
     97  C         23.0590   -6.5190   28.0210 C.2   247  TRP247      0.2620
     98  O         23.0580   -5.2860   28.0530 O.2   247  TRP247     -0.2715
     99  CB        22.5380   -7.6960   30.1790 C.3   247  TRP247      0.0590
    100  CG        22.4460   -6.7610   31.3610 C.ar  247  TRP247      0.0006
    101  CD1       23.1960   -6.8070   32.5000 C.ar  247  TRP247      0.0946
    102  CD2       21.5440   -5.6560   31.5220 C.ar  247  TRP247      0.0152
    103  NE1       22.8250   -5.7990   33.3550 N.ar  247  TRP247     -0.2442
    104  CE2       21.8120   -5.0780   32.7800 C.ar  247  TRP247      0.0810
    105  CE3       20.5390   -5.0990   30.7260 C.ar  247  TRP247      0.0012
    106  CZ2       21.1140   -3.9710   33.2590 C.ar  247  TRP247      0.0191
    107  CZ3       19.8470   -3.9990   31.2040 C.ar  247  TRP247      0.0001
    108  CH2       20.1380   -3.4470   32.4580 C.ar  247  TRP247      0.0015
    109  N         22.5660   -7.2250   27.0050 N.am  248  GLY248     -0.1954
    110  CA        22.0860   -6.5690   25.8070 C.3   248  GLY248      0.1869
    111  C         21.0520   -7.3520   25.0230 C.2   248  GLY248      0.2309
    112  O         21.1750   -8.5680   24.8460 O.2   248  GLY248     -0.2863
@<TRIPOS>BOND
     1    20    19    2
     2    19    18    1
     3    17    18    1
     4    18    21    1
     5    21    22    1
     6    22    23    1
     7    23    24    1
     8    24    25    2
     9    26    25    1
    10    25    27    1
    11    28    29    1
    12    32    29    1
    13    32    33    1
    14    29    30    1
    15     1     2    1
    16    33    34   ar
    17    33    35   ar
    18    34    36   ar
    19    35    38   ar
    20    35    37   ar
    21    38    40   ar
    22    30    31    2
    23    36    37   ar
    24    37    39   ar
    25    40    41   ar
    26     2     5    1
    27     2     3    1
    28    39    41   ar
    29     4     3    2
    30     5     7    1
    31     5     6    1
    32    77    76    1
    33    50    48   ar
    34   112   111    2
    35   111   110    1
    36    69    67   ar
    37    69    71   ar
    38    48    49   ar
    39    48    47    1
    40    72    73    1
    41    67    66   ar
    42    76    78    1
    43    76    73    1
    44    71    70   ar
    45   110   109    1
    46    47    46    1
    47    42    43    1
    48    46    43    1
    49    15    14   ar
    50    62    63    1
    51    62    61    1
    52    62    65    1
    53    63    64    2
    54    73    74    1
    55    88    87   ar
    56    88    86   ar
    57     8     9    1
    58    66    65    1
    59    66    68   ar
    60    70    68   ar
    61    87    85   ar
    62    43    44    1
    63   109    97   am
    64    14    16   ar
    65    14    13    1
    66    75    74    2
    67    12     9    1
    68    12    13    1
    69     9    10    1
    70    86    84   ar
    71    10    11    2
    72    97    98    2
    73    97    96    1
    74    85    84   ar
    75    44    45    2
    76    60    59   ar
    77    60    58   ar
    78    84    83    1
    79    59    57   ar
    80    96    95    1
    81    96    99    1
    82    94    93    1
    83    58    56   ar
    84    95    91   am
    85    99   100    1
    86    83    80    1
    87    93    90    1
    88    57    56   ar
    89    92    91    2
    90    91    90    1
    91   105   107   ar
    92   105   102   ar
    93    56    55    1
    94    79    80    1
    95    80    81    1
    96    90    89    1
    97   107   108   ar
    98   100   102   ar
    99   100   101   ar
   100   102   104   ar
   101    51    52    1
   102    55    52    1
   103   108   106   ar
   104   101   103   ar
   105    81    82    2
   106   104   106   ar
   107   104   103   ar
   108    52    53    1
   109    53    54    2
