@<TRIPOS>MOLECULE
tmp/5f9zA00.pdb
 207 199 0 0 0
SMALL
GASTEIGER

@<TRIPOS>ATOM
      1  N         21.9350   23.4350    4.7340 N.3    91  GLU91      -0.1245
      2  CA        23.2000   24.0380    5.1310 C.3    91  GLU91       0.1567
      3  C         24.3390   23.0360    4.9880 C.2    91  GLU91       0.2260
      4  O         25.1630   22.8840    5.8890 O.2    91  GLU91      -0.2867
      5  CB        23.1240   24.5520    6.5690 C.3    91  GLU91       0.0388
      6  CG        22.5560   23.5330    7.4950 C.3    91  GLU91       0.1160
      7  CD        22.2400   24.1270    8.8280 C.2    91  GLU91       0.3649
      8  OE1       22.6320   25.3110    9.0350 O.co2  91  GLU91      -0.2457
      9  OE2       21.6430   23.4090    9.6760 O.co2  91  GLU91      -0.2457
     10  N         27.5920   21.5620    4.5620 N.3    93  PHE93      -0.1241
     11  CA        28.9890   21.9720    4.6530 C.3    93  PHE93       0.1605
     12  C         29.8520   20.7210    4.5450 C.2    93  PHE93       0.2264
     13  O         29.8510   19.8810    5.4520 O.2    93  PHE93      -0.2867
     14  CB        29.2600   22.7210    5.9560 C.3    93  PHE93       0.0534
     15  CG        28.7240   24.1170    6.0370 C.ar   93  PHE93      -0.0203
     16  CD1       28.6640   24.9600    4.9210 C.ar   93  PHE93      -0.0042
     17  CD2       28.2900   24.6030    7.2840 C.ar   93  PHE93      -0.0042
     18  CE1       28.2180   26.2620    5.0470 C.ar   93  PHE93      -0.0003
     19  CE2       27.8240   25.9060    7.4080 C.ar   93  PHE93      -0.0003
     20  CZ        27.7990   26.7380    6.2780 C.ar   93  PHE93      -0.0000
     21  N         31.9730   19.4080    7.3760 N.3    96  GLU96      -0.1245
     22  CA        31.2340   18.8610    8.5060 C.3    96  GLU96       0.1567
     23  C         30.9020   17.3840    8.3480 C.2    96  GLU96       0.2260
     24  O         30.4990   16.7490    9.3280 O.2    96  GLU96      -0.2867
     25  CB        29.9360   19.6480    8.7260 C.3    96  GLU96       0.0388
     26  CG        30.1390   21.0910    9.1530 C.3    96  GLU96       0.1160
     27  CD        28.8360   21.7690    9.5320 C.2    96  GLU96       0.3649
     28  OE1       27.7840   21.0960    9.4990 O.co2  96  GLU96      -0.2457
     29  OE2       28.8620   22.9730    9.8660 O.co2  96  GLU96      -0.2457
     30  N         28.0720   15.9180   13.0310 N.3   148  ARG148     -0.1245
     31  CA        28.5250   17.0150   12.1880 C.3   148  ARG148      0.1563
     32  C         29.8140   17.5550   12.7800 C.2   148  ARG148      0.2260
     33  O         29.8500   17.9170   13.9600 O.2   148  ARG148     -0.2867
     34  CB        27.4820   18.1360   12.0990 C.3   148  ARG148      0.0307
     35  CG        26.1460   17.7270   11.5090 C.3   148  ARG148      0.0489
     36  CD        25.1770   18.8970   11.5360 C.3   148  ARG148      0.2205
     37  NE        23.8450   18.5270   11.0700 N.pl3 148  ARG148     -0.0865
     38  CZ        22.8060   19.3550   11.0520 C.cat 148  ARG148      0.5346
     39  NH1       22.9430   20.6040   11.4750 N.pl3 148  ARG148      0.1354
     40  NH2       21.6280   18.9340   10.6120 N.pl3 148  ARG148      0.1354
     41  N         31.5240   20.1310   13.6090 N.3   150  GLU150     -0.1245
     42  CA        31.3350   21.5620   13.7960 C.3   150  GLU150      0.1567
     43  C         32.6760   22.2820   13.8160 C.2   150  GLU150      0.2260
     44  O         33.6000   21.8830   14.5310 O.2   150  GLU150     -0.2867
     45  CB        30.5780   21.8240   15.0990 C.3   150  GLU150      0.0388
     46  CG        29.1980   21.1860   15.1670 C.3   150  GLU150      0.1160
     47  CD        28.1840   21.8900   14.2870 C.2   150  GLU150      0.3649
     48  OE1       28.4050   23.0730   13.9510 O.co2 150  GLU150     -0.2457
     49  OE2       27.1660   21.2610   13.9300 O.co2 150  GLU150     -0.2457
     50  N         32.8860   25.6480   14.5980 N.3   152  LYS152     -0.1245
     51  CA        32.8480   26.5870   15.7050 C.3   152  LYS152      0.1561
     52  C         33.1240   25.8700   17.0250 C.2   152  LYS152      0.2260
     53  O         33.0310   24.6430   17.1290 O.2   152  LYS152     -0.2867
     54  CB        31.4970   27.3030   15.7530 C.3   152  LYS152      0.0271
     55  CG        31.1840   28.0860   14.4840 C.3   152  LYS152      0.0035
     56  CD        30.0610   29.0940   14.6860 C.3   152  LYS152      0.0206
     57  CE        28.7060   28.4200   14.8090 C.3   152  LYS152      0.1093
     58  NZ        27.6050   29.4240   14.8460 N.3   152  LYS152     -0.1314
     59  N         25.5330   20.4890   24.8770 N.3   157  PHE157     -0.1227
     60  CA        24.1410   20.5900   24.4460 C.3   157  PHE157      0.1736
     61  C         23.9640   21.5700   23.2900 C.2   157  PHE157      0.2595
     62  O         23.4360   21.1970   22.2370 O.2   157  PHE157     -0.2718
     63  CB        23.2290   20.9930   25.6100 C.3   157  PHE157      0.0547
     64  CG        23.2710   20.0450   26.7730 C.ar  157  PHE157     -0.0202
     65  CD1       22.6770   18.7960   26.6880 C.ar  157  PHE157     -0.0042
     66  CD2       23.8880   20.4090   27.9580 C.ar  157  PHE157     -0.0042
     67  CE1       22.7090   17.9240   27.7590 C.ar  157  PHE157     -0.0003
     68  CE2       23.9200   19.5430   29.0330 C.ar  157  PHE157     -0.0003
     69  CZ        23.3290   18.2990   28.9330 C.ar  157  PHE157     -0.0000
     70  N         24.4060   22.8180   23.4740 N.am  158  ILE158     -0.1966
     71  CA        24.1090   23.8770   22.5090 C.3   158  ILE158      0.1727
     72  C         24.6500   23.5210   21.1280 C.2   158  ILE158      0.2616
     73  O         23.9290   23.5850   20.1240 O.2   158  ILE158     -0.2715
     74  CB        24.6710   25.2240   23.0000 C.3   158  ILE158      0.0290
     75  CG1       24.1380   25.5500   24.3980 C.3   158  ILE158      0.0022
     76  CG2       24.3190   26.3320   22.0190 C.3   158  ILE158      0.0023
     77  CD1       22.6330   25.6870   24.4630 C.3   158  ILE158      0.0001
     78  N         25.9260   23.1470   21.0520 N.am  159  ARG159     -0.1963
     79  CA        26.5560   22.7910   19.7800 C.3   159  ARG159      0.1729
     80  C         27.5540   21.6680   20.0440 C.2   159  ARG159      0.2616
     81  O         28.6610   21.9150   20.5310 O.2   159  ARG159     -0.2715
     82  CB        27.2330   23.9970   19.1380 C.3   159  ARG159      0.0348
     83  CG        27.8660   23.7000   17.7890 C.3   159  ARG159      0.0492
     84  CD        28.3410   24.9710   17.1060 C.3   159  ARG159      0.2205
     85  NE        27.2590   25.9370   16.9420 N.pl3 159  ARG159     -0.0865
     86  CZ        26.3740   25.9080   15.9500 C.cat 159  ARG159      0.5346
     87  NH1       26.4390   24.9560   15.0280 N.pl3 159  ARG159      0.1354
     88  NH2       25.4220   26.8290   15.8800 N.pl3 159  ARG159      0.1354
     89  N         27.1600   20.4410   19.7180 N.am  160  THR160     -0.1951
     90  CA        27.9930   19.2670   19.9200 C.3   160  THR160      0.1897
     91  C         28.2060   18.5520   18.5920 C.2   160  THR160      0.2313
     92  O         27.3350   18.5620   17.7160 O.2   160  THR160     -0.2863
     93  CB        27.3660   18.3060   20.9370 C.3   160  THR160      0.1794
     94  OG1       26.1480   17.7720   20.4040 O.3   160  THR160     -0.2208
     95  CG2       27.0580   19.0360   22.2340 C.3   160  THR160      0.0378
     96  N         25.0590   14.9730   18.4720 N.3   163  PHE163     -0.1241
     97  CA        23.8950   15.3360   19.2590 C.3   163  PHE163      0.1605
     98  C         22.7530   14.3860   18.9400 C.2   163  PHE163      0.2264
     99  O         22.6690   13.8340   17.8400 O.2   163  PHE163     -0.2867
    100  CB        23.4580   16.7910   19.0080 C.3   163  PHE163      0.0534
    101  CG        23.1990   17.1170   17.5620 C.ar  163  PHE163     -0.0203
    102  CD1       21.9450   16.9260   17.0060 C.ar  163  PHE163     -0.0042
    103  CD2       24.2040   17.6410   16.7660 C.ar  163  PHE163     -0.0042
    104  CE1       21.7020   17.2360   15.6800 C.ar  163  PHE163     -0.0003
    105  CE2       23.9680   17.9540   15.4390 C.ar  163  PHE163     -0.0003
    106  CZ        22.7150   17.7530   14.8970 C.ar  163  PHE163     -0.0000
    107  N         18.7690   13.9980   18.2930 N.3   165  TRP165     -0.1241
    108  CA        17.7400   14.8860   17.7870 C.3   165  TRP165      0.1605
    109  C         16.5460   14.0820   17.3010 C.2   165  TRP165      0.2264
    110  O         16.5550   12.8490   17.2710 O.2   165  TRP165     -0.2867
    111  CB        18.2860   15.8080   16.6810 C.3   165  TRP165      0.0550
    112  CG        18.2540   15.3090   15.2450 C.ar  165  TRP165      0.0003
    113  CD1       18.0980   14.0220   14.8020 C.ar  165  TRP165      0.0946
    114  CD2       18.3980   16.1170   14.0690 C.ar  165  TRP165      0.0152
    115  NE1       18.1250   13.9870   13.4290 N.ar  165  TRP165     -0.2442
    116  CE2       18.3100   15.2590   12.9560 C.ar  165  TRP165      0.0810
    117  CE3       18.5900   17.4850   13.8520 C.ar  165  TRP165      0.0012
    118  CZ2       18.4110   15.7240   11.6460 C.ar  165  TRP165      0.0191
    119  CZ3       18.6880   17.9440   12.5510 C.ar  165  TRP165      0.0001
    120  CH2       18.5990   17.0660   11.4660 C.ar  165  TRP165      0.0015
    121  N         18.9380   29.4630   18.2410 N.3   233  GLN233     -0.1231
    122  CA        17.7780   28.9060   17.5540 C.3   233  GLN233      0.1698
    123  C         17.3240   27.6480   18.2830 C.2   233  GLN233      0.2592
    124  O         18.0460   26.6480   18.3270 O.2   233  GLN233     -0.2718
    125  CB        18.1120   28.6110   16.0960 C.3   233  GLN233      0.0381
    126  CG        16.9180   28.1360   15.2840 C.3   233  GLN233      0.0905
    127  CD        17.1630   28.2090   13.7910 C.2   233  GLN233      0.2608
    128  OE1       18.1720   28.7530   13.3410 O.2   233  GLN233     -0.2717
    129  NE2       16.2370   27.6640   13.0130 N.am  233  GLN233     -0.0878
    130  N         16.1240   27.7050   18.8620 N.am  234  ALA234     -0.1966
    131  CA        15.6480   26.6240   19.7160 C.3   234  ALA234      0.1728
    132  C         15.2070   25.4120   18.9040 C.2   234  ALA234      0.2616
    133  O         15.4460   24.2700   19.3100 O.2   234  ALA234     -0.2715
    134  CB        14.5060   27.1320   20.5960 C.3   234  ALA234      0.0334
    135  N         14.5620   25.6430   17.7650 N.am  235  ALA235     -0.1963
    136  CA        14.1290   24.5760   16.8710 C.3   235  ALA235      0.1728
    137  C         13.8350   25.2010   15.5140 C.2   235  ALA235      0.2616
    138  O         13.9710   26.4140   15.3290 O.2   235  ALA235     -0.2715
    139  CB        12.9130   23.8340   17.4310 C.3   235  ALA235      0.0334
    140  N         13.4270   24.3670   14.5610 N.am  236  THR236     -0.1951
    141  CA        13.1680   24.8550   13.2150 C.3   236  THR236      0.1897
    142  C         12.1320   23.9720   12.5340 C.2   236  THR236      0.2313
    143  O         12.0330   22.7730   12.8080 O.2   236  THR236     -0.2863
    144  CB        14.4530   24.9060   12.3790 C.3   236  THR236      0.1794
    145  OG1       14.1600   25.4290   11.0780 O.3   236  THR236     -0.2208
    146  CG2       15.0510   23.5230   12.2390 C.3   236  THR236      0.0378
    147  N         10.5390   23.6900    8.4750 N.3   238  HIS238     -0.1241
    148  CA        10.7190   24.1660    7.1110 C.3   238  HIS238      0.1621
    149  C          9.5090   23.8310    6.2520 C.2   238  HIS238      0.2264
    150  O          8.9620   22.7270    6.3330 O.2   238  HIS238     -0.2867
    151  CB        11.9670   23.5490    6.4710 C.3   238  HIS238      0.0745
    152  CG        13.1910   23.6250    7.3280 C.ar  238  HIS238      0.0817
    153  ND1       13.9220   24.7830    7.4810 N.ar  238  HIS238     -0.2268
    154  CD2       13.8200   22.6820    8.0680 C.ar  238  HIS238      0.1154
    155  CE1       14.9460   24.5510    8.2830 C.ar  238  HIS238      0.1986
    156  NE2       14.9060   23.2840    8.6540 N.ar  238  HIS238     -0.2212
    157  N         13.1130   19.8170   13.0840 N.3   268  GLY268     -0.1210
    158  CA        14.0780   19.1690   13.9560 C.3   268  GLY268      0.1956
    159  C         14.2120   19.8670   15.2900 C.2   268  GLY268      0.2612
    160  O         14.0850   21.0920   15.3900 O.2   268  GLY268     -0.2717
    161  N         14.4740   19.0700   16.3250 N.am  269  LEU269     -0.1965
    162  CA        14.7760   19.5520   17.6660 C.3   269  LEU269      0.1728
    163  C         15.8460   18.6480   18.2570 C.2   269  LEU269      0.2616
    164  O         15.7780   17.4250   18.1120 O.2   269  LEU269     -0.2715
    165  CB        13.5260   19.5680   18.5610 C.3   269  LEU269      0.0311
    166  CG        13.6670   20.0960   19.9940 C.3   269  LEU269      0.0022
    167  CD1       12.4120   20.8450   20.4070 C.3   269  LEU269      0.0001
    168  CD2       13.9460   18.9670   20.9770 C.3   269  LEU269      0.0001
    169  N         16.8270   19.2470   18.9220 N.am  270  THR270     -0.1951
    170  CA        18.0050   18.5310   19.3940 C.3   270  THR270      0.1897
    171  C         18.1360   18.6580   20.9080 C.2   270  THR270      0.2313
    172  O         17.3470   19.3360   21.5740 O.2   270  THR270     -0.2863
    173  CB        19.2720   19.0640   18.7220 C.3   270  THR270      0.1794
    174  OG1       19.5300   20.3880   19.1990 O.3   270  THR270     -0.2208
    175  CG2       19.0980   19.1080   17.2200 C.3   270  THR270      0.0378
    176  N         20.0820   20.4440   22.2780 N.3   272  ARG272     -0.1245
    177  CA        20.3310   21.8470   22.6010 C.3   272  ARG272      0.1563
    178  C         19.2780   22.4010   23.5530 C.2   272  ARG272      0.2260
    179  O         19.5830   23.2710   24.3790 O.2   272  ARG272     -0.2867
    180  CB        20.3740   22.6690   21.3100 C.3   272  ARG272      0.0307
    181  CG        20.2700   24.1710   21.5010 C.3   272  ARG272      0.0489
    182  CD        20.2580   24.8930   20.1660 C.3   272  ARG272      0.2205
    183  NE        21.5450   24.8080   19.4820 N.pl3 272  ARG272     -0.0865
    184  CZ        21.8720   25.5310   18.4160 C.cat 272  ARG272      0.5346
    185  NH1       21.0040   26.3980   17.9110 N.pl3 272  ARG272      0.1354
    186  NH2       23.0660   25.3910   17.8560 N.pl3 272  ARG272      0.1354
    187  N         22.7720   39.6860   12.9120 N.3   457  LYS457     -0.1245
    188  CA        21.9680   39.0800   11.8640 C.3   457  LYS457      0.1561
    189  C         20.5230   38.9880   12.3290 C.2   457  LYS457      0.2260
    190  O         20.2270   39.0490   13.5250 O.2   457  LYS457     -0.2867
    191  CB        22.4870   37.6870   11.4830 C.3   457  LYS457      0.0271
    192  CG        22.1750   36.6040   12.5000 C.3   457  LYS457      0.0035
    193  CD        22.6270   35.2420   12.0010 C.3   457  LYS457      0.0206
    194  CE        22.1040   34.1260   12.8880 C.3   457  LYS457      0.1093
    195  NZ        22.5600   32.7880   12.4180 N.3   457  LYS457     -0.1314
    196  N         24.3460   32.0820   18.6300 N.3   493  TYR493     -0.1241
    197  CA        25.2780   30.9720   18.7710 C.3   493  TYR493      0.1605
    198  C         25.6530   30.4190   17.4020 C.2   493  TYR493      0.2264
    199  O         24.7970   30.2790   16.5280 O.2   493  TYR493     -0.2867
    200  CB        24.6710   29.8630   19.6330 C.3   493  TYR493      0.0534
    201  CG        25.1940   29.8040   21.0510 C.ar  493  TYR493     -0.0201
    202  CD1       26.4010   29.1810   21.3410 C.ar  493  TYR493     -0.0009
    203  CD2       24.4720   30.3550   22.1010 C.ar  493  TYR493     -0.0009
    204  CE1       26.8790   29.1170   22.6360 C.ar  493  TYR493      0.0417
    205  CE2       24.9420   30.2950   23.3990 C.ar  493  TYR493      0.0417
    206  CZ        26.1460   29.6750   23.6600 C.ar  493  TYR493      0.1957
    207  OH        26.6200   29.6110   24.9500 O.3   493  TYR493     -0.2866
@<TRIPOS>BOND
     1    12    11    1
     2    12    13    2
     3    10    11    1
     4    11    14    1
     5     1     2    1
     6    16    18   ar
     7    16    15   ar
     8     3     2    1
     9     3     4    2
    10    18    20   ar
    11     2     5    1
    12    14    15    1
    13    15    17   ar
    14   149   150    2
    15   149   148    1
    16    20    19   ar
    17   151   148    1
    18   151   152    1
    19     5     6    1
    20   148   147    1
    21    17    19   ar
    22   152   153   ar
    23   152   154   ar
    24    21    22    1
    25   153   155   ar
    26     6     7    1
    27   154   156   ar
    28   155   156   ar
    29    23    22    1
    30    23    24    2
    31    22    25    1
    32    25    26    1
    33     7     8   ar
    34     7     9   ar
    35    26    27    1
    36    28    27   ar
    37    27    29   ar
    38    40    38    1
    39    38    37    2
    40    38    39    1
    41    37    36    1
    42   145   144    1
    43   120   118   ar
    44   120   119   ar
    45   191   188    1
    46   191   192    1
    47    35    36    1
    48    35    34    1
    49   118   116   ar
    50   188   189    1
    51   188   187    1
    52   193   192    1
    53   193   194    1
    54    34    31    1
    55    31    32    1
    56    31    30    1
    57   146   144    1
    58   189   190    2
    59   144   141    1
    60   195   194    1
    61   142   143    2
    62   142   141    1
    63   119   117   ar
    64    32    33    2
    65   116   115   ar
    66   116   114   ar
    67   129   127   am
    68   157   158    1
    69   141   140    1
    70   128   127    2
    71   115   113   ar
    72    41    42    1
    73   127   126    1
    74    42    43    1
    75    42    45    1
    76    43    44    2
    77   117   114   ar
    78    49    47   ar
    79    48    47   ar
    80   158   159    1
    81   114   112   ar
    82    47    46    1
    83    55    56    1
    84    55    54    1
    85   140   137   am
    86    50    51    1
    87    56    57    1
    88   113   112   ar
    89    57    58    1
    90   106   105   ar
    91   106   104   ar
    92    87    86    1
    93    45    46    1
    94   112   111    1
    95   126   125    1
    96   159   160    2
    97   159   161   am
    98   138   137    2
    99   105   103   ar
   100   137   136    1
   101   104   102   ar
   102    51    54    1
   103    51    52    1
   104    88    86    1
   105    86    85    2
   106   125   122    1
   107   161   162    1
   108   199   198    2
   109   111   108    1
   110   103   101   ar
   111   136   139    1
   112   136   135    1
   113    85    84    1
   114   102   101   ar
   115    52    53    2
   116    84    83    1
   117   175   173    1
   118   110   109    2
   119   109   108    1
   120   198   197    1
   121   122   121    1
   122   122   123    1
   123   101   100    1
   124   162   163    1
   125   162   165    1
   126    92    91    2
   127   135   132   am
   128   108   107    1
   129    83    82    1
   130    99    98    2
   131   186   184    1
   132   185   184    1
   133   164   163    2
   134   163   169   am
   135   123   124    2
   136   123   130   am
   137   184   183    2
   138    96    97    1
   139   165   166    1
   140    91    90    1
   141   196   197    1
   142   173   174    1
   143   173   170    1
   144   197   200    1
   145   130   131    1
   146   132   133    2
   147   132   131    1
   148   169   170    1
   149    98    97    1
   150   100    97    1
   151    82    79    1
   152   170   171    1
   153   183   182    1
   154   200   201    1
   155   131   134    1
   156    89    90    1
   157    89    80   am
   158    79    80    1
   159    79    78    1
   160    90    93    1
   161   166   167    1
   162   166   168    1
   163    80    81    2
   164    73    72    2
   165   182   181    1
   166    94    93    1
   167   171   172    2
   168    93    95    1
   169   201   202   ar
   170   201   203   ar
   171    78    72   am
   172    72    71    1
   173   180   181    1
   174   180   177    1
   175   202   204   ar
   176    76    74    1
   177   203   205   ar
   178    62    61    2
   179   176   177    1
   180    71    74    1
   181    71    70    1
   182   177   178    1
   183   204   206   ar
   184    74    75    1
   185    61    70   am
   186    61    60    1
   187   205   206   ar
   188   178   179    2
   189   206   207    1
   190    75    77    1
   191    60    59    1
   192    60    63    1
   193    63    64    1
   194    65    64   ar
   195    65    67   ar
   196    64    66   ar
   197    67    69   ar
   198    66    68   ar
   199    69    68   ar
