@<TRIPOS>MOLECULE
tmp/5f9zA01.pdb
 167 163 0 0 0
SMALL
GASTEIGER

@<TRIPOS>ATOM
      1  N         24.5420   11.6500   -1.3760 N.3    88  LEU88      -0.1245
      2  CA        24.6670   12.8670   -0.5800 C.3    88  LEU88       0.1561
      3  C         25.0580   14.0670   -1.4310 C.2    88  LEU88       0.2260
      4  O         24.6850   15.2010   -1.1080 O.2    88  LEU88      -0.2867
      5  CB        25.6860   12.6540    0.5410 C.3    88  LEU88       0.0270
      6  CG        25.8380   13.7690    1.5780 C.3    88  LEU88       0.0019
      7  CD1       24.5570   13.9440    2.3800 C.3    88  LEU88       0.0001
      8  CD2       27.0190   13.4910    2.4980 C.3    88  LEU88       0.0001
      9  N         21.9350   23.4350    4.7340 N.3    91  GLU91      -0.1231
     10  CA        23.2000   24.0380    5.1310 C.3    91  GLU91       0.1699
     11  C         24.3390   23.0360    4.9880 C.2    91  GLU91       0.2593
     12  O         25.1630   22.8840    5.8890 O.2    91  GLU91      -0.2718
     13  CB        23.1240   24.5520    6.5690 C.3    91  GLU91       0.0402
     14  CG        22.5560   23.5330    7.4950 C.3    91  GLU91       0.1161
     15  CD        22.2400   24.1270    8.8280 C.2    91  GLU91       0.3649
     16  OE1       22.6320   25.3110    9.0350 O.co2  91  GLU91      -0.2457
     17  OE2       21.6430   23.4090    9.6760 O.co2  91  GLU91      -0.2457
     18  N         24.3740   22.3540    3.8450 N.am   92  GLY92      -0.1942
     19  CA        25.3890   21.3540    3.5840 C.3    92  GLY92       0.2014
     20  C         26.7970   21.9100    3.5540 C.2    92  GLY92       0.2638
     21  O         27.1650   22.6490    2.6360 O.2    92  GLY92      -0.2714
     22  N         27.5920   21.5620    4.5620 N.am   93  PHE93      -0.1973
     23  CA        28.9890   21.9720    4.6530 C.3    93  PHE93       0.1639
     24  C         29.8520   20.7210    4.5450 C.2    93  PHE93       0.2290
     25  O         29.8510   19.8810    5.4520 O.2    93  PHE93      -0.2864
     26  CB        29.2600   22.7210    5.9560 C.3    93  PHE93       0.0560
     27  CG        28.7240   24.1170    6.0370 C.ar   93  PHE93      -0.0200
     28  CD1       28.6640   24.9600    4.9210 C.ar   93  PHE93      -0.0042
     29  CD2       28.2900   24.6030    7.2840 C.ar   93  PHE93      -0.0042
     30  CE1       28.2180   26.2620    5.0470 C.ar   93  PHE93      -0.0003
     31  CE2       27.8240   25.9060    7.4080 C.ar   93  PHE93      -0.0003
     32  CZ        27.7990   26.7380    6.2780 C.ar   93  PHE93      -0.0000
     33  N         31.9730   19.4080    7.3760 N.3    96  GLU96      -0.1231
     34  CA        31.2340   18.8610    8.5060 C.3    96  GLU96       0.1699
     35  C         30.9020   17.3840    8.3480 C.2    96  GLU96       0.2592
     36  O         30.4990   16.7490    9.3280 O.2    96  GLU96      -0.2718
     37  CB        29.9360   19.6480    8.7260 C.3    96  GLU96       0.0402
     38  CG        30.1390   21.0910    9.1530 C.3    96  GLU96       0.1161
     39  CD        28.8360   21.7690    9.5320 C.2    96  GLU96       0.3649
     40  OE1       27.7840   21.0960    9.4990 O.co2  96  GLU96      -0.2457
     41  OE2       28.8620   22.9730    9.8660 O.co2  96  GLU96      -0.2457
     42  N         31.0630   16.8220    7.1510 N.am   97  VAL97      -0.1980
     43  CA        30.7000   15.4280    6.9200 C.3    97  VAL97       0.1595
     44  C         31.7520   14.5250    7.5480 C.2    97  VAL97       0.2287
     45  O         32.9430   14.6260    7.2350 O.2    97  VAL97      -0.2864
     46  CB        30.5590   15.1380    5.4210 C.3    97  VAL97       0.0276
     47  CG1       29.9160   13.7790    5.2100 C.3    97  VAL97       0.0022
     48  CG2       29.7590   16.2300    4.7360 C.3    97  VAL97       0.0022
     49  N         24.5320   13.3710    8.5060 N.3   116  PRO116     -0.2102
     50  CA        24.3670   14.6850    9.1370 C.3   116  PRO116      0.1504
     51  C         22.9240   15.1510    9.1520 C.2   116  PRO116      0.2576
     52  O         22.6000   16.1080    9.8700 O.2   116  PRO116     -0.2718
     53  CB        25.2200   15.5890    8.2390 C.3   116  PRO116      0.0282
     54  CG        25.0220   14.9920    6.8740 C.3   116  PRO116      0.0208
     55  CD        24.8490   13.4950    7.0710 C.3   116  PRO116      0.0893
     56  N         22.0750   14.4930    8.3630 N.am  117  THR117     -0.1953
     57  CA        20.6450   14.7400    8.2450 C.3   117  THR117      0.1897
     58  C         20.1310   13.7640    7.1940 C.2   117  THR117      0.2313
     59  O         20.9120   13.2820    6.3670 O.2   117  THR117     -0.2863
     60  CB        20.3480   16.1880    7.8590 C.3   117  THR117      0.1794
     61  OG1       18.9320   16.3690    7.7370 O.3   117  THR117     -0.2208
     62  CG2       21.0330   16.5330    6.5460 C.3   117  THR117      0.0378
     63  N         17.5930   13.8800    4.7370 N.3   119  GLU119     -0.1245
     64  CA        16.9250   14.2080    3.4810 C.3   119  GLU119      0.1567
     65  C         17.4250   13.3160    2.3550 C.2   119  GLU119      0.2260
     66  O         16.6350   12.7540    1.5890 O.2   119  GLU119     -0.2867
     67  CB        17.1490   15.6780    3.1270 C.3   119  GLU119      0.0388
     68  CG        16.3550   16.6640    3.9590 C.3   119  GLU119      0.1160
     69  CD        17.0390   17.0190    5.2580 C.2   119  GLU119      0.3649
     70  OE1       18.0060   16.3260    5.6320 O.co2 119  GLU119     -0.2457
     71  OE2       16.6110   17.9980    5.9030 O.co2 119  GLU119     -0.2457
     72  N         28.0720   15.9180   13.0310 N.3   148  ARG148     -0.1245
     73  CA        28.5250   17.0150   12.1880 C.3   148  ARG148      0.1563
     74  C         29.8140   17.5550   12.7800 C.2   148  ARG148      0.2260
     75  O         29.8500   17.9170   13.9600 O.2   148  ARG148     -0.2867
     76  CB        27.4820   18.1360   12.0990 C.3   148  ARG148      0.0307
     77  CG        26.1460   17.7270   11.5090 C.3   148  ARG148      0.0489
     78  CD        25.1770   18.8970   11.5360 C.3   148  ARG148      0.2205
     79  NE        23.8450   18.5270   11.0700 N.pl3 148  ARG148     -0.0865
     80  CZ        22.8060   19.3550   11.0520 C.cat 148  ARG148      0.5346
     81  NH1       22.9430   20.6040   11.4750 N.pl3 148  ARG148      0.1354
     82  NH2       21.6280   18.9340   10.6120 N.pl3 148  ARG148      0.1354
     83  N         18.7690   13.9980   18.2930 N.3   165  TRP165     -0.1241
     84  CA        17.7400   14.8860   17.7870 C.3   165  TRP165      0.1605
     85  C         16.5460   14.0820   17.3010 C.2   165  TRP165      0.2264
     86  O         16.5550   12.8490   17.2710 O.2   165  TRP165     -0.2867
     87  CB        18.2860   15.8080   16.6810 C.3   165  TRP165      0.0550
     88  CG        18.2540   15.3090   15.2450 C.ar  165  TRP165      0.0003
     89  CD1       18.0980   14.0220   14.8020 C.ar  165  TRP165      0.0946
     90  CD2       18.3980   16.1170   14.0690 C.ar  165  TRP165      0.0152
     91  NE1       18.1250   13.9870   13.4290 N.ar  165  TRP165     -0.2442
     92  CE2       18.3100   15.2590   12.9560 C.ar  165  TRP165      0.0810
     93  CE3       18.5900   17.4850   13.8520 C.ar  165  TRP165      0.0012
     94  CZ2       18.4110   15.7240   11.6460 C.ar  165  TRP165      0.0191
     95  CZ3       18.6880   17.9440   12.5510 C.ar  165  TRP165      0.0001
     96  CH2       18.5990   17.0660   11.4660 C.ar  165  TRP165      0.0015
     97  N         13.9960   14.2580   13.8420 N.3   167  GLU167     -0.1245
     98  CA        13.7830   14.8510   12.5270 C.3   167  GLU167      0.1567
     99  C         12.5320   14.2480   11.9110 C.2   167  GLU167      0.2260
    100  O         12.4570   13.0320   11.7050 O.2   167  GLU167     -0.2867
    101  CB        14.9980   14.6630   11.6090 C.3   167  GLU167      0.0388
    102  CG        15.5250   13.2470   11.4800 C.3   167  GLU167      0.1160
    103  CD        16.5920   13.1310   10.4060 C.2   167  GLU167      0.3649
    104  OE1       16.4920   13.8500    9.3880 O.co2 167  GLU167     -0.2457
    105  OE2       17.5350   12.3300   10.5820 O.co2 167  GLU167     -0.2457
    106  N          9.8640   14.2640    8.6610 N.3   169  HIS169     -0.1241
    107  CA         9.7960   14.5520    7.2340 C.3   169  HIS169      0.1621
    108  C          8.4230   14.1390    6.7320 C.2   169  HIS169      0.2264
    109  O          8.0670   12.9580    6.7960 O.2   169  HIS169     -0.2867
    110  CB        10.9000   13.8180    6.4670 C.3   169  HIS169      0.0745
    111  CG        12.2840   14.1940    6.8970 C.ar  169  HIS169      0.0817
    112  ND1       13.0580   15.1020    6.2050 N.ar  169  HIS169     -0.2268
    113  CD2       13.0310   13.7900    7.9510 C.ar  169  HIS169      0.1154
    114  CE1       14.2230   15.2380    6.8140 C.ar  169  HIS169      0.1986
    115  NE2       14.2320   14.4520    7.8760 N.ar  169  HIS169     -0.2212
    116  N         16.6040   27.9990    5.4510 N.3   212  PHE212     -0.1241
    117  CA        17.2070   26.7990    4.8820 C.3   212  PHE212      0.1605
    118  C         17.1860   26.9030    3.3630 C.2   212  PHE212      0.2264
    119  O         16.0990   26.9590    2.7730 O.2   212  PHE212     -0.2867
    120  CB        16.4400   25.5640    5.3540 C.3   212  PHE212      0.0534
    121  CG        17.0130   24.2580    4.8720 C.ar  212  PHE212     -0.0203
    122  CD1       18.3700   24.1130    4.6410 C.ar  212  PHE212     -0.0042
    123  CD2       16.1830   23.1700    4.6520 C.ar  212  PHE212     -0.0042
    124  CE1       18.8870   22.9090    4.1970 C.ar  212  PHE212     -0.0003
    125  CE2       16.6950   21.9650    4.2100 C.ar  212  PHE212     -0.0003
    126  CZ        18.0490   21.8350    3.9830 C.ar  212  PHE212     -0.0000
    127  N         13.4270   24.3670   14.5610 N.3   236  THR236     -0.1218
    128  CA        13.1680   24.8550   13.2150 C.3   236  THR236      0.1862
    129  C         12.1320   23.9720   12.5340 C.2   236  THR236      0.2287
    130  O         12.0330   22.7730   12.8080 O.2   236  THR236     -0.2866
    131  CB        14.4530   24.9060   12.3790 C.3   236  THR236      0.1770
    132  OG1       14.1600   25.4290   11.0780 O.3   236  THR236     -0.2211
    133  CG2       15.0510   23.5230   12.2390 C.3   236  THR236      0.0375
    134  N         10.5390   23.6900    8.4750 N.3   238  HIS238     -0.1241
    135  CA        10.7190   24.1660    7.1110 C.3   238  HIS238      0.1621
    136  C          9.5090   23.8310    6.2520 C.2   238  HIS238      0.2264
    137  O          8.9620   22.7270    6.3330 O.2   238  HIS238     -0.2867
    138  CB        11.9670   23.5490    6.4710 C.3   238  HIS238      0.0745
    139  CG        13.1910   23.6250    7.3280 C.ar  238  HIS238      0.0817
    140  ND1       13.9220   24.7830    7.4810 N.ar  238  HIS238     -0.2268
    141  CD2       13.8200   22.6820    8.0680 C.ar  238  HIS238      0.1154
    142  CE1       14.9460   24.5510    8.2830 C.ar  238  HIS238      0.1986
    143  NE2       14.9060   23.2840    8.6540 N.ar  238  HIS238     -0.2212
    144  N          9.9920   19.6270    6.7680 N.3   266  SER266     -0.1202
    145  CA        10.9670   18.9770    7.6310 C.3   266  SER266      0.2020
    146  C         11.2140   19.8640    8.8410 C.2   266  SER266      0.2619
    147  O         11.1870   21.0940    8.7430 O.2   266  SER266     -0.2717
    148  CB        12.2830   18.6840    6.9040 C.3   266  SER266      0.2103
    149  OG        13.0840   19.8470    6.8040 O.3   266  SER266     -0.2182
    150  N         11.4500   19.2240    9.9840 N.am  267  TRP267     -0.1961
    151  CA        11.5370   19.9240   11.2560 C.3   267  TRP267      0.1771
    152  C         12.4080   19.1160   12.2070 C.2   267  TRP267      0.2620
    153  O         12.4420   17.8840   12.1430 O.2   267  TRP267     -0.2715
    154  CB        10.1410   20.1580   11.8530 C.3   267  TRP267      0.0590
    155  CG         9.0880   19.2050   11.3330 C.ar  267  TRP267      0.0006
    156  CD1        8.4210   19.2890   10.1440 C.ar  267  TRP267      0.0946
    157  CD2        8.5850   18.0330   11.9890 C.ar  267  TRP267      0.0152
    158  NE1        7.5420   18.2420   10.0180 N.ar  267  TRP267     -0.2442
    159  CE2        7.6210   17.4580   11.1380 C.ar  267  TRP267      0.0810
    160  CE3        8.8540   17.4170   13.2120 C.ar  267  TRP267      0.0012
    161  CZ2        6.9290   16.2940   11.4730 C.ar  267  TRP267      0.0191
    162  CZ3        8.1660   16.2630   13.5420 C.ar  267  TRP267      0.0001
    163  CH2        7.2160   15.7140   12.6760 C.ar  267  TRP267      0.0015
    164  N         13.1130   19.8170   13.0840 N.am  268  GLY268     -0.1954
    165  CA        14.0780   19.1690   13.9560 C.3   268  GLY268      0.1869
    166  C         14.2120   19.8670   15.2900 C.2   268  GLY268      0.2309
    167  O         14.0850   21.0920   15.3900 O.2   268  GLY268     -0.2863
@<TRIPOS>BOND
     1     3     4    2
     2     3     2    1
     3     1     2    1
     4     2     5    1
     5     5     6    1
     6     6     7    1
     7     6     8    1
     8    66    65    2
     9    65    64    1
    10    21    20    2
    11   119   118    2
    12    67    64    1
    13    67    68    1
    14   118   117    1
    15    64    63    1
    16    20    19    1
    17    20    22   am
    18    19    18    1
    19    18    11   am
    20    68    69    1
    21   126   124   ar
    22   126   125   ar
    23   124   122   ar
    24   125   123   ar
    25    24    23    1
    26    24    25    2
    27    22    23    1
    28   122   121   ar
    29   123   121   ar
    30    23    26    1
    31     9    10    1
    32    48    46    1
    33   121   120    1
    34   117   120    1
    35   117   116    1
    36    28    30   ar
    37    28    27   ar
    38    11    10    1
    39    11    12    2
    40    30    32   ar
    41    10    13    1
    42    47    46    1
    43    69    70   ar
    44    69    71   ar
    45    46    43    1
    46    26    27    1
    47    27    29   ar
    48   112   114   ar
    49   112   111   ar
    50   136   137    2
    51   136   135    1
    52    32    31   ar
    53    59    58    2
    54   110   111    1
    55   110   107    1
    56   138   135    1
    57   138   139    1
    58    62    60    1
    59    13    14    1
    60   108   109    2
    61   108   107    1
    62   144   145    1
    63   149   148    1
    64   114   115   ar
    65    54    55    1
    66    54    53    1
    67   111   113   ar
    68   148   145    1
    69    43    42    1
    70    43    44    1
    71    55    49    1
    72   135   134    1
    73    42    35   am
    74    58    57    1
    75   107   106    1
    76    45    44    2
    77    29    31   ar
    78   139   140   ar
    79   139   141   ar
    80    33    34    1
    81   140   142   ar
    82    14    15    1
    83   145   146    1
    84    61    60    1
    85    60    57    1
    86   115   113   ar
    87   141   143   ar
    88    53    50    1
    89    57    56    1
    90   142   143   ar
    91    35    34    1
    92    35    36    2
    93    56    51   am
    94    49    50    1
    95    34    37    1
    96    37    38    1
    97   147   146    2
    98    15    16   ar
    99    15    17   ar
   100   146   150   am
   101    50    51    1
   102    51    52    2
   103    38    39    1
   104   104   103   ar
   105    40    39   ar
   106    39    41   ar
   107   150   151    1
   108   158   156   ar
   109   158   159   ar
   110   156   155   ar
   111   103   105   ar
   112   103   102    1
   113    82    80    1
   114    80    79    2
   115    80    81    1
   116    79    78    1
   117   132   131    1
   118   159   161   ar
   119   159   157   ar
   120   151   154    1
   121   151   152    1
   122   155   154    1
   123   155   157   ar
   124    96    94   ar
   125    96    95   ar
   126   161   163   ar
   127   102   101    1
   128    77    78    1
   129    77    76    1
   130   101    98    1
   131    94    92   ar
   132   100    99    2
   133    99    98    1
   134   157   160   ar
   135    76    73    1
   136   153   152    2
   137    73    74    1
   138    73    72    1
   139   152   164   am
   140   133   131    1
   141   131   128    1
   142    98    97    1
   143   129   130    2
   144   129   128    1
   145    95    93   ar
   146   163   162   ar
   147    74    75    2
   148    92    91   ar
   149    92    90   ar
   150   164   165    1
   151   160   162   ar
   152   128   127    1
   153    91    89   ar
   154    93    90   ar
   155   165   166    1
   156    90    88   ar
   157    89    88   ar
   158    88    87    1
   159   166   167    2
   160    87    84    1
   161    86    85    2
   162    85    84    1
   163    84    83    1
