@<TRIPOS>MOLECULE
tmp/5fa1A00.pdb
 179 173 0 0 0
SMALL
GASTEIGER

@<TRIPOS>ATOM
      1  N         20.3350   23.4620   18.6350 N.3   161  PRO161     -0.2116
      2  CA        19.1350   22.7720   18.1570 C.3   161  PRO161      0.1372
      3  C         19.4430   21.3890   17.5810 C.2   161  PRO161      0.2244
      4  O         18.5330   20.5660   17.4800 O.2   161  PRO161     -0.2868
      5  CB        18.6020   23.7170   17.0760 C.3   161  PRO161      0.0268
      6  CG        19.8300   24.3840   16.5390 C.3   161  PRO161      0.0207
      7  CD        20.7940   24.4990   17.6950 C.3   161  PRO161      0.0892
      8  N         21.7070   17.9870   18.1470 N.3   163  ARG163     -0.1245
      9  CA        22.3980   17.3190   19.2490 C.3   163  ARG163      0.1563
     10  C         22.6480   15.8360   18.9890 C.2   163  ARG163      0.2260
     11  O         21.8650   15.1800   18.3010 O.2   163  ARG163     -0.2867
     12  CB        21.5850   17.4620   20.5430 C.3   163  ARG163      0.0307
     13  CG        21.0330   18.8650   20.7860 C.3   163  ARG163      0.0489
     14  CD        20.0260   18.8930   21.9220 C.3   163  ARG163      0.2205
     15  NE        19.3600   20.1900   22.0060 N.pl3 163  ARG163     -0.0865
     16  CZ        18.4870   20.5180   22.9500 C.cat 163  ARG163      0.5346
     17  NH1       18.1810   19.6380   23.8930 N.pl3 163  ARG163      0.1354
     18  NH2       17.9290   21.7230   22.9570 N.pl3 163  ARG163      0.1354
     19  N         21.7110   11.9280   17.1470 N.3   166  MET166     -0.1230
     20  CA        21.1850   12.0870   15.7900 C.3   166  MET166      0.1702
     21  C         22.1020   12.9750   14.9530 C.2   166  MET166      0.2592
     22  O         22.2950   12.7350   13.7590 O.2   166  MET166     -0.2718
     23  CB        19.7670   12.6750   15.8190 C.3   166  MET166      0.0401
     24  CG        18.7200   11.7790   16.4780 C.3   166  MET166      0.0596
     25  SD        18.2890   10.3150   15.5130 S.3   166  MET166     -0.1393
     26  CE        17.4360   11.0260   14.1140 C.3   166  MET166      0.0692
     27  N         22.6780   13.9900   15.5910 N.am  167  TYR167     -0.1976
     28  CA        23.4530   15.0010   14.8740 C.3   167  TYR167      0.1639
     29  C         24.8060   15.2540   15.5200 C.2   167  TYR167      0.2290
     30  O         25.0410   14.8380   16.6530 O.2   167  TYR167     -0.2864
     31  CB        22.6750   16.3260   14.8060 C.3   167  TYR167      0.0560
     32  CG        21.3470   16.2050   14.1000 C.ar  167  TYR167     -0.0198
     33  CD1       21.2780   16.2010   12.7120 C.ar  167  TYR167     -0.0009
     34  CD2       20.1630   16.0970   14.8160 C.ar  167  TYR167     -0.0009
     35  CE1       20.0710   16.0810   12.0580 C.ar  167  TYR167      0.0417
     36  CE2       18.9430   15.9790   14.1670 C.ar  167  TYR167      0.0417
     37  CZ        18.9100   15.9690   12.7870 C.ar  167  TYR167      0.1957
     38  OH        17.7140   15.8490   12.1240 O.3   167  TYR167     -0.2866
     39  N          4.4020   19.6860   17.0710 N.3   222  VAL222     -0.1231
     40  CA         5.5210   19.5510   17.9950 C.3   222  VAL222      0.1692
     41  C          5.2210   20.2140   19.3410 C.2   222  VAL222      0.2592
     42  O          5.0370   21.4300   19.4100 O.2   222  VAL222     -0.2718
     43  CB         6.8060   20.1750   17.4060 C.3   222  VAL222      0.0266
     44  CG1        7.9610   20.0500   18.3900 C.3   222  VAL222      0.0020
     45  CG2        7.1500   19.5260   16.0750 C.3   222  VAL222      0.0020
     46  N          5.1660   19.4240   20.4110 N.am  223  LEU223     -0.1966
     47  CA         4.9490   19.9920   21.7410 C.3   223  LEU223      0.1728
     48  C          6.2800   20.1520   22.4720 C.2   223  LEU223      0.2616
     49  O          7.2390   19.4380   22.1820 O.2   223  LEU223     -0.2715
     50  CB         3.9980   19.1230   22.5620 C.3   223  LEU223      0.0311
     51  CG         2.6230   18.8270   21.9630 C.3   223  LEU223      0.0022
     52  CD1        1.7780   18.0600   22.9660 C.3   223  LEU223      0.0001
     53  CD2        1.9210   20.1150   21.5300 C.3   223  LEU223      0.0001
     54  N          6.3360   21.0810   23.4230 N.am  224  GLN224     -0.1963
     55  CA         7.5780   21.3530   24.1330 C.3   224  GLN224      0.1733
     56  C          7.4360   21.1680   25.6360 C.2   224  GLN224      0.2616
     57  O          6.3450   20.8950   26.1390 O.2   224  GLN224     -0.2715
     58  CB         8.0700   22.7680   23.8120 C.3   224  GLN224      0.0408
     59  CG         8.4970   22.9400   22.3510 C.3   224  GLN224      0.0908
     60  CD         8.6780   24.4010   21.9360 C.2   224  GLN224      0.2608
     61  OE1        7.9040   24.9230   21.1390 O.2   224  GLN224     -0.2717
     62  NE2        9.7090   25.0550   22.4620 N.am  224  GLN224     -0.0878
     63  N          8.5520   21.2990   26.3440 N.am  225  VAL225     -0.1977
     64  CA         8.5430   21.2660   27.7990 C.3   225  VAL225      0.1596
     65  C          7.8340   22.5230   28.2820 C.2   225  VAL225      0.2287
     66  O          8.1530   23.6290   27.8390 O.2   225  VAL225     -0.2864
     67  CB         9.9660   21.1830   28.3850 C.3   225  VAL225      0.0276
     68  CG1        9.9300   21.2870   29.9120 C.3   225  VAL225      0.0022
     69  CG2       10.6400   19.8850   27.9480 C.3   225  VAL225      0.0022
     70  N          9.8810   25.3800   29.9800 N.3   228  ASP228     -0.1239
     71  CA        11.1150   25.7690   29.2940 C.3   228  ASP228      0.1674
     72  C         11.1260   27.2880   29.1250 C.2   228  ASP228      0.2266
     73  O         10.0650   27.8900   28.9890 O.2   228  ASP228     -0.2867
     74  CB        11.2060   25.0650   27.9360 C.3   228  ASP228      0.1410
     75  CG        12.5840   25.1660   27.3020 C.2   228  ASP228      0.3668
     76  OD1       12.9250   26.2420   26.7650 O.co2 228  ASP228     -0.2456
     77  OD2       13.3230   24.1560   27.3280 O.co2 228  ASP228     -0.2456
     78  N         11.8750   28.9370   26.6470 N.3   230  ASN230     -0.1240
     79  CA        11.2580   29.1830   25.3470 C.3   230  ASN230      0.1653
     80  C          9.7440   29.3300   25.3980 C.2   230  ASN230      0.2266
     81  O          9.1700   30.1080   24.6400 O.2   230  ASN230     -0.2867
     82  CB        11.6200   28.0660   24.3650 C.3   230  ASN230      0.1155
     83  CG        12.9680   28.2800   23.7230 C.2   230  ASN230      0.2627
     84  OD1       13.3820   29.4170   23.5070 O.2   230  ASN230     -0.2716
     85  ND2       13.6620   27.1900   23.4080 N.am  230  ASN230     -0.0877
     86  N          3.2990   14.9320   18.7870 N.3   259  ARG259     -0.1231
     87  CA         4.4100   14.3440   19.5170 C.3   259  ARG259      0.1694
     88  C          4.7370   15.1760   20.7510 C.2   259  ARG259      0.2592
     89  O          5.1410   16.3350   20.6460 O.2   259  ARG259     -0.2718
     90  CB         5.6410   14.2130   18.6240 C.3   259  ARG259      0.0321
     91  CG         6.8760   13.6930   19.3480 C.3   259  ARG259      0.0489
     92  CD         8.0480   13.5580   18.4000 C.3   259  ARG259      0.2205
     93  NE         9.2810   13.2150   19.1000 N.pl3 259  ARG259     -0.0865
     94  CZ         9.6660   11.9730   19.3740 C.cat 259  ARG259      0.5346
     95  NH1        8.9080   10.9420   19.0160 N.pl3 259  ARG259      0.1354
     96  NH2       10.8090   11.7620   20.0130 N.pl3 259  ARG259      0.1354
     97  N          4.5480   14.5830   21.9240 N.am  260  ALA260     -0.1966
     98  CA         4.9260   15.2440   23.1620 C.3   260  ALA260      0.1728
     99  C          6.4450   15.2810   23.2800 C.2   260  ALA260      0.2616
    100  O          7.1460   14.4340   22.7150 O.2   260  ALA260     -0.2715
    101  CB         4.3100   14.5380   24.3580 C.3   260  ALA260      0.0334
    102  N          6.9530   16.2820   23.9900 N.am  261  HIS261     -0.1960
    103  CA         8.3720   16.3440   24.3010 C.3   261  HIS261      0.1772
    104  C          8.6960   15.2340   25.3040 C.2   261  HIS261      0.2462
    105  O          8.0240   15.1030   26.3270 O.2   261  HIS261     -0.2730
    106  CB         8.7300   17.7270   24.8550 C.3   261  HIS261      0.0785
    107  CG        10.1950   18.0430   24.8400 C.ar  261  HIS261      0.0821
    108  ND1       11.1340   17.2740   25.4940 N.ar  261  HIS261     -0.2267
    109  CD2       10.8780   19.0660   24.2750 C.ar  261  HIS261      0.1154
    110  CE1       12.3330   17.8030   25.3220 C.ar  261  HIS261      0.1986
    111  NE2       12.2050   18.8920   24.5840 N.ar  261  HIS261     -0.2212
    112  N          9.7100   14.4100   25.0040 N.am  262  PRO262     -0.2727
    113  CA        10.1170   13.3490   25.9330 C.3   262  PRO262      0.1402
    114  C         10.4800   13.8770   27.3230 C.2   262  PRO262      0.2269
    115  O         10.2500   13.1850   28.3100 O.2   262  PRO262     -0.2865
    116  CB        11.3370   12.7330   25.2430 C.3   262  PRO262      0.0296
    117  CG        11.1010   12.9870   23.7850 C.3   262  PRO262      0.0237
    118  CD        10.4430   14.3390   23.7280 C.3   262  PRO262      0.0939
    119  N         12.5480    8.8570   17.6430 N.3   280  ASN280     -0.1225
    120  CA        13.1860   10.1720   17.5640 C.3   280  ASN280      0.1785
    121  C         12.2880   11.1530   16.8140 C.2   280  ASN280      0.2597
    122  O         11.3530   10.7340   16.1290 O.2   280  ASN280     -0.2718
    123  CB        14.5500   10.0760   16.8780 C.3   280  ASN280      0.1169
    124  CG        14.4640    9.4410   15.5050 C.2   280  ASN280      0.2627
    125  OD1       14.2200   10.1220   14.5110 O.2   280  ASN280     -0.2716
    126  ND2       14.6670    8.1280   15.4420 N.am  280  ASN280     -0.0877
    127  N         12.5710   12.4490   16.9350 N.am  281  SER281     -0.1952
    128  CA        11.7240   13.4700   16.3180 C.3   281  SER281      0.1924
    129  C         11.8140   13.4920   14.7910 C.2   281  SER281      0.2314
    130  O         10.8940   13.9560   14.1230 O.2   281  SER281     -0.2863
    131  CB        12.0740   14.8550   16.8680 C.3   281  SER281      0.2116
    132  OG        13.4380   15.1680   16.6510 O.3   281  SER281     -0.2180
    133  N          9.3820   11.1700   13.3570 N.3   284  PHE284     -0.1241
    134  CA         8.0640   11.7610   13.5430 C.3   284  PHE284      0.1605
    135  C          7.7310   12.7790   12.4480 C.2   284  PHE284      0.2264
    136  O          6.6640   12.7100   11.8410 O.2   284  PHE284     -0.2867
    137  CB         7.9590   12.4150   14.9240 C.3   284  PHE284      0.0534
    138  CG         6.9280   13.5140   15.0020 C.ar  284  PHE284     -0.0203
    139  CD1        5.5730   13.2220   14.9470 C.ar  284  PHE284     -0.0042
    140  CD2        7.3180   14.8420   15.1400 C.ar  284  PHE284     -0.0042
    141  CE1        4.6200   14.2350   15.0180 C.ar  284  PHE284     -0.0003
    142  CE2        6.3730   15.8560   15.2120 C.ar  284  PHE284     -0.0003
    143  CZ         5.0190   15.5490   15.1470 C.ar  284  PHE284     -0.0000
    144  N          8.5250   27.1830   19.1900 N.3   295  ASN295     -0.1225
    145  CA         9.9270   27.4730   18.8920 C.3   295  ASN295      0.1785
    146  C         10.8680   26.3130   19.2440 C.2   295  ASN295      0.2598
    147  O         11.9970   26.5130   19.6920 O.2   295  ASN295     -0.2718
    148  CB        10.3690   28.7630   19.6000 C.3   295  ASN295      0.1169
    149  CG         9.9480   28.8180   21.0640 C.2   295  ASN295      0.2627
    150  OD1        9.7320   27.7900   21.7080 O.2   295  ASN295     -0.2716
    151  ND2        9.8290   30.0330   21.5940 N.am  295  ASN295     -0.0877
    152  N         10.4000   25.0930   19.0080 N.am  296  SER296     -0.1938
    153  CA        11.1940   23.9020   19.2900 C.3   296  SER296      0.2055
    154  C         12.3740   23.7530   18.3350 C.2   296  SER296      0.2644
    155  O         12.3240   24.2170   17.1920 O.2   296  SER296     -0.2714
    156  CB        10.3170   22.6470   19.2140 C.3   296  SER296      0.2130
    157  OG        11.1020   21.4650   19.3580 O.3   296  SER296     -0.2179
    158  N         13.4250   23.0880   18.8100 N.am  297  SER297     -0.1935
    159  CA        14.5390   22.6870   17.9600 C.3   297  SER297      0.2055
    160  C         14.0510   21.8730   16.7660 C.2   297  SER297      0.2642
    161  O         14.6210   21.9560   15.6640 O.2   297  SER297     -0.2714
    162  CB        15.5560   21.8730   18.7580 C.3   297  SER297      0.2130
    163  OG        16.0660   22.6190   19.8460 O.3   297  SER297     -0.2179
    164  N         12.9910   21.0960   16.9850 N.am  298  VAL298     -0.1977
    165  CA        12.4280   20.2380   15.9370 C.3   298  VAL298      0.1596
    166  C         11.9000   21.0740   14.7640 C.2   298  VAL298      0.2287
    167  O         11.8290   20.5960   13.6300 O.2   298  VAL298     -0.2864
    168  CB        11.3060   19.3320   16.5050 C.3   298  VAL298      0.0276
    169  CG1       10.8050   18.3520   15.4530 C.3   298  VAL298      0.0022
    170  CG2       11.8230   18.5580   17.7150 C.3   298  VAL298      0.0022
    171  N         14.6510   21.1630   12.3490 N.3   301  GLU301     -0.1245
    172  CA        14.6760   19.8400   11.7350 C.3   301  GLU301      0.1567
    173  C         13.6780   19.7230   10.5920 C.2   301  GLU301      0.2260
    174  O         13.9910   19.2090    9.5150 O.2   301  GLU301     -0.2867
    175  CB        14.3690   18.7730   12.7890 C.3   301  GLU301      0.0388
    176  CG        15.4560   17.7540   12.9740 C.3   301  GLU301      0.1160
    177  CD        15.0810   16.6680   13.9610 C.2   301  GLU301      0.3649
    178  OE1       14.2710   16.9340   14.8790 O.co2 301  GLU301     -0.2457
    179  OE2       15.6070   15.5480   13.8220 O.co2 301  GLU301     -0.2457
@<TRIPOS>BOND
     1   174   173    2
     2   173   172    1
     3   172   171    1
     4   172   175    1
     5   136   135    2
     6    35    33   ar
     7    35    37   ar
     8    38    37    1
     9   135   134    1
    10    33    32   ar
    11    37    36   ar
    12   175   176    1
    13   176   177    1
    14   133   134    1
    15   134   137    1
    16   167   166    2
    17    22    21    2
    18   179   177   ar
    19   177   178   ar
    20    32    31    1
    21    32    34   ar
    22    26    25    1
    23   130   129    2
    24    36    34   ar
    25   125   124    2
    26   166   165    1
    27   129   128    1
    28    31    28    1
    29    28    29    1
    30    28    27    1
    31   137   138    1
    32   139   138   ar
    33   139   141   ar
    34    21    27   am
    35    21    20    1
    36   138   140   ar
    37   141   143   ar
    38   140   142   ar
    39   143   142   ar
    40   126   124   am
    41   169   168    1
    42   124   123    1
    43    25    24    1
    44    29    30    2
    45   161   160    2
    46    20    23    1
    47    20    19    1
    48    23    24    1
    49   165   168    1
    50   165   164    1
    51    45    43    1
    52   122   121    2
    53   128   131    1
    54   128   127    1
    55   168   170    1
    56     6     5    1
    57     6     7    1
    58   132   131    1
    59   160   164   am
    60   160   159    1
    61   121   127   am
    62   121   120    1
    63   123   120    1
    64    39    40    1
    65     5     2    1
    66   155   154    2
    67    43    40    1
    68    43    44    1
    69     4     3    2
    70   120   119    1
    71     3     2    1
    72     7     1    1
    73   159   162    1
    74   159   158    1
    75    40    41    1
    76     8     9    1
    77     2     1    1
    78    11    10    2
    79   154   158   am
    80   154   153    1
    81    92    93    1
    82    92    91    1
    83    90    91    1
    84    90    87    1
    85   162   163    1
    86    86    87    1
    87   145   144    1
    88   145   146    1
    89   145   148    1
    90    10     9    1
    91   152   146   am
    92   152   153    1
    93    95    94    1
    94    93    94    2
    95   156   153    1
    96   156   157    1
    97   146   147    2
    98     9    12    1
    99    41    42    2
   100    41    46   am
   101    94    96    1
   102    87    88    1
   103   148   149    1
   104    46    47    1
   105    12    13    1
   106    89    88    2
   107    88    97   am
   108    13    14    1
   109   149   151   am
   110   149   150    2
   111    61    60    2
   112    53    51    1
   113    47    48    1
   114    47    50    1
   115    14    15    1
   116    97    98    1
   117    60    59    1
   118    60    62   am
   119    51    50    1
   120    51    52    1
   121    15    16    2
   122    49    48    2
   123    59    58    1
   124    48    54   am
   125   100    99    2
   126    16    18    1
   127    16    17    1
   128    98    99    1
   129    98   101    1
   130    99   102   am
   131    85    83   am
   132    54    55    1
   133    84    83    2
   134    83    82    1
   135   118   117    1
   136   118   112    1
   137   117   116    1
   138    58    55    1
   139   102   103    1
   140    55    56    1
   141   109   111   ar
   142   109   107   ar
   143   103   106    1
   144   103   104    1
   145    82    79    1
   146   111   110   ar
   147    81    80    2
   148   107   106    1
   149   107   108   ar
   150   112   104   am
   151   112   113    1
   152   116   113    1
   153   104   105    2
   154   110   108   ar
   155    79    80    1
   156    79    78    1
   157    56    57    2
   158    56    63   am
   159   113   114    1
   160    63    64    1
   161    76    75   ar
   162    75    77   ar
   163    75    74    1
   164   114   115    2
   165    64    65    1
   166    64    67    1
   167    66    65    2
   168    74    71    1
   169    69    67    1
   170    67    68    1
   171    73    72    2
   172    72    71    1
   173    71    70    1
