@<TRIPOS>MOLECULE
tmp/5fa5A00.pdb
 142 140 0 0 0
SMALL
GASTEIGER

@<TRIPOS>ATOM
      1  N        -17.4880  -80.7510  -10.1620 N.3   297  GLN297     -0.1231
      2  CA       -17.4480  -81.6270   -8.9710 C.3   297  GLN297      0.1698
      3  C        -16.1810  -82.4890   -8.9760 C.2   297  GLN297      0.2593
      4  O        -15.5840  -82.7510  -10.0240 O.2   297  GLN297     -0.2718
      5  CB       -18.6670  -82.5590   -8.9400 C.3   297  GLN297      0.0381
      6  CG       -20.0090  -81.8420   -8.9810 C.3   297  GLN297      0.0905
      7  CD       -21.1330  -82.7730   -9.3470 C.2   297  GLN297      0.2608
      8  OE1      -21.4690  -82.9470  -10.5320 O.2   297  GLN297     -0.2717
      9  NE2      -21.7600  -83.3600   -8.3340 N.am  297  GLN297     -0.0878
     10  N        -15.7950  -82.9520   -7.7950 N.am  298  SER298     -0.1939
     11  CA       -14.6860  -83.8700   -7.6350 C.3   298  SER298      0.2040
     12  C        -15.1770  -85.2750   -8.0510 C.2   298  SER298      0.2485
     13  O        -16.2570  -85.7250   -7.6090 O.2   298  SER298     -0.2729
     14  CB       -14.2520  -83.9010   -6.1810 C.3   298  SER298      0.2129
     15  OG       -13.5100  -82.7350   -5.8890 O.3   298  SER298     -0.2179
     16  N        -14.4270  -86.0010   -8.8990 N.am  299  PRO299     -0.2715
     17  CA       -14.8570  -87.3790   -9.2100 C.3   299  PRO299      0.1536
     18  C        -14.8610  -88.2050   -7.9180 C.2   299  PRO299      0.2598
     19  O        -13.9780  -88.0190   -7.0490 O.2   299  PRO299     -0.2715
     20  CB       -13.7940  -87.8690  -10.2080 C.3   299  PRO299      0.0310
     21  CG       -13.1440  -86.5730  -10.7570 C.3   299  PRO299      0.0237
     22  CD       -13.1390  -85.6740   -9.5530 C.3   299  PRO299      0.0939
     23  N        -15.9260  -89.0210   -7.7390 N.am  300  LEU300     -0.1978
     24  CA       -16.0690  -89.9030   -6.5910 C.3   300  LEU300      0.1596
     25  C        -14.9190  -90.8960   -6.5800 C.2   300  LEU300      0.2287
     26  O        -14.4020  -91.2500   -7.6400 O.2   300  LEU300     -0.2864
     27  CB       -17.4090  -90.6770   -6.6130 C.3   300  LEU300      0.0297
     28  CG       -18.6990  -89.8820   -6.4200 C.3   300  LEU300      0.0022
     29  CD1      -19.8940  -90.7980   -6.6110 C.3   300  LEU300      0.0001
     30  CD2      -18.7410  -89.1960   -5.0520 C.3   300  LEU300      0.0001
     31  N        -14.8450  -94.3310   -4.7530 N.3   302  PRO302     -0.2116
     32  CA       -15.4740  -95.3150   -3.8390 C.3   302  PRO302      0.1372
     33  C        -14.5410  -96.3320   -3.2290 C.2   302  PRO302      0.2244
     34  O        -14.9300  -96.9700   -2.2660 O.2   302  PRO302     -0.2868
     35  CB       -16.5420  -96.0050   -4.7090 C.3   302  PRO302      0.0268
     36  CG       -16.6860  -95.1580   -5.9100 C.3   302  PRO302      0.0207
     37  CD       -15.3340  -94.5300   -6.1280 C.3   302  PRO302      0.0892
     38  N        -27.2530  -93.4380   -7.2030 N.3   315  PHE315     -0.1241
     39  CA       -26.9130  -94.5440   -8.1160 C.3   315  PHE315      0.1605
     40  C        -28.1080  -95.4200   -8.4220 C.2   315  PHE315      0.2264
     41  O        -28.3450  -95.7450   -9.5820 O.2   315  PHE315     -0.2867
     42  CB       -25.8550  -95.4690   -7.5050 C.3   315  PHE315      0.0534
     43  CG       -24.4880  -94.9210   -7.1930 C.ar  315  PHE315     -0.0203
     44  CD1      -24.0670  -93.7020   -7.7200 C.ar  315  PHE315     -0.0042
     45  CD2      -23.6010  -95.6440   -6.4010 C.ar  315  PHE315     -0.0042
     46  CE1      -22.7900  -93.2100   -7.4470 C.ar  315  PHE315     -0.0003
     47  CE2      -22.3290  -95.1580   -6.1350 C.ar  315  PHE315     -0.0003
     48  CZ       -21.9240  -93.9490   -6.6730 C.ar  315  PHE315     -0.0000
     49  N        -29.8460  -98.5950  -16.2180 N.3   321  LYS321     -0.1245
     50  CA       -28.5630  -99.1970  -15.8460 C.3   321  LYS321      0.1561
     51  C        -28.7500 -100.5910  -15.2560 C.2   321  LYS321      0.2260
     52  O        -28.0840 -101.5360  -15.6880 O.2   321  LYS321     -0.2867
     53  CB       -27.8300  -98.2750  -14.8480 C.3   321  LYS321      0.0271
     54  CG       -26.4150  -98.7170  -14.4810 C.3   321  LYS321      0.0035
     55  CD       -25.7120  -97.7620  -13.5190 C.3   321  LYS321      0.0206
     56  CE       -26.3710  -97.6330  -12.1610 C.3   321  LYS321      0.1093
     57  NZ       -25.6230  -96.7470  -11.2340 N.3   321  LYS321     -0.1314
     58  N        -19.7980 -102.8800  -10.6920 N.3   423  GLU423     -0.1245
     59  CA       -20.0570 -101.5340  -11.2060 C.3   423  GLU423      0.1567
     60  C        -19.0200 -100.6010  -10.5470 C.2   423  GLU423      0.2260
     61  O        -19.3230  -99.7800   -9.6710 O.2   423  GLU423     -0.2867
     62  CB       -21.5310 -101.0770  -11.0760 C.3   423  GLU423      0.0388
     63  CG       -22.0230 -100.9090   -9.6450 C.3   423  GLU423      0.1160
     64  CD       -23.4140 -100.3520   -9.3920 C.2   423  GLU423      0.3649
     65  OE1      -24.0650 -100.8350   -8.4320 O.co2 423  GLU423     -0.2457
     66  OE2      -23.8100  -99.3820  -10.0830 O.co2 423  GLU423     -0.2457
     67  N        -17.0270  -98.6360  -12.3400 N.3   425  LEU425     -0.1231
     68  CA       -16.6880  -97.6760  -13.3940 C.3   425  LEU425      0.1693
     69  C        -16.9850  -96.2240  -13.0670 C.2   425  LEU425      0.2593
     70  O        -18.0380  -95.9030  -12.5260 O.2   425  LEU425     -0.2718
     71  CB       -17.3660  -98.0820  -14.7150 C.3   425  LEU425      0.0284
     72  CG       -17.0260  -99.4830  -15.2640 C.3   425  LEU425      0.0019
     73  CD1      -17.6300  -99.6760  -16.6120 C.3   425  LEU425      0.0001
     74  CD2      -15.5220  -99.6790  -15.4060 C.3   425  LEU425      0.0001
     75  N        -16.0430  -95.3590  -13.4070 N.am  426  GLY426     -0.1942
     76  CA       -16.2080  -93.9160  -13.2790 C.3   426  GLY426      0.2014
     77  C        -16.5860  -93.2980  -14.6190 C.2   426  GLY426      0.2639
     78  O        -16.7960  -94.0080  -15.6110 O.2   426  GLY426     -0.2714
     79  N        -16.6550  -91.9640  -14.6650 N.am  427  SER427     -0.1949
     80  CA       -16.9790  -91.2230  -15.8680 C.3   427  SER427      0.1924
     81  C        -15.9140  -91.3720  -16.9550 C.2   427  SER427      0.2314
     82  O        -16.2420  -91.1790  -18.1170 O.2   427  SER427     -0.2863
     83  CB       -17.2400  -89.7600  -15.5440 C.3   427  SER427      0.2116
     84  OG       -18.5470  -89.6440  -15.0030 O.3   427  SER427     -0.2180
     85  N        -12.0790  -95.0240  -11.3610 N.3   432  GLU432     -0.1245
     86  CA       -12.4360  -95.4510  -10.0070 C.3   432  GLU432      0.1567
     87  C        -11.6010  -96.6750   -9.6000 C.2   432  GLU432      0.2260
     88  O        -11.7730  -97.1930   -8.5000 O.2   432  GLU432     -0.2867
     89  CB       -13.9380  -95.7250   -9.8530 C.3   432  GLU432      0.0388
     90  CG       -14.8200  -94.4800   -9.7520 C.3   432  GLU432      0.1160
     91  CD       -16.2740  -94.7790   -9.4170 C.2   432  GLU432      0.3649
     92  OE1      -16.5760  -95.9370   -9.0440 O.co2 432  GLU432     -0.2457
     93  OE2      -17.1230  -93.8690   -9.5600 O.co2 432  GLU432     -0.2457
     94  N        -15.8340  -83.9060  -12.5910 N.3   491  VAL491     -0.1245
     95  CA       -17.0350  -84.5000  -13.1790 C.3   491  VAL491      0.1561
     96  C        -17.9430  -83.2930  -13.4080 C.2   491  VAL491      0.2260
     97  O        -18.1460  -82.4920  -12.4970 O.2   491  VAL491     -0.2867
     98  CB       -17.7090  -85.5900  -12.3120 C.3   491  VAL491      0.0252
     99  CG1      -19.0750  -85.9490  -12.8740 C.3   491  VAL491      0.0019
    100  CG2      -16.8370  -86.8320  -12.2470 C.3   491  VAL491      0.0019
    101  N        -28.5590  -91.5200  -16.3340 N.3   565  PHE565     -0.1227
    102  CA       -27.9070  -90.3330  -15.7580 C.3   565  PHE565      0.1736
    103  C        -26.8670  -90.5970  -14.6440 C.2   565  PHE565      0.2596
    104  O        -26.3970  -89.6420  -14.0200 O.2   565  PHE565     -0.2718
    105  CB       -28.9790  -89.3340  -15.2790 C.3   565  PHE565      0.0547
    106  CG       -30.2820  -89.9800  -14.8640 C.ar  565  PHE565     -0.0202
    107  CD1      -30.3680  -90.7160  -13.6880 C.ar  565  PHE565     -0.0042
    108  CD2      -31.4100  -89.8860  -15.6700 C.ar  565  PHE565     -0.0042
    109  CE1      -31.5660  -91.3360  -13.3200 C.ar  565  PHE565     -0.0003
    110  CE2      -32.6140  -90.5020  -15.2980 C.ar  565  PHE565     -0.0003
    111  CZ       -32.6800  -91.2340  -14.1330 C.ar  565  PHE565     -0.0000
    112  N        -26.4620  -91.8750  -14.4430 N.am  566  SER566     -0.1938
    113  CA       -25.4800  -92.2630  -13.4220 C.3   566  SER566      0.2055
    114  C        -24.1250  -91.6230  -13.5900 C.2   566  SER566      0.2643
    115  O        -23.4190  -91.4420  -12.5850 O.2   566  SER566     -0.2714
    116  CB       -25.3460  -93.7740  -13.3310 C.3   566  SER566      0.2130
    117  OG       -26.4930  -94.3080  -12.6960 O.3   566  SER566     -0.2179
    118  N        -23.7630  -91.2380  -14.8350 N.am  567  TRP567     -0.1959
    119  CA       -22.4700  -90.6070  -15.0780 C.3   567  TRP567      0.1771
    120  C        -22.5650  -89.3570  -15.9610 C.2   567  TRP567      0.2619
    121  O        -23.1390  -89.4030  -17.0410 O.2   567  TRP567     -0.2715
    122  CB       -21.4930  -91.6110  -15.7360 C.3   567  TRP567      0.0590
    123  CG       -21.2180  -92.8690  -14.9720 C.ar  567  TRP567      0.0006
    124  CD1      -20.2060  -93.0750  -14.0860 C.ar  567  TRP567      0.0946
    125  CD2      -21.8630  -94.1470  -15.1490 C.ar  567  TRP567      0.0152
    126  NE1      -20.2020  -94.3850  -13.6650 N.ar  567  TRP567     -0.2442
    127  CE2      -21.1890  -95.0720  -14.3260 C.ar  567  TRP567      0.0810
    128  CE3      -22.9500  -94.5990  -15.9180 C.ar  567  TRP567      0.0012
    129  CZ2      -21.5800  -96.4190  -14.2310 C.ar  567  TRP567      0.0191
    130  CZ3      -23.3060  -95.9400  -15.8600 C.ar  567  TRP567      0.0001
    131  CH2      -22.6210  -96.8330  -15.0260 C.ar  567  TRP567      0.0015
    132  N        -21.9460  -88.2630  -15.5160 N.am  568  PHE568     -0.1974
    133  CA       -21.8060  -87.0180  -16.2600 C.3   568  PHE568      0.1639
    134  C        -20.4090  -87.0790  -16.9220 C.2   568  PHE568      0.2290
    135  O        -19.5380  -87.7850  -16.4100 O.2   568  PHE568     -0.2864
    136  CB       -21.8610  -85.8050  -15.3050 C.3   568  PHE568      0.0560
    137  CG       -23.2310  -85.4010  -14.8110 C.ar  568  PHE568     -0.0200
    138  CD1      -24.3730  -85.6680  -15.5690 C.ar  568  PHE568     -0.0042
    139  CD2      -23.3760  -84.6830  -13.6260 C.ar  568  PHE568     -0.0042
    140  CE1      -25.6440  -85.2940  -15.1100 C.ar  568  PHE568     -0.0003
    141  CE2      -24.6490  -84.3130  -13.1620 C.ar  568  PHE568     -0.0003
    142  CZ       -25.7740  -84.6160  -13.9080 C.ar  568  PHE568     -0.0000
@<TRIPOS>BOND
     1    82    81    2
     2   121   120    2
     3    81    80    1
     4   134   135    2
     5   134   133    1
     6    73    72    1
     7   101   102    1
     8   133   132    1
     9   133   136    1
    10    49    50    1
    11   120   132   am
    12   120   119    1
    13   128   130   ar
    14   128   125   ar
    15    80    83    1
    16    80    79    1
    17   130   131   ar
    18    50    51    1
    19    50    53    1
    20   102   105    1
    21   102   103    1
    22   122   119    1
    23   122   123    1
    24    52    51    2
    25   108   110   ar
    26   108   106   ar
    27    78    77    2
    28   138   140   ar
    29   138   137   ar
    30    83    84    1
    31    74    72    1
    32   136   137    1
    33   110   111   ar
    34   105   106    1
    35    72    71    1
    36   125   123   ar
    37   125   127   ar
    38   140   142   ar
    39   119   118    1
    40   131   129   ar
    41   123   124   ar
    42   106   107   ar
    43    53    54    1
    44   118   114   am
    45   137   139   ar
    46    71    68    1
    47    79    77   am
    48   103   112   am
    49   103   104    2
    50    77    76    1
    51    54    55    1
    52   112   113    1
    53   127   129   ar
    54   127   126   ar
    55   111   109   ar
    56   124   126   ar
    57   142   141   ar
    58   107   109   ar
    59   139   141   ar
    60   114   113    1
    61   114   115    2
    62    55    56    1
    63   113   116    1
    64    96    95    1
    65    96    97    2
    66    75    76    1
    67    75    69   am
    68    68    69    1
    69    68    67    1
    70   116   117    1
    71    95    94    1
    72    95    98    1
    73    69    70    2
    74    99    98    1
    75    98   100    1
    76    56    57    1
    77    85    86    1
    78    59    62    1
    79    59    58    1
    80    59    60    1
    81    62    63    1
    82    21    20    1
    83    21    22    1
    84    60    61    2
    85     8     7    2
    86    20    17    1
    87     1     2    1
    88    66    64   ar
    89     4     3    2
    90    86    89    1
    91    86    87    1
    92    89    90    1
    93    90    91    1
    94    63    64    1
    95    87    88    2
    96    41    40    2
    97    93    91   ar
    98    22    16    1
    99    91    92   ar
   100    64    65   ar
   101     7     6    1
   102     7     9   am
   103    17    16    1
   104    17    18    1
   105     6     5    1
   106     3     2    1
   107     3    10   am
   108     2     5    1
   109    16    12   am
   110    40    39    1
   111    39    42    1
   112    39    38    1
   113    12    11    1
   114    12    13    2
   115    18    23   am
   116    18    19    2
   117    10    11    1
   118    23    24    1
   119    44    46   ar
   120    44    43   ar
   121    26    25    2
   122    11    14    1
   123    42    43    1
   124    46    48   ar
   125    43    45   ar
   126    48    47   ar
   127    27    24    1
   128    27    28    1
   129    29    28    1
   130    24    25    1
   131    28    30    1
   132    45    47   ar
   133    14    15    1
   134    37    36    1
   135    37    31    1
   136    36    35    1
   137    31    32    1
   138    35    32    1
   139    32    33    1
   140    33    34    2
