@<TRIPOS>MOLECULE
tmp/5fa5A01.pdb
 160 151 0 0 0
SMALL
GASTEIGER

@<TRIPOS>ATOM
      1  N        -14.8450  -94.3310   -4.7530 N.3   302  PRO302     -0.2102
      2  CA       -15.4740  -95.3150   -3.8390 C.3   302  PRO302      0.1504
      3  C        -14.5410  -96.3320   -3.2290 C.2   302  PRO302      0.2575
      4  O        -14.9300  -96.9700   -2.2660 O.2   302  PRO302     -0.2718
      5  CB       -16.5420  -96.0050   -4.7090 C.3   302  PRO302      0.0282
      6  CG       -16.6860  -95.1580   -5.9100 C.3   302  PRO302      0.0208
      7  CD       -15.3340  -94.5300   -6.1280 C.3   302  PRO302      0.0893
      8  N        -13.3300  -96.4760   -3.7640 N.am  303  LEU303     -0.1980
      9  CA       -12.3380  -97.3810   -3.2260 C.3   303  LEU303      0.1596
     10  C        -11.7020  -96.6980   -2.0090 C.2   303  LEU303      0.2287
     11  O        -11.7940  -97.2260   -0.9000 O.2   303  LEU303     -0.2864
     12  CB       -11.2890  -97.7450   -4.3030 C.3   303  LEU303      0.0297
     13  CG       -10.1010  -98.6220   -3.8960 C.3   303  LEU303      0.0022
     14  CD1      -10.5530 -100.0160   -3.4290 C.3   303  LEU303      0.0001
     15  CD2       -9.1540  -98.7940   -5.0370 C.3   303  LEU303      0.0001
     16  N        -12.5800  -93.8060   -0.4690 N.3   305  ASP305     -0.1239
     17  CA       -13.5950  -93.2240    0.4050 C.3   305  ASP305      0.1674
     18  C        -14.8080  -94.1390    0.5840 C.2   305  ASP305      0.2266
     19  O        -15.1480  -94.9060   -0.3300 O.2   305  ASP305     -0.2867
     20  CB       -14.1050  -91.9250   -0.2320 C.3   305  ASP305      0.1410
     21  CG       -13.0720  -90.8340   -0.4190 C.2   305  ASP305      0.3668
     22  OD1      -12.0900  -90.8010    0.3630 O.co2 305  ASP305     -0.2456
     23  OD2      -13.3020  -89.9440   -1.2630 O.co2 305  ASP305     -0.2456
     24  N        -18.5800  -94.2350    0.4730 N.3   307  LEU307     -0.1245
     25  CA       -19.6840  -93.4590   -0.0640 C.3   307  LEU307      0.1561
     26  C        -20.8130  -93.3240    0.9490 C.2   307  LEU307      0.2260
     27  O        -21.0450  -94.2330    1.7370 O.2   307  LEU307     -0.2867
     28  CB       -20.1930  -94.0540   -1.4010 C.3   307  LEU307      0.0270
     29  CG       -19.1940  -94.1090   -2.5520 C.3   307  LEU307      0.0019
     30  CD1      -19.8140  -94.7680   -3.7420 C.3   307  LEU307      0.0001
     31  CD2      -18.6380  -92.6980   -2.9240 C.3   307  LEU307      0.0001
     32  N        -25.3140  -93.4780   -2.6770 N.3   312  TYR312     -0.1241
     33  CA       -25.8250  -94.7670   -3.1500 C.3   312  TYR312      0.1605
     34  C        -27.2560  -94.6020   -3.6150 C.2   312  TYR312      0.2264
     35  O        -27.6230  -95.2000   -4.6130 O.2   312  TYR312     -0.2867
     36  CB       -25.7910  -95.8550   -2.0520 C.3   312  TYR312      0.0534
     37  CG       -24.4150  -96.3900   -1.7090 C.ar  312  TYR312     -0.0201
     38  CD1      -23.7050  -97.1780   -2.6130 C.ar  312  TYR312     -0.0009
     39  CD2      -23.8490  -96.1620   -0.4530 C.ar  312  TYR312     -0.0009
     40  CE1      -22.4320  -97.6560   -2.3080 C.ar  312  TYR312      0.0417
     41  CE2      -22.5930  -96.6720   -0.1230 C.ar  312  TYR312      0.0417
     42  CZ       -21.8930  -97.4280   -1.0500 C.ar  312  TYR312      0.1957
     43  OH       -20.6310  -97.8940   -0.7560 O.3   312  TYR312     -0.2866
     44  N        -27.2530  -93.4380   -7.2030 N.3   315  PHE315     -0.1241
     45  CA       -26.9130  -94.5440   -8.1160 C.3   315  PHE315      0.1605
     46  C        -28.1080  -95.4200   -8.4220 C.2   315  PHE315      0.2264
     47  O        -28.3450  -95.7450   -9.5820 O.2   315  PHE315     -0.2867
     48  CB       -25.8550  -95.4690   -7.5050 C.3   315  PHE315      0.0534
     49  CG       -24.4880  -94.9210   -7.1930 C.ar  315  PHE315     -0.0203
     50  CD1      -24.0670  -93.7020   -7.7200 C.ar  315  PHE315     -0.0042
     51  CD2      -23.6010  -95.6440   -6.4010 C.ar  315  PHE315     -0.0042
     52  CE1      -22.7900  -93.2100   -7.4470 C.ar  315  PHE315     -0.0003
     53  CE2      -22.3290  -95.1580   -6.1350 C.ar  315  PHE315     -0.0003
     54  CZ       -21.9240  -93.9490   -6.6730 C.ar  315  PHE315     -0.0000
     55  N        -18.4120 -105.3690   -4.9050 N.3   353  GLY353     -0.1225
     56  CA       -18.7120 -103.9740   -4.6130 C.3   353  GLY353      0.1811
     57  C        -20.2110 -103.8170   -4.7280 C.2   353  GLY353      0.2280
     58  O        -20.6970 -103.1100   -5.6130 O.2   353  GLY353     -0.2866
     59  N        -22.5590 -102.4370   -2.8530 N.3   355  GLY355     -0.1225
     60  CA       -23.1930 -101.2080   -2.3660 C.3   355  GLY355      0.1811
     61  C        -24.3300 -101.4990   -1.4080 C.2   355  GLY355      0.2280
     62  O        -24.1370 -102.2260   -0.4340 O.2   355  GLY355     -0.2866
     63  N        -20.1340 -108.9030   -2.1050 N.3   379  VAL379     -0.1231
     64  CA       -18.8870 -108.3750   -1.5310 C.3   379  VAL379      0.1692
     65  C        -18.8860 -106.8730   -1.4920 C.2   379  VAL379      0.2592
     66  O        -19.0360 -106.2360   -2.5290 O.2   379  VAL379     -0.2718
     67  CB       -17.6210 -108.9510   -2.2240 C.3   379  VAL379      0.0266
     68  CG1      -16.3470 -108.5130   -1.4890 C.3   379  VAL379      0.0020
     69  CG2      -17.7030 -110.4950   -2.3230 C.3   379  VAL379      0.0020
     70  N        -18.7030 -106.2980   -0.2950 N.am  380  GLU380     -0.1966
     71  CA       -18.6950 -104.8600   -0.1000 C.3   380  GLU380      0.1733
     72  C        -17.6780 -104.4950    0.9600 C.2   380  GLU380      0.2616
     73  O        -17.6800 -105.0940    2.0280 O.2   380  GLU380     -0.2715
     74  CB       -20.1060 -104.3620    0.2610 C.3   380  GLU380      0.0429
     75  CG       -20.2510 -102.8560    0.3980 C.3   380  GLU380      0.1163
     76  CD       -19.5610 -102.0020   -0.6480 C.2   380  GLU380      0.3649
     77  OE1      -20.0130 -102.0130   -1.8060 O.co2 380  GLU380     -0.2457
     78  OE2      -18.5810 -101.3050   -0.3150 O.co2 380  GLU380     -0.2457
     79  N        -16.7970 -103.5100    0.6640 N.am  381  LYS381     -0.1963
     80  CA       -15.7640 -103.0770    1.6150 C.3   381  LYS381      0.1728
     81  C        -16.2360 -101.9380    2.5360 C.2   381  LYS381      0.2616
     82  O        -15.6690 -101.7670    3.6060 O.2   381  LYS381     -0.2715
     83  CB       -14.4390 -102.7440    0.8920 C.3   381  LYS381      0.0311
     84  CG       -14.4860 -101.5280   -0.0470 C.3   381  LYS381      0.0038
     85  CD       -14.0480 -100.2430    0.6210 C.3   381  LYS381      0.0206
     86  CE       -14.4980  -99.0900   -0.2310 C.3   381  LYS381      0.1093
     87  NZ       -14.1750  -97.7710    0.3750 N.3   381  LYS381     -0.1314
     88  N        -17.2360 -101.1380    2.1050 N.am  382  ASN382     -0.1972
     89  CA       -17.7950 -100.0380    2.8840 C.3   382  ASN382      0.1688
     90  C        -18.6660 -100.6520    3.9770 C.2   382  ASN382      0.2292
     91  O        -19.7160 -101.2020    3.6410 O.2   382  ASN382     -0.2864
     92  CB       -18.5900  -99.1030    1.9870 C.3   382  ASN382      0.1181
     93  CG       -19.1930  -97.9070    2.6890 C.2   382  ASN382      0.2629
     94  OD1      -19.1700  -97.7720    3.9030 O.2   382  ASN382     -0.2716
     95  ND2      -19.7420  -96.9930    1.9320 N.am  382  ASN382     -0.0877
     96  N        -15.6290 -107.0370    3.0870 N.3   406  SER406     -0.1202
     97  CA       -14.2160 -107.1610    2.7570 C.3   406  SER406      0.2020
     98  C        -13.8660 -106.4730    1.4690 C.2   406  SER406      0.2619
     99  O        -14.7280 -106.3020    0.6020 O.2   406  SER406     -0.2717
    100  CB       -13.8840 -108.6550    2.5930 C.3   406  SER406      0.2103
    101  OG       -12.5350 -108.9120    2.2410 O.3   406  SER406     -0.2182
    102  N        -12.5590 -106.1770    1.3040 N.am  407  ASP407     -0.1959
    103  CA       -11.9770 -105.6850    0.0660 C.3   407  ASP407      0.1840
    104  C        -11.8180 -106.9270   -0.8270 C.2   407  ASP407      0.2622
    105  O        -11.2490 -107.9140   -0.3700 O.2   407  ASP407     -0.2715
    106  CB       -10.5980 -105.0490    0.3080 C.3   407  ASP407      0.1450
    107  CG       -10.0590 -104.2950   -0.9080 C.2   407  ASP407      0.3671
    108  OD1       -9.9320 -104.9170   -1.9900 O.co2 407  ASP407     -0.2456
    109  OD2       -9.7830 -103.0820   -0.7790 O.co2 407  ASP407     -0.2456
    110  N        -12.2850 -106.8660   -2.0940 N.am  408  MET408     -0.1963
    111  CA       -12.2260 -107.9670   -3.0460 C.3   408  MET408      0.1736
    112  C        -10.8040 -108.4430   -3.3780 C.2   408  MET408      0.2616
    113  O        -10.6310 -109.5370   -3.9120 O.2   408  MET408     -0.2715
    114  CB       -13.0120 -107.6320   -4.3180 C.3   408  MET408      0.0427
    115  CG       -12.3740 -106.5500   -5.1690 C.3   408  MET408      0.0599
    116  SD       -13.3810 -106.2020   -6.6180 S.3   408  MET408     -0.1393
    117  CE       -14.5740 -105.0190   -5.9250 C.3   408  MET408      0.0692
    118  N         -9.8010 -107.6110   -3.0770 N.am  409  ARG409     -0.1977
    119  CA        -8.3930 -107.8990   -3.3370 C.3   409  ARG409      0.1597
    120  C         -7.7620 -108.6720   -2.2000 C.2   409  ARG409      0.2287
    121  O         -6.6570 -109.1840   -2.3540 O.2   409  ARG409     -0.2864
    122  CB        -7.6340 -106.5880   -3.5520 C.3   409  ARG409      0.0334
    123  CG        -8.1650 -105.7980   -4.7410 C.3   409  ARG409      0.0492
    124  CD        -7.5550 -104.4300   -4.8120 C.3   409  ARG409      0.2205
    125  NE        -7.9810 -103.5870   -3.6950 N.pl3 409  ARG409     -0.0865
    126  CZ        -7.3510 -102.4790   -3.3260 C.cat 409  ARG409      0.5346
    127  NH1       -6.2970 -102.0460   -4.0130 N.pl3 409  ARG409      0.1354
    128  NH2       -7.7760 -101.7840   -2.2750 N.pl3 409  ARG409      0.1354
    129  N        -19.7980 -102.8800  -10.6920 N.3   423  GLU423     -0.1231
    130  CA       -20.0570 -101.5340  -11.2060 C.3   423  GLU423      0.1699
    131  C        -19.0200 -100.6010  -10.5470 C.2   423  GLU423      0.2592
    132  O        -19.3230  -99.7800   -9.6710 O.2   423  GLU423     -0.2718
    133  CB       -21.5310 -101.0770  -11.0760 C.3   423  GLU423      0.0402
    134  CG       -22.0230 -100.9090   -9.6450 C.3   423  GLU423      0.1161
    135  CD       -23.4140 -100.3520   -9.3920 C.2   423  GLU423      0.3649
    136  OE1      -24.0650 -100.8350   -8.4320 O.co2 423  GLU423     -0.2457
    137  OE2      -23.8100  -99.3820  -10.0830 O.co2 423  GLU423     -0.2457
    138  N        -17.7580 -100.8060  -10.9230 N.am  424  LEU424     -0.1980
    139  CA       -16.6360 -100.0290  -10.3810 C.3   424  LEU424      0.1596
    140  C        -16.1730  -98.9680  -11.3560 C.2   424  LEU424      0.2287
    141  O        -15.0510  -98.4630  -11.2390 O.2   424  LEU424     -0.2864
    142  CB       -15.4610 -100.9690  -10.0470 C.3   424  LEU424      0.0297
    143  CG       -15.7520 -102.1640   -9.1330 C.3   424  LEU424      0.0022
    144  CD1      -14.6800 -103.2100   -9.2900 C.3   424  LEU424      0.0001
    145  CD2      -15.9500 -101.7150   -7.6760 C.3   424  LEU424      0.0001
    146  N        -12.0790  -95.0240  -11.3610 N.3   432  GLU432     -0.1245
    147  CA       -12.4360  -95.4510  -10.0070 C.3   432  GLU432      0.1567
    148  C        -11.6010  -96.6750   -9.6000 C.2   432  GLU432      0.2260
    149  O        -11.7730  -97.1930   -8.5000 O.2   432  GLU432     -0.2867
    150  CB       -13.9380  -95.7250   -9.8530 C.3   432  GLU432      0.0388
    151  CG       -14.8200  -94.4800   -9.7520 C.3   432  GLU432      0.1160
    152  CD       -16.2740  -94.7790   -9.4170 C.2   432  GLU432      0.3649
    153  OE1      -16.5760  -95.9370   -9.0440 O.co2 432  GLU432     -0.2457
    154  OE2      -17.1230  -93.8690   -9.5600 O.co2 432  GLU432     -0.2457
    155  N         -8.9300 -103.4230   -8.9990 N.3   437  CYS437     -0.1235
    156  CA        -9.8370 -104.1910   -8.1530 C.3   437  CYS437      0.1677
    157  C        -10.1100 -105.5550   -8.7750 C.2   437  CYS437      0.2270
    158  O         -9.8460 -106.5590   -8.1240 O.2   437  CYS437     -0.2867
    159  CB       -11.1230 -103.4210   -7.8680 C.3   437  CYS437      0.0956
    160  SG       -10.8970 -101.9620   -6.8190 S.3   437  CYS437     -0.0801
@<TRIPOS>BOND
     1   146   147    1
     2   140   141    2
     3   140   139    1
     4   130   133    1
     5   130   129    1
     6   130   131    1
     7   133   134    1
     8   138   131   am
     9   138   139    1
    10   131   132    2
    11   139   142    1
    12   137   135   ar
    13   142   143    1
    14   147   150    1
    15   147   148    1
    16   150   151    1
    17   151   152    1
    18   134   135    1
    19   148   149    2
    20    47    46    2
    21   154   152   ar
    22   152   153   ar
    23   135   136   ar
    24   144   143    1
    25   143   145    1
    26   155   156    1
    27   157   156    1
    28   157   158    2
    29    46    45    1
    30   156   159    1
    31    45    48    1
    32    45    44    1
    33   159   160    1
    34    50    52   ar
    35    50    49   ar
    36    48    49    1
    37    52    54   ar
    38    49    51   ar
    39    54    53   ar
    40   116   117    1
    41   116   115    1
    42    51    53   ar
    43     7     6    1
    44     7     1    1
    45     6     5    1
    46    58    57    2
    47   115   114    1
    48    15    13    1
    49    55    56    1
    50   124   123    1
    51   124   125    1
    52     1     2    1
    53   123   122    1
    54    57    56    1
    55     5     2    1
    56    35    34    2
    57   114   111    1
    58    12    13    1
    59    12     9    1
    60   127   126    1
    61   113   112    2
    62    13    14    1
    63     2     3    1
    64     8     3   am
    65     8     9    1
    66    30    29    1
    67   125   126    2
    68    34    33    1
    69   122   119    1
    70   112   118   am
    71   112   111    1
    72   119   118    1
    73   119   120    1
    74   126   128    1
    75     3     4    2
    76     9    10    1
    77    33    32    1
    78    33    36    1
    79   111   110    1
    80    31    29    1
    81    59    60    1
    82    38    40   ar
    83    38    37   ar
    84    29    28    1
    85    66    65    2
    86    60    61    1
    87   121   120    2
    88    69    67    1
    89    40    42   ar
    90    67    64    1
    91    67    68    1
    92    63    64    1
    93   110   104   am
    94    36    37    1
    95    10    11    2
    96   108   107   ar
    97    77    76   ar
    98    37    39   ar
    99    64    65    1
   100    65    70   am
   101    61    62    2
   102    28    25    1
   103    23    21   ar
   104    42    43    1
   105    42    41   ar
   106   107   109   ar
   107   107   106    1
   108   104   105    2
   109   104   103    1
   110    76    78   ar
   111    76    75    1
   112    16    17    1
   113    39    41   ar
   114    21    20    1
   115    21    22   ar
   116    19    18    2
   117    70    71    1
   118    20    17    1
   119    86    87    1
   120    86    85    1
   121    71    74    1
   122    71    72    1
   123    25    24    1
   124    25    26    1
   125    84    85    1
   126    84    83    1
   127   103   106    1
   128   103   102    1
   129    74    75    1
   130    17    18    1
   131    99    98    2
   132    79    72   am
   133    79    80    1
   134    83    80    1
   135    26    27    2
   136    72    73    2
   137   102    98   am
   138    98    97    1
   139    80    81    1
   140    95    93   am
   141    92    93    1
   142    92    89    1
   143    88    81   am
   144    88    89    1
   145   101   100    1
   146    81    82    2
   147   100    97    1
   148    93    94    2
   149    97    96    1
   150    89    90    1
   151    91    90    2
