@<TRIPOS>MOLECULE
tmp/5fa7A00.pdb
 112 105 0 0 0
SMALL
GASTEIGER

@<TRIPOS>ATOM
      1  N         22.8310   -6.4390   18.3250 N.3    44  SER44      -0.1217
      2  CA        22.1470   -6.3060   19.6080 C.3    44  SER44       0.1889
      3  C         20.7270   -5.7950   19.5610 C.2    44  SER44       0.2288
      4  O         20.0800   -5.8750   20.5870 O.2    44  SER44      -0.2866
      5  CB        22.9520   -5.4670   20.6010 C.3    44  SER44       0.2089
      6  OG        24.2100   -6.0320   20.9490 O.3    44  SER44      -0.2183
      7  N         32.2350  -11.3300   25.4260 N.3    78  ASN78      -0.1225
      8  CA        32.9720  -10.1050   25.0610 C.3    78  ASN78       0.1785
      9  C         32.4920   -8.7960   25.6960 C.2    78  ASN78       0.2597
     10  O         33.2820   -7.8480   25.7560 O.2    78  ASN78      -0.2718
     11  CB        32.9200   -9.9350   23.5320 C.3    78  ASN78       0.1169
     12  CG        31.5230   -9.6460   23.0550 C.2    78  ASN78       0.2627
     13  OD1       30.5860  -10.3960   23.3860 O.2    78  ASN78      -0.2716
     14  ND2       31.3540   -8.5960   22.2670 N.am   78  ASN78      -0.0877
     15  N         31.2210   -8.6940   26.1080 N.am   79  TYR79      -0.1976
     16  CA        30.6850   -7.4600   26.6690 C.3    79  TYR79       0.1639
     17  C         29.5730   -7.7810   27.6710 C.2    79  TYR79       0.2290
     18  O         28.4640   -8.1680   27.2940 O.2    79  TYR79      -0.2864
     19  CB        30.1800   -6.5440   25.5290 C.3    79  TYR79       0.0560
     20  CG        29.8680   -5.1460   25.9930 C.ar   79  TYR79      -0.0198
     21  CD1       28.5540   -4.7000   26.0880 C.ar   79  TYR79      -0.0009
     22  CD2       30.8730   -4.3120   26.4630 C.ar   79  TYR79      -0.0009
     23  CE1       28.2540   -3.4390   26.6090 C.ar   79  TYR79       0.0417
     24  CE2       30.5830   -3.0700   27.0240 C.ar   79  TYR79       0.0417
     25  CZ        29.2810   -2.6080   27.0340 C.ar   79  TYR79       0.1957
     26  OH        29.0310   -1.3780   27.6000 O.3    79  TYR79      -0.2866
     27  N         22.8960   -3.3810   27.0530 N.3   104  SER104     -0.1217
     28  CA        23.3310   -4.2810   25.9930 C.3   104  SER104      0.1889
     29  C         24.3220   -5.3330   26.5150 C.2   104  SER104      0.2288
     30  O         25.3160   -5.6570   25.8780 O.2   104  SER104     -0.2866
     31  CB        23.8390   -3.5350   24.7740 C.3   104  SER104      0.2089
     32  OG        23.4910   -4.2930   23.6240 O.3   104  SER104     -0.2183
     33  N         25.6310   -8.8360   26.8830 N.3   106  ASN106     -0.1240
     34  CA        25.5220  -10.0510   26.0510 C.3   106  ASN106      0.1653
     35  C         25.2300  -11.3260   26.8550 C.2   106  ASN106      0.2266
     36  O         24.5640  -12.2370   26.3420 O.2   106  ASN106     -0.2867
     37  CB        26.7680  -10.2220   25.1680 C.3   106  ASN106      0.1155
     38  CG        26.7150   -9.3540   23.9290 C.2   106  ASN106      0.2627
     39  OD1       25.6620   -8.7960   23.5160 O.2   106  ASN106     -0.2716
     40  ND2       27.8320   -9.2740   23.2490 N.am  106  ASN106     -0.0877
     41  N         24.9630  -14.6010   21.4920 N.3   140  GLU140     -0.1231
     42  CA        25.9330  -13.5120   21.5330 C.3   140  GLU140      0.1684
     43  C         27.3210  -14.0470   21.8120 C.2   140  GLU140      0.2434
     44  O         27.4510  -14.9470   22.6490 O.2   140  GLU140     -0.2733
     45  CB        25.6110  -12.5140   22.6590 C.3   140  GLU140      0.0402
     46  CG        24.3310  -11.7550   22.4540 C.3   140  GLU140      0.1161
     47  CD        24.3570  -10.7660   21.3200 C.2   140  GLU140      0.3649
     48  OE1       23.2930  -10.1570   21.0840 O.co2 140  GLU140     -0.2457
     49  OE2       25.4210  -10.5700   20.6810 O.co2 140  GLU140     -0.2457
     50  N         28.3930  -13.4950   21.1860 N.am  141  PRO141     -0.2729
     51  CA        28.4430  -12.4100   20.1960 C.3   141  PRO141      0.1401
     52  C         28.4650  -12.8510   18.7340 C.2   141  PRO141      0.2269
     53  O         28.4550  -11.9670   17.8960 O.2   141  PRO141     -0.2865
     54  CB        29.7750  -11.7270   20.5290 C.3   141  PRO141      0.0296
     55  CG        30.6470  -12.8370   20.9920 C.3   141  PRO141      0.0237
     56  CD        29.7520  -13.9600   21.4970 C.3   141  PRO141      0.0939
     57  N         26.3750  -11.2900   15.8040 N.3   144  ASN144     -0.1240
     58  CA        26.7920   -9.9900   15.2840 C.3   144  ASN144      0.1653
     59  C         27.8260  -10.0250   14.1350 C.2   144  ASN144      0.2266
     60  O         28.2850   -8.9510   13.7470 O.2   144  ASN144     -0.2867
     61  CB        27.3820   -9.1300   16.4000 C.3   144  ASN144      0.1155
     62  CG        26.5930   -9.1140   17.6930 C.2   144  ASN144      0.2627
     63  OD1       25.3830   -8.8820   17.6980 O.2   144  ASN144     -0.2716
     64  ND2       27.2130   -9.5350   18.7860 N.am  144  ASN144     -0.0877
     65  N         22.4700    3.3970   26.2020 N.3   190  THR190     -0.1218
     66  CA        23.4170    3.3200   25.0800 C.3   190  THR190      0.1862
     67  C         23.0420    4.1080   23.8050 C.2   190  THR190      0.2287
     68  O         23.7630    4.0030   22.8150 O.2   190  THR190     -0.2866
     69  CB        23.5770    1.8280   24.6800 C.3   190  THR190      0.1770
     70  OG1       22.4020    1.4140   23.9420 O.3   190  THR190     -0.2211
     71  CG2       23.7960    0.9180   25.8530 C.3   190  THR190      0.0375
     72  N         16.8000    0.6550   21.1980 N.3   208  LYS208     -0.1231
     73  CA        17.7820   -0.4060   21.3430 C.3   208  LYS208      0.1693
     74  C         18.7710   -0.3320   20.1950 C.2   208  LYS208      0.2593
     75  O         18.3980   -0.4700   19.0340 O.2   208  LYS208     -0.2718
     76  CB        17.1540   -1.8060   21.4010 C.3   208  LYS208      0.0285
     77  CG        18.1910   -2.9400   21.6090 C.3   208  LYS208      0.0035
     78  CD        18.7740   -2.9190   23.0330 C.3   208  LYS208      0.0206
     79  CE        20.0770   -3.6410   23.1930 C.3   208  LYS208      0.1093
     80  NZ        21.2470   -2.8330   22.8110 N.3   208  LYS208     -0.1314
     81  N         20.0270   -0.0970   20.5400 N.am  209  THR209     -0.1939
     82  CA        21.1330    0.0030   19.6010 C.3   209  THR209      0.2028
     83  C         21.7470   -1.3640   19.3230 C.2   209  THR209      0.2643
     84  O         21.4910   -2.3400   20.0190 O.2   209  THR209     -0.2714
     85  CB        22.2440    0.9400   20.1910 C.3   209  THR209      0.1808
     86  OG1       22.5150    0.5140   21.5180 O.3   209  THR209     -0.2208
     87  CG2       21.8530    2.3870   20.2230 C.3   209  THR209      0.0379
     88  N         22.6270   -1.4040   18.3380 N.am  210  GLY210     -0.1939
     89  CA        23.4610   -2.5670   18.0930 C.3   210  GLY210      0.2014
     90  C         24.5830   -2.2820   17.1370 C.2   210  GLY210      0.2640
     91  O         24.5280   -1.2970   16.4000 O.2   210  GLY210     -0.2714
     92  N         25.6180   -3.1230   17.1530 N.am  211  SER211     -0.1935
     93  CA        26.7600   -2.9570   16.2670 C.3   211  SER211      0.2055
     94  C         27.3860   -4.3020   16.0140 C.2   211  SER211      0.2643
     95  O         27.2060   -5.2270   16.7960 O.2   211  SER211     -0.2714
     96  CB        27.7580   -1.9660   16.8490 C.3   211  SER211      0.2130
     97  OG        28.4060   -2.4810   17.9870 O.3   211  SER211     -0.2179
     98  N         28.0610   -4.4500   14.8980 N.am  212  GLY212     -0.1954
     99  CA        28.7000   -5.7290   14.6010 C.3   212  GLY212      0.1869
    100  C         29.8080   -5.5790   13.5840 C.2   212  GLY212      0.2309
    101  O         30.2900   -4.4750   13.3510 O.2   212  GLY212     -0.2863
    102  N         27.4120    5.7980   13.9650 N.3   248  ARG248     -0.1245
    103  CA        26.1930    6.1880   14.6880 C.3   248  ARG248      0.1563
    104  C         25.6560    7.5070   14.1390 C.2   248  ARG248      0.2260
    105  O         24.4400    7.7050   14.0850 O.2   248  ARG248     -0.2867
    106  CB        26.4380    6.2620   16.2040 C.3   248  ARG248      0.0307
    107  CG        26.7480    4.9250   16.8040 C.3   248  ARG248      0.0489
    108  CD        26.9160    4.9110   18.3250 C.3   248  ARG248      0.2205
    109  NE        28.0610    5.7140   18.7730 N.pl3 248  ARG248     -0.0865
    110  CZ        28.4830    5.7910   20.0360 C.cat 248  ARG248      0.5346
    111  NH1       27.8890    5.0760   20.9910 N.pl3 248  ARG248      0.1354
    112  NH2       29.5180    6.5690   20.3520 N.pl3 248  ARG248      0.1354
@<TRIPOS>BOND
     1   101   100    2
     2   100    99    1
     3    60    59    2
     4   102   103    1
     5   105   104    2
     6    59    58    1
     7   104   103    1
     8    99    98    1
     9   103   106    1
    10    98    94   am
    11    58    57    1
    12    58    61    1
    13    94    93    1
    14    94    95    2
    15   106   107    1
    16    93    96    1
    17    93    92    1
    18    61    62    1
    19    91    90    2
    20   107   108    1
    21    96    97    1
    22    90    92   am
    23    90    89    1
    24    62    63    2
    25    62    64   am
    26    53    52    2
    27    89    88    1
    28   108   109    1
    29     1     2    1
    30    88    83   am
    31    52    51    1
    32   109   110    2
    33    75    74    2
    34    83    82    1
    35    83    84    2
    36     3     2    1
    37     3     4    2
    38    82    85    1
    39    82    81    1
    40     2     5    1
    41   110   112    1
    42   110   111    1
    43    85    87    1
    44    85    86    1
    45    74    81   am
    46    74    73    1
    47    51    54    1
    48    51    50    1
    49    54    55    1
    50     5     6    1
    51    49    47   ar
    52    55    56    1
    53    48    47   ar
    54    50    56    1
    55    50    43   am
    56    72    73    1
    57    47    46    1
    58    73    76    1
    59    76    77    1
    60    41    42    1
    61    42    43    1
    62    42    45    1
    63    77    78    1
    64    43    44    2
    65    14    12   am
    66    46    45    1
    67    80    79    1
    68    68    67    2
    69    78    79    1
    70    12    13    2
    71    12    11    1
    72    40    38   am
    73    39    38    2
    74    11     8    1
    75    32    31    1
    76    67    66    1
    77    38    37    1
    78    70    69    1
    79    69    66    1
    80    69    71    1
    81    31    28    1
    82     8     7    1
    83     8     9    1
    84    66    65    1
    85    37    34    1
    86    19    20    1
    87    19    16    1
    88     9    10    2
    89     9    15   am
    90    30    29    2
    91    20    21   ar
    92    20    22   ar
    93    28    29    1
    94    28    27    1
    95    34    35    1
    96    34    33    1
    97    21    23   ar
    98    15    16    1
    99    36    35    2
   100    22    24   ar
   101    23    25   ar
   102    16    17    1
   103    24    25   ar
   104    25    26    1
   105    18    17    2
