@<TRIPOS>MOLECULE
tmp/5fa9B00.pdb
 103 103 0 0 0
SMALL
GASTEIGER

@<TRIPOS>ATOM
      1  N         38.1770   38.2190   11.7340 N.3    11  SER11      -0.1202
      2  CA        36.7650   37.9900   12.0250 C.3    11  SER11       0.2020
      3  C         36.4900   36.4990   12.1930 C.2    11  SER11       0.2619
      4  O         36.6980   35.7160   11.2660 O.2    11  SER11      -0.2717
      5  CB        35.8880   38.5750   10.9150 C.3    11  SER11       0.2103
      6  OG        34.5410   38.1550   11.0450 O.3    11  SER11      -0.2182
      7  N         36.0230   36.1090   13.3770 N.am   12  PHE12      -0.1961
      8  CA        35.8750   34.6920   13.7010 C.3    12  PHE12       0.1771
      9  C         34.7590   34.0100   12.9140 C.2    12  PHE12       0.2619
     10  O         34.6220   32.7870   12.9610 O.2    12  PHE12      -0.2715
     11  CB        35.6430   34.4960   15.2080 C.3    12  PHE12       0.0574
     12  CG        34.6010   35.4080   15.8070 C.ar   12  PHE12      -0.0200
     13  CD1       33.2890   35.3910   15.3620 C.ar   12  PHE12      -0.0042
     14  CD2       34.9320   36.2520   16.8530 C.ar   12  PHE12      -0.0042
     15  CE1       32.3380   36.2200   15.9270 C.ar   12  PHE12      -0.0003
     16  CE2       33.9860   37.0830   17.4220 C.ar   12  PHE12      -0.0003
     17  CZ        32.6870   37.0660   16.9590 C.ar   12  PHE12      -0.0000
     18  N         33.9660   34.7980   12.1940 N.am   13  TRP13      -0.1974
     19  CA        32.9090   34.2470   11.3540 C.3    13  TRP13       0.1640
     20  C         33.5020   33.3650   10.2630 C.2    13  TRP13       0.2290
     21  O         33.0530   32.2390   10.0470 O.2    13  TRP13      -0.2864
     22  CB        32.0720   35.3660   10.7310 C.3    13  TRP13       0.0576
     23  CG        31.2240   36.1090   11.7170 C.ar   13  TRP13       0.0006
     24  CD1       30.8670   35.6940   12.9660 C.ar   13  TRP13       0.0946
     25  CD2       30.6240   37.3970   11.5350 C.ar   13  TRP13       0.0152
     26  NE1       30.0820   36.6440   13.5740 N.ar   13  TRP13      -0.2442
     27  CE2       29.9180   37.7000   12.7160 C.ar   13  TRP13       0.0810
     28  CE3       30.6160   38.3240   10.4880 C.ar   13  TRP13       0.0012
     29  CZ2       29.2120   38.8900   12.8800 C.ar   13  TRP13       0.0191
     30  CZ3       29.9150   39.5050   10.6530 C.ar   13  TRP13       0.0001
     31  CH2       29.2230   39.7770   11.8390 C.ar   13  TRP13       0.0015
     32  N         36.3490   35.6220   22.5140 N.3    32  TYR32      -0.1241
     33  CA        37.3120   36.7030   22.6730 C.3    32  TYR32       0.1605
     34  C         38.4000   36.3030   23.6660 C.2    32  TYR32       0.2264
     35  O         38.1120   36.0060   24.8250 O.2    32  TYR32      -0.2867
     36  CB        36.6020   37.9770   23.1320 C.3    32  TYR32       0.0534
     37  CG        35.3180   38.2550   22.3810 C.ar   32  TYR32      -0.0201
     38  CD1       35.3330   38.9070   21.1540 C.ar   32  TYR32      -0.0009
     39  CD2       34.0890   37.8590   22.8970 C.ar   32  TYR32      -0.0009
     40  CE1       34.1610   39.1590   20.4640 C.ar   32  TYR32       0.0417
     41  CE2       32.9130   38.1060   22.2140 C.ar   32  TYR32       0.0417
     42  CZ        32.9550   38.7560   20.9980 C.ar   32  TYR32       0.1957
     43  OH        31.7860   39.0050   20.3150 O.3    32  TYR32      -0.2866
     44  N         39.5840   38.3580   18.5820 N.3    39  GLU39      -0.1245
     45  CA        38.5380   37.4650   18.1040 C.3    39  GLU39       0.1567
     46  C         39.1260   36.0950   17.7900 C.2    39  GLU39       0.2260
     47  O         39.9370   35.9510   16.8760 O.2    39  GLU39      -0.2867
     48  CB        37.8470   38.0550   16.8750 C.3    39  GLU39       0.0388
     49  CG        37.0470   39.3140   17.1720 C.3    39  GLU39       0.1160
     50  CD        36.1500   39.7250   16.0220 C.2    39  GLU39       0.3649
     51  OE1       35.6120   40.8510   16.0620 O.co2  39  GLU39      -0.2457
     52  OE2       35.9780   38.9200   15.0830 O.co2  39  GLU39      -0.2457
     53  N         39.4720   44.3490    7.8760 N.3    74  ASP74      -0.1239
     54  CA        39.1690   44.3960    9.3020 C.3    74  ASP74       0.1674
     55  C         40.4180   44.7610   10.0970 C.2    74  ASP74       0.2266
     56  O         41.3090   43.9340   10.2850 O.2    74  ASP74      -0.2867
     57  CB        38.6070   43.0550    9.7790 C.3    74  ASP74       0.1410
     58  CG        37.3920   42.6150    8.9830 C.2    74  ASP74       0.3668
     59  OD1       36.5010   43.4570    8.7410 O.co2  74  ASP74      -0.2456
     60  OD2       37.3270   41.4280    8.6000 O.co2  74  ASP74      -0.2456
     61  N         41.4480   43.7120   17.9840 N.3    78  GLN78      -0.1231
     62  CA        40.5770   42.5470   18.0830 C.3    78  GLN78       0.1698
     63  C         40.7560   41.6140   16.8870 C.2    78  GLN78       0.2592
     64  O         40.2170   40.5080   16.8680 O.2    78  GLN78      -0.2718
     65  CB        39.1110   42.9730   18.2050 C.3    78  GLN78       0.0381
     66  CG        38.5600   43.7080   16.9940 C.3    78  GLN78       0.0905
     67  CD        38.7330   45.2130   17.0910 C.2    78  GLN78       0.2608
     68  OE1       39.7820   45.7060   17.5050 O.2    78  GLN78      -0.2717
     69  NE2       37.6970   45.9510   16.7080 N.am   78  GLN78      -0.0878
     70  N         41.5160   42.0640   15.8930 N.am   79  TYR79      -0.1976
     71  CA        41.7630   41.2620   14.7000 C.3    79  TYR79       0.1639
     72  C         43.2200   40.8220   14.5930 C.2    79  TYR79       0.2290
     73  O         43.6510   40.3420   13.5440 O.2    79  TYR79      -0.2864
     74  CB        41.3690   42.0380   13.4410 C.3    79  TYR79       0.0560
     75  CG        39.9360   42.5150   13.4340 C.ar   79  TYR79      -0.0198
     76  CD1       38.8840   41.6160   13.3070 C.ar   79  TYR79      -0.0009
     77  CD2       39.6340   43.8650   13.5430 C.ar   79  TYR79      -0.0009
     78  CE1       37.5730   42.0500   13.2970 C.ar   79  TYR79       0.0417
     79  CE2       38.3270   44.3080   13.5320 C.ar   79  TYR79       0.0417
     80  CZ        37.3010   43.3970   13.4100 C.ar   79  TYR79       0.1957
     81  OH        35.9980   43.8360   13.3990 O.3    79  TYR79      -0.2866
     82  N         26.7170   34.8630   17.2650 N.3   126  HIS126     -0.1241
     83  CA        28.0070   34.7390   16.5940 C.3   126  HIS126      0.1621
     84  C         28.4460   33.2880   16.4050 C.2   126  HIS126      0.2264
     85  O         29.4640   33.0220   15.7650 O.2   126  HIS126     -0.2867
     86  CB        29.0810   35.4990   17.3740 C.3   126  HIS126      0.0745
     87  CG        28.8450   36.9760   17.4430 C.ar  126  HIS126      0.0817
     88  ND1       28.7330   37.7650   16.3180 N.ar  126  HIS126     -0.2268
     89  CD2       28.7030   37.8080   18.5020 C.ar  126  HIS126      0.1154
     90  CE1       28.5320   39.0190   16.6810 C.ar  126  HIS126      0.1986
     91  NE2       28.5090   39.0720   18.0010 N.ar  126  HIS126     -0.2212
     92  N         29.1150   38.2210    5.9810 N.3   137  TYR137     -0.1241
     93  CA        30.4410   38.6680    5.5700 C.3   137  TYR137      0.1605
     94  C         31.5030   37.6330    5.9200 C.2   137  TYR137      0.2264
     95  O         31.4500   37.0050    6.9780 O.2   137  TYR137     -0.2867
     96  CB        30.7710   40.0120    6.2230 C.3   137  TYR137      0.0534
     97  CG        32.2340   40.3940    6.1770 C.ar  137  TYR137     -0.0201
     98  CD1       32.8190   40.8470    5.0020 C.ar  137  TYR137     -0.0009
     99  CD2       33.0260   40.3170    7.3160 C.ar  137  TYR137     -0.0009
    100  CE1       34.1560   41.2020    4.9600 C.ar  137  TYR137      0.0417
    101  CE2       34.3620   40.6700    7.2840 C.ar  137  TYR137      0.0417
    102  CZ        34.9220   41.1120    6.1040 C.ar  137  TYR137      0.1957
    103  OH        36.2510   41.4650    6.0690 O.3   137  TYR137     -0.2866
@<TRIPOS>BOND
     1   100    98   ar
     2   100   102   ar
     3    98    97   ar
     4    93    94    1
     5    93    92    1
     6    93    96    1
     7    94    95    2
     8   103   102    1
     9   102   101   ar
    10    97    96    1
    11    97    99   ar
    12   101    99   ar
    13    53    54    1
    14    60    58   ar
    15    59    58   ar
    16    58    57    1
    17    54    57    1
    18    54    55    1
    19    21    20    2
    20    55    56    2
    21    20    19    1
    22    28    30   ar
    23    28    25   ar
    24    30    31   ar
    25    22    19    1
    26    22    23    1
    27     5     6    1
    28     5     2    1
    29     4     3    2
    30    19    18    1
    31    25    23   ar
    32    25    27   ar
    33    23    24   ar
    34     1     2    1
    35    31    29   ar
    36     2     3    1
    37     3     7   am
    38    18     9   am
    39    27    29   ar
    40    27    26   ar
    41     9    10    2
    42     9     8    1
    43    24    26   ar
    44    78    76   ar
    45    78    80   ar
    46    76    75   ar
    47     7     8    1
    48    81    80    1
    49    80    79   ar
    50    75    74    1
    51    75    77   ar
    52    74    71    1
    53    79    77   ar
    54    73    72    2
    55     8    11    1
    56    72    71    1
    57    71    70    1
    58    52    50   ar
    59    11    12    1
    60    13    12   ar
    61    13    15   ar
    62    85    84    2
    63    12    14   ar
    64    70    63   am
    65    15    17   ar
    66    50    51   ar
    67    50    49    1
    68    88    90   ar
    69    88    87   ar
    70    84    83    1
    71    83    82    1
    72    83    86    1
    73    90    91   ar
    74    69    67   am
    75    14    16   ar
    76    64    63    2
    77    48    49    1
    78    48    45    1
    79    47    46    2
    80    63    62    1
    81    17    16   ar
    82    66    67    1
    83    66    65    1
    84    67    68    2
    85    86    87    1
    86    87    89   ar
    87    46    45    1
    88    61    62    1
    89    91    89   ar
    90    62    65    1
    91    45    44    1
    92    43    42    1
    93    40    42   ar
    94    40    38   ar
    95    42    41   ar
    96    38    37   ar
    97    41    39   ar
    98    37    39   ar
    99    37    36    1
   100    32    33    1
   101    33    36    1
   102    33    34    1
   103    34    35    2
