@<TRIPOS>MOLECULE
tmp/5fa9B01.pdb
 86 79 0 0 0
SMALL
GASTEIGER

@<TRIPOS>ATOM
      1  N         43.2430   14.2510   17.3280 N.3    47  SER47      -0.1217
      2  CA        44.5940   14.2460   16.7780 C.3    47  SER47       0.1889
      3  C         44.8820   12.9990   15.9430 C.2    47  SER47       0.2288
      4  O         45.8520   12.9630   15.1880 O.2    47  SER47      -0.2866
      5  CB        45.6240   14.3660   17.9030 C.3    47  SER47       0.2089
      6  OG        45.5070   13.2900   18.8180 O.3    47  SER47      -0.2183
      7  N         46.2880   16.3710   12.5710 N.3    51  SER51      -0.1217
      8  CA        47.3650   16.7470   13.4780 C.3    51  SER51       0.1889
      9  C         47.3840   18.2500   13.7190 C.2    51  SER51       0.2288
     10  O         46.8210   19.0200   12.9390 O.2    51  SER51      -0.2866
     11  CB        48.7170   16.2910   12.9270 C.3    51  SER51       0.2089
     12  OG        49.0030   16.9220   11.6910 O.3    51  SER51      -0.2183
     13  N         49.8790   19.9860   13.3270 N.3    53  GLN53      -0.1245
     14  CA        50.6670   20.4830   12.2060 C.3    53  GLN53       0.1566
     15  C         49.7770   20.9070   11.0410 C.2    53  GLN53       0.2260
     16  O         49.9730   21.9750   10.4590 O.2    53  GLN53      -0.2867
     17  CB        51.6710   19.4230   11.7410 C.3    53  GLN53       0.0367
     18  CG        52.9120   19.2930   12.6220 C.3    53  GLN53       0.0905
     19  CD        52.5850   18.9180   14.0560 C.2    53  GLN53       0.2608
     20  OE1       51.7880   18.0130   14.3080 O.2    53  GLN53      -0.2717
     21  NE2       53.1970   19.6180   15.0050 N.am   53  GLN53      -0.0878
     22  N         55.7740   22.4880   19.7150 N.3    93  GLU93      -0.1245
     23  CA        55.2220   22.2220   18.3910 C.3    93  GLU93       0.1567
     24  C         54.7860   23.5190   17.7160 C.2    93  GLU93       0.2260
     25  O         55.0600   23.7380   16.5350 O.2    93  GLU93      -0.2867
     26  CB        54.0420   21.2520   18.4760 C.3    93  GLU93       0.0388
     27  CG        54.4260   19.8260   18.8390 C.3    93  GLU93       0.1160
     28  CD        53.2270   18.8990   18.8970 C.2    93  GLU93       0.3649
     29  OE1       52.5370   18.7520   17.8650 O.co2  93  GLU93      -0.2457
     30  OE2       52.9730   18.3160   19.9720 O.co2  93  GLU93      -0.2457
     31  N         56.7100    9.3660   11.4520 N.3   210  LEU210     -0.1231
     32  CA        56.3640    9.6280   12.8450 C.3   210  LEU210      0.1693
     33  C         55.1580    8.8060   13.2870 C.2   210  LEU210      0.2592
     34  O         54.9940    8.5130   14.4710 O.2   210  LEU210     -0.2718
     35  CB        56.0810   11.1190   13.0480 C.3   210  LEU210      0.0284
     36  CG        55.8280   11.5990   14.4790 C.3   210  LEU210      0.0019
     37  CD1       57.0430   11.3520   15.3620 C.3   210  LEU210      0.0001
     38  CD2       55.4340   13.0670   14.4940 C.3   210  LEU210      0.0001
     39  N         54.3240    8.4240   12.3270 N.am  211  ASN211     -0.1974
     40  CA        53.1050    7.6820   12.6230 C.3   211  ASN211      0.1688
     41  C         53.2510    6.1920   12.3400 C.2   211  ASN211      0.2292
     42  O         52.2940    5.4290   12.4700 O.2   211  ASN211     -0.2864
     43  CB        51.9410    8.2530   11.8150 C.3   211  ASN211      0.1181
     44  CG        51.7440    9.7360   12.0510 C.2   211  ASN211      0.2629
     45  OD1       51.6330   10.1850   13.1910 O.2   211  ASN211     -0.2716
     46  ND2       51.7090   10.5080   10.9710 N.am  211  ASN211     -0.0877
     47  N         49.4380    4.9350   12.1320 N.3   223  THR223     -0.1203
     48  CA        48.3560    5.2650   13.0540 C.3   223  THR223      0.1994
     49  C         47.4100    6.3030   12.4600 C.2   223  THR223      0.2617
     50  O         46.2780    6.4560   12.9180 O.2   223  THR223     -0.2717
     51  CB        48.9010    5.7920   14.3930 C.3   223  THR223      0.1784
     52  OG1       49.5870    7.0320   14.1780 O.3   223  THR223     -0.2211
     53  CG2       49.8610    4.7860   15.0090 C.3   223  THR223      0.0376
     54  N         47.8810    7.0110   11.4380 N.am  224  LYS224     -0.1979
     55  CA        47.0780    8.0300   10.7710 C.3   224  LYS224      0.1596
     56  C         47.6860    8.4160    9.4290 C.2   224  LYS224      0.2287
     57  O         48.8160    8.0430    9.1180 O.2   224  LYS224     -0.2864
     58  CB        46.9410    9.2740   11.6520 C.3   224  LYS224      0.0298
     59  CG        48.2050   10.1170   11.7310 C.3   224  LYS224      0.0038
     60  CD        48.0370   11.2840   12.6910 C.3   224  LYS224      0.0206
     61  CE        46.9600   12.2440   12.2130 C.3   224  LYS224      0.1093
     62  NZ        47.3040   12.8640   10.9040 N.3   224  LYS224     -0.1314
     63  N         47.2420    6.3380   20.2740 N.3   266  ALA266     -0.1245
     64  CA        47.4810    7.0610   19.0310 C.3   266  ALA266      0.1562
     65  C         46.1890    7.2380   18.2410 C.2   266  ALA266      0.2260
     66  O         46.1870    7.8280   17.1610 O.2   266  ALA266     -0.2867
     67  CB        48.5220    6.3390   18.1890 C.3   266  ALA266      0.0290
     68  N         55.5080   17.4280    9.5810 N.3   297  TYR297     -0.1241
     69  CA        54.8110   16.1630    9.7910 C.3   297  TYR297      0.1605
     70  C         55.7870   15.0630   10.2000 C.2   297  TYR297      0.2264
     71  O         55.3930   14.0610   10.7960 O.2   297  TYR297     -0.2867
     72  CB        54.0410   15.7530    8.5350 C.3   297  TYR297      0.0534
     73  CG        52.9200   16.7020    8.1770 C.ar  297  TYR297     -0.0201
     74  CD1       51.7710   16.7740    8.9550 C.ar  297  TYR297     -0.0009
     75  CD2       53.0090   17.5250    7.0630 C.ar  297  TYR297     -0.0009
     76  CE1       50.7440   17.6410    8.6350 C.ar  297  TYR297      0.0417
     77  CE2       51.9850   18.3950    6.7330 C.ar  297  TYR297      0.0417
     78  CZ        50.8560   18.4480    7.5220 C.ar  297  TYR297      0.1957
     79  OH        49.8360   19.3140    7.1970 O.3   297  TYR297     -0.2866
     80  N         57.7470   17.5070   14.2250 N.3   300  PRO300     -0.2116
     81  CA        56.8560   18.5350   14.7800 C.3   300  PRO300      0.1372
     82  C         57.5900   19.5500   15.6540 C.2   300  PRO300      0.2244
     83  O         57.1530   20.6950   15.7650 O.2   300  PRO300     -0.2868
     84  CB        55.8550   17.7250   15.6130 C.3   300  PRO300      0.0268
     85  CG        56.5200   16.4140   15.8600 C.3   300  PRO300      0.0207
     86  CD        57.3540   16.1530   14.6490 C.3   300  PRO300      0.0892
@<TRIPOS>BOND
     1    77    75   ar
     2    77    78   ar
     3    75    73   ar
     4    79    78    1
     5    78    76   ar
     6    73    72    1
     7    73    74   ar
     8    72    69    1
     9    76    74   ar
    10    57    56    2
    11    56    55    1
    12    68    69    1
    13    69    70    1
    14    70    71    2
    15    16    15    2
    16    55    54    1
    17    55    58    1
    18    62    61    1
    19    46    44   am
    20    15    14    1
    21    54    49   am
    22    31    32    1
    23    58    59    1
    24    12    11    1
    25    59    60    1
    26    17    14    1
    27    17    18    1
    28    43    44    1
    29    43    40    1
    30    44    45    2
    31    47    48    1
    32    14    13    1
    33    61    60    1
    34    39    40    1
    35    39    33   am
    36    41    42    2
    37    41    40    1
    38    49    50    2
    39    49    48    1
    40     7     8    1
    41    18    19    1
    42    32    35    1
    43    32    33    1
    44    11     8    1
    45    10     9    2
    46    35    36    1
    47    48    51    1
    48    33    34    2
    49     8     9    1
    50    19    20    2
    51    19    21   am
    52    52    51    1
    53    80    86    1
    54    80    81    1
    55    51    53    1
    56    36    38    1
    57    36    37    1
    58    86    85    1
    59    81    84    1
    60    81    82    1
    61     4     3    2
    62    84    85    1
    63    82    83    2
    64     3     2    1
    65    25    24    2
    66     2     1    1
    67     2     5    1
    68    66    65    2
    69    24    23    1
    70    29    28   ar
    71     5     6    1
    72    67    64    1
    73    65    64    1
    74    23    26    1
    75    23    22    1
    76    26    27    1
    77    27    28    1
    78    28    30   ar
    79    64    63    1
