@<TRIPOS>MOLECULE
tmp/5fa9B02.pdb
 95 90 0 0 0
SMALL
GASTEIGER

@<TRIPOS>ATOM
      1  N         34.8680   22.7850    8.4270 N.3    21  GLN21      -0.1245
      2  CA        34.8070   21.9240    7.2510 C.3    21  GLN21       0.1566
      3  C         35.9550   20.9210    7.2190 C.2    21  GLN21       0.2260
      4  O         36.0190   20.0690    6.3330 O.2    21  GLN21      -0.2867
      5  CB        34.8260   22.7630    5.9740 C.3    21  GLN21       0.0367
      6  CG        33.6530   23.7100    5.8280 C.3    21  GLN21       0.0905
      7  CD        33.6990   24.4860    4.5290 C.2    21  GLN21       0.2608
      8  OE1       33.3950   23.9510    3.4630 O.2    21  GLN21      -0.2717
      9  NE2       34.0880   25.7530    4.6100 N.am   21  GLN21      -0.0878
     10  N         38.0720   17.7490    8.4250 N.3    23  PRO23      -0.2116
     11  CA        37.9270   16.4510    9.0930 C.3    23  PRO23       0.1372
     12  C         38.7320   16.3720   10.3870 C.2    23  PRO23       0.2244
     13  O         39.8490   16.8850   10.4510 O.2    23  PRO23      -0.2868
     14  CB        38.4650   15.4620    8.0550 C.3    23  PRO23       0.0268
     15  CG        38.2560   16.1440    6.7490 C.3    23  PRO23       0.0207
     16  CD        38.4840   17.6010    7.0180 C.3    23  PRO23       0.0892
     17  N         38.6710   25.2400    1.9570 N.3   145  ALA145     -0.1231
     18  CA        38.6280   24.0960    2.8640 C.3   145  ALA145      0.1694
     19  C         38.3400   22.7950    2.1190 C.2   145  ALA145      0.2592
     20  O         38.6650   21.7090    2.5990 O.2   145  ALA145     -0.2718
     21  CB        37.5890   24.3240    3.9510 C.3   145  ALA145      0.0304
     22  N         37.7280   22.9130    0.9450 N.am  146  LEU146     -0.1966
     23  CA        37.4280   21.7540    0.1120 C.3   146  LEU146      0.1728
     24  C         38.4110   21.6710   -1.0500 C.2   146  LEU146      0.2616
     25  O         38.2380   20.8740   -1.9720 O.2   146  LEU146     -0.2715
     26  CB        35.9920   21.8230   -0.4070 C.3   146  LEU146      0.0311
     27  CG        34.9090   21.9600    0.6650 C.3   146  LEU146      0.0022
     28  CD1       33.5510   22.2180    0.0320 C.3   146  LEU146      0.0001
     29  CD2       34.8700   20.7190    1.5450 C.3   146  LEU146      0.0001
     30  N         39.4440   22.5050   -0.9910 N.am  147  LYS147     -0.1964
     31  CA        40.4890   22.5300   -2.0080 C.3   147  LYS147      0.1713
     32  C         41.8210   22.1140   -1.3850 C.2   147  LYS147      0.2458
     33  O         41.9800   22.1950   -0.1670 O.2   147  LYS147     -0.2730
     34  CB        40.5820   23.9250   -2.6350 C.3   147  LYS147      0.0311
     35  CG        39.3700   24.2970   -3.4760 C.3   147  LYS147      0.0038
     36  CD        39.4470   25.7320   -3.9690 C.3   147  LYS147      0.0206
     37  CE        38.2470   26.0760   -4.8360 C.3   147  LYS147      0.1093
     38  NZ        38.2970   27.4800   -5.3310 N.3   147  LYS147     -0.1314
     39  N         42.7780   21.6560   -2.2140 N.am  148  PRO148     -0.2727
     40  CA        44.0660   21.1750   -1.6960 C.3   148  PRO148      0.1402
     41  C         44.7950   22.1850   -0.8100 C.2   148  PRO148      0.2269
     42  O         44.8930   23.3630   -1.1540 O.2   148  PRO148     -0.2865
     43  CB        44.8690   20.9020   -2.9700 C.3   148  PRO148      0.0296
     44  CG        43.8390   20.5570   -3.9790 C.3   148  PRO148      0.0237
     45  CD        42.6620   21.4370   -3.6680 C.3   148  PRO148      0.0939
     46  N         49.3550   20.6680   -5.4690 N.3   152  GLU152     -0.1245
     47  CA        49.1730   19.3180   -5.9870 C.3   152  GLU152      0.1567
     48  C         49.2540   19.2930   -7.5080 C.2   152  GLU152      0.2260
     49  O         48.8220   18.3320   -8.1460 O.2   152  GLU152     -0.2867
     50  CB        47.8340   18.7410   -5.5250 C.3   152  GLU152      0.0388
     51  CG        47.7290   18.5390   -4.0240 C.3   152  GLU152      0.1160
     52  CD        46.5430   17.6780   -3.6370 C.2   152  GLU152      0.3649
     53  OE1       45.8800   17.1330   -4.5450 O.co2 152  GLU152     -0.2457
     54  OE2       46.2720   17.5470   -2.4250 O.co2 152  GLU152     -0.2457
     55  N         52.3830   12.1710   -4.3790 N.3   204  LYS204     -0.1245
     56  CA        51.7510   12.8850   -3.2730 C.3   204  LYS204      0.1561
     57  C         51.9860   12.1730   -1.9410 C.2   204  LYS204      0.2260
     58  O         51.7950   10.9610   -1.8430 O.2   204  LYS204     -0.2867
     59  CB        50.2510   13.0430   -3.5300 C.3   204  LYS204      0.0271
     60  CG        49.5000   13.7740   -2.4290 C.3   204  LYS204      0.0035
     61  CD        48.0690   14.0690   -2.8430 C.3   204  LYS204      0.0206
     62  CE        47.2190   14.4750   -1.6510 C.3   204  LYS204      0.1093
     63  NZ        45.8010   14.7150   -2.0400 N.3   204  LYS204     -0.1314
     64  N         44.5990   15.1640    6.0770 N.3   228  THR228     -0.1203
     65  CA        43.2120   14.7450    5.9090 C.3   228  THR228      0.1994
     66  C         42.8310   14.6840    4.4330 C.2   228  THR228      0.2617
     67  O         41.7420   14.2320    4.0800 O.2   228  THR228     -0.2717
     68  CB        42.2420   15.6940    6.6360 C.3   228  THR228      0.1784
     69  OG1       42.3860   17.0210    6.1140 O.3   228  THR228     -0.2211
     70  CG2       42.5270   15.7090    8.1300 C.3   228  THR228      0.0376
     71  N         43.7380   15.1400    3.5760 N.am  229  GLN229     -0.1979
     72  CA        43.4770   15.2330    2.1450 C.3   229  GLN229      0.1601
     73  C         44.2020   14.1470    1.3570 C.2   229  GLN229      0.2287
     74  O         44.2390   14.1820    0.1270 O.2   229  GLN229     -0.2864
     75  CB        43.8920   16.6110    1.6280 C.3   229  GLN229      0.0394
     76  CG        43.3770   17.7650    2.4700 C.3   229  GLN229      0.0908
     77  CD        43.7050   19.1150    1.8660 C.2   229  GLN229      0.2608
     78  OE1       44.5790   19.2270    1.0070 O.2   229  GLN229     -0.2717
     79  NE2       43.0050   20.1500    2.3160 N.am  229  GLN229     -0.0878
     80  N         43.3680    9.6690   -2.3950 N.3   249  LYS249     -0.1231
     81  CA        42.3040   10.5700   -2.8190 C.3   249  LYS249      0.1693
     82  C         42.6030   11.1680   -4.1880 C.2   249  LYS249      0.2592
     83  O         41.7090   11.3130   -5.0210 O.2   249  LYS249     -0.2718
     84  CB        42.0920   11.6860   -1.7960 C.3   249  LYS249      0.0285
     85  CG        40.9570   12.6230   -2.1710 C.3   249  LYS249      0.0035
     86  CD        40.6070   13.5780   -1.0500 C.3   249  LYS249      0.0206
     87  CE        39.3690   14.3810   -1.4060 C.3   249  LYS249      0.1093
     88  NZ        38.6450   14.8520   -0.1960 N.3   249  LYS249     -0.1314
     89  N         43.8660   11.5090   -4.4170 N.am  250  THR250     -0.1953
     90  CA        44.2780   12.0900   -5.6870 C.3   250  THR250      0.1897
     91  C         44.4780   11.0020   -6.7350 C.2   250  THR250      0.2313
     92  O         43.8260   11.0050   -7.7790 O.2   250  THR250     -0.2863
     93  CB        45.5750   12.9040   -5.5440 C.3   250  THR250      0.1794
     94  OG1       45.3480   14.0180   -4.6730 O.3   250  THR250     -0.2208
     95  CG2       46.0330   13.4140   -6.9010 C.3   250  THR250      0.0378
@<TRIPOS>BOND
     1    49    48    2
     2    92    91    2
     3    48    47    1
     4    95    93    1
     5    91    90    1
     6    47    50    1
     7    47    46    1
     8    90    93    1
     9    90    89    1
    10    93    94    1
    11    50    51    1
    12    38    37    1
    13    83    82    2
    14    37    36    1
    15    53    52   ar
    16    89    82   am
    17    55    56    1
    18    82    81    1
    19    51    52    1
    20    44    45    1
    21    44    43    1
    22    36    35    1
    23    45    39    1
    24    52    54   ar
    25    59    56    1
    26    59    60    1
    27    35    34    1
    28    56    57    1
    29    43    40    1
    30    61    60    1
    31    61    62    1
    32    81    80    1
    33    81    84    1
    34    34    31    1
    35    39    40    1
    36    39    32   am
    37    85    84    1
    38    85    86    1
    39    63    62    1
    40    31    32    1
    41    31    30    1
    42    25    24    2
    43    57    58    2
    44    40    41    1
    45    87    86    1
    46    87    88    1
    47    32    33    2
    48    42    41    2
    49    24    30   am
    50    24    23    1
    51    26    23    1
    52    26    27    1
    53    28    27    1
    54    23    22    1
    55    74    73    2
    56    27    29    1
    57    22    19   am
    58    78    77    2
    59    73    72    1
    60    75    72    1
    61    75    76    1
    62    77    79   am
    63    77    76    1
    64    17    18    1
    65    19    20    2
    66    19    18    1
    67    72    71    1
    68    18    21    1
    69     8     7    2
    70    71    66   am
    71    67    66    2
    72    66    65    1
    73     7     9   am
    74     7     6    1
    75     6     5    1
    76    65    64    1
    77    65    68    1
    78     5     2    1
    79    69    68    1
    80     4     3    2
    81    68    70    1
    82    15    16    1
    83    15    14    1
    84    16    10    1
    85     3     2    1
    86     2     1    1
    87    14    11    1
    88    10    11    1
    89    11    12    1
    90    12    13    2
