@<TRIPOS>MOLECULE
tmp/5fadA00.pdb
 214 213 0 0 0
SMALL
GASTEIGER

@<TRIPOS>ATOM
      1  N        -29.7420    3.9500   66.4500 N.3     3  VAL3       -0.1231
      2  CA       -29.8370    4.1810   65.0180 C.3     3  VAL3        0.1678
      3  C        -30.4810    2.9270   64.4450 C.2     3  VAL3        0.2434
      4  O        -30.5390    1.9090   65.1350 O.2     3  VAL3       -0.2733
      5  CB       -28.4230    4.4260   64.4230 C.3     3  VAL3        0.0265
      6  CG1      -27.8330    5.7200   64.9730 C.3     3  VAL3        0.0020
      7  CG2      -27.4940    3.2470   64.7180 C.3     3  VAL3        0.0020
      8  N        -30.9840    2.9840   63.1990 N.am    4  PRO4       -0.2729
      9  CA       -31.5940    1.7660   62.6490 C.3     4  PRO4        0.1401
     10  C        -30.5980    0.6070   62.6480 C.2     4  PRO4        0.2269
     11  O        -29.4010    0.8360   62.5150 O.2     4  PRO4       -0.2865
     12  CB       -31.9570    2.1710   61.2200 C.3     4  PRO4        0.0296
     13  CG       -32.1000    3.6430   61.2730 C.3     4  PRO4        0.0237
     14  CD       -31.0870    4.1200   62.2670 C.3     4  PRO4        0.0939
     15  N        -28.1230   -1.8560   61.7110 N.3     6  VAL6       -0.1231
     16  CA       -27.2440   -2.1750   60.6080 C.3     6  VAL6        0.1678
     17  C        -25.9830   -2.7900   61.2170 C.2     6  VAL6        0.2434
     18  O        -25.0600   -2.0710   61.5970 O.2     6  VAL6       -0.2733
     19  CB       -26.8390   -0.9000   59.8310 C.3     6  VAL6        0.0265
     20  CG1      -26.0180   -1.2590   58.6050 C.3     6  VAL6        0.0020
     21  CG2      -28.0660   -0.0870   59.4490 C.3     6  VAL6        0.0020
     22  N        -25.9460   -4.1230   61.3400 N.am    7  PRO7       -0.2718
     23  CA       -24.8330   -4.7710   62.0480 C.3     7  PRO7        0.1535
     24  C        -23.5610   -4.7930   61.2190 C.2     7  PRO7        0.2599
     25  O        -23.5740   -4.4750   60.0330 O.2     7  PRO7       -0.2715
     26  CB       -25.3480   -6.1960   62.2410 C.3     7  PRO7        0.0310
     27  CG       -26.2240   -6.4090   61.0760 C.3     7  PRO7        0.0237
     28  CD       -26.9340   -5.1020   60.8620 C.3     7  PRO7        0.0939
     29  N        -22.4580   -5.1780   61.8380 N.am    8  TYR8       -0.1960
     30  CA       -21.2200   -5.2630   61.0970 C.3     8  TYR8        0.1771
     31  C        -21.1810   -6.5070   60.2080 C.2     8  TYR8        0.2619
     32  O        -21.1110   -7.6280   60.6970 O.2     8  TYR8       -0.2715
     33  CB       -20.0120   -5.2380   62.0280 C.3     8  TYR8        0.0574
     34  CG       -18.7260   -5.4540   61.2820 C.ar    8  TYR8       -0.0198
     35  CD1      -18.3560   -4.6090   60.2400 C.ar    8  TYR8       -0.0009
     36  CD2      -17.8770   -6.5010   61.6150 C.ar    8  TYR8       -0.0009
     37  CE1      -17.1690   -4.8020   59.5520 C.ar    8  TYR8        0.0417
     38  CE2      -16.6990   -6.7070   60.9340 C.ar    8  TYR8        0.0417
     39  CZ       -16.3510   -5.8620   59.8980 C.ar    8  TYR8        0.1957
     40  OH       -15.1680   -6.0660   59.2220 O.3     8  TYR8       -0.2866
     41  N        -21.2440   -6.2830   58.8990 N.am    9  VAL9       -0.1964
     42  CA       -21.0710   -7.3280   57.9020 C.3     9  VAL9        0.1712
     43  C        -20.3260   -6.6960   56.7460 C.2     9  VAL9        0.2458
     44  O        -20.8530   -5.7970   56.0880 O.2     9  VAL9       -0.2730
     45  CB       -22.4350   -7.8750   57.3870 C.3     9  VAL9        0.0289
     46  CG1      -22.2230   -8.8450   56.2200 C.3     9  VAL9        0.0023
     47  CG2      -23.1990   -8.5540   58.5050 C.3     9  VAL9        0.0023
     48  N        -19.0830   -7.1370   56.5020 N.am   10  PRO10      -0.2716
     49  CA       -18.2580   -6.3940   55.5510 C.3    10  PRO10       0.1536
     50  C        -18.4470   -6.8320   54.1130 C.2    10  PRO10       0.2599
     51  O        -18.8650   -7.9530   53.8350 O.2    10  PRO10      -0.2715
     52  CB       -16.8210   -6.7000   56.0150 C.3    10  PRO10       0.0310
     53  CG       -16.9280   -8.0660   56.6500 C.3    10  PRO10       0.0237
     54  CD       -18.3040   -8.1180   57.2840 C.3    10  PRO10       0.0939
     55  N        -18.1280   -5.9240   53.2040 N.am   11  THR11      -0.1951
     56  CA       -18.1210   -6.2220   51.7870 C.3    11  THR11       0.1897
     57  C        -16.8520   -7.0050   51.4600 C.2    11  THR11       0.2313
     58  O        -15.7700   -6.6140   51.8810 O.2    11  THR11      -0.2863
     59  CB       -18.1410   -4.9100   50.9820 C.3    11  THR11       0.1794
     60  OG1      -19.2850   -4.1260   51.3660 O.3    11  THR11      -0.2208
     61  CG2      -18.2030   -5.1880   49.4930 C.3    11  THR11       0.0378
     62  N        -17.2110    6.5030   52.9270 N.3    33  ASP33      -0.1225
     63  CA       -17.9020    5.2400   53.1810 C.3    33  ASP33       0.1805
     64  C        -18.8160    5.4620   54.3790 C.2    33  ASP33       0.2598
     65  O        -18.3270    5.7830   55.4630 O.2    33  ASP33      -0.2718
     66  CB       -16.8840    4.1120   53.4570 C.3    33  ASP33       0.1424
     67  CG       -17.5480    2.7400   53.5800 C.2    33  ASP33       0.3668
     68  OD1      -18.6780    2.5770   53.0670 O.co2  33  ASP33      -0.2456
     69  OD2      -16.9410    1.8310   54.1840 O.co2  33  ASP33      -0.2456
     70  N        -20.1370    5.3410   54.1860 N.am   34  LEU34      -0.1966
     71  CA       -21.0850    5.5160   55.2890 C.3    34  LEU34       0.1728
     72  C        -21.3030    4.2220   56.0540 C.2    34  LEU34       0.2617
     73  O        -21.9420    3.2950   55.5450 O.2    34  LEU34      -0.2715
     74  CB       -22.4390    6.0080   54.7860 C.3    34  LEU34       0.0311
     75  CG       -22.4720    7.2380   53.8840 C.3    34  LEU34       0.0022
     76  CD1      -23.9130    7.4910   53.4450 C.3    34  LEU34       0.0001
     77  CD2      -21.9000    8.4390   54.6000 C.3    34  LEU34       0.0001
     78  N        -20.8190    4.1860   57.2920 N.am   35  GLY35      -0.1940
     79  CA       -20.7460    2.9550   58.0570 C.3    35  GLY35       0.2014
     80  C        -19.5460    2.1540   57.5940 C.2    35  GLY35       0.2639
     81  O        -19.7150    1.1420   56.9270 O.2    35  GLY35      -0.2714
     82  N        -18.3340    2.5990   57.9380 N.am   36  CYS36      -0.1953
     83  CA       -17.1190    2.0490   57.3230 C.3    36  CYS36       0.1843
     84  C        -16.5980    0.7090   57.8330 C.2    36  CYS36       0.2626
     85  O        -15.7430    0.1050   57.1820 O.2    36  CYS36      -0.2714
     86  CB       -15.9710    3.0740   57.3190 C.3    36  CYS36       0.0997
     87  SG       -15.2880    3.5460   58.9300 S.3    36  CYS36      -0.0797
     88  N        -17.0660    0.2560   58.9910 N.am   37  GLY37      -0.1940
     89  CA       -16.6680   -1.0520   59.4950 C.3    37  GLY37       0.2014
     90  C        -15.1740   -1.1140   59.7980 C.2    37  GLY37       0.2638
     91  O        -14.6610   -0.2740   60.5420 O.2    37  GLY37      -0.2714
     92  N        -14.4740   -2.0920   59.2270 N.am   38  ASP38      -0.1971
     93  CA       -13.0290   -2.2270   59.4650 C.3    38  ASP38       0.1709
     94  C        -12.1770   -1.2930   58.6050 C.2    38  ASP38       0.2293
     95  O        -10.9540   -1.4200   58.5770 O.2    38  ASP38      -0.2864
     96  CB       -12.5640   -3.6860   59.3320 C.3    38  ASP38       0.1436
     97  CG       -12.5330   -4.1750   57.8900 C.2    38  ASP38       0.3671
     98  OD1      -12.9770   -3.4520   56.9710 O.co2  38  ASP38      -0.2456
     99  OD2      -12.0660   -5.3110   57.6670 O.co2  38  ASP38      -0.2456
    100  N        -12.1580   -1.0900   55.3030 N.3    40  ARG40      -0.1231
    101  CA       -11.5970   -1.6630   54.0730 C.3    40  ARG40       0.1694
    102  C        -11.8350   -0.8440   52.8000 C.2    40  ARG40       0.2591
    103  O        -10.9770   -0.8030   51.9200 O.2    40  ARG40      -0.2718
    104  CB       -12.0730   -3.0950   53.8640 C.3    40  ARG40       0.0321
    105  CG       -13.5830   -3.2130   53.7040 C.3    40  ARG40       0.0489
    106  CD       -13.9170   -4.6630   53.5060 C.3    40  ARG40       0.2205
    107  NE       -13.5920   -5.4080   54.7100 N.pl3  40  ARG40      -0.0865
    108  CZ       -13.5090   -6.7270   54.7780 C.cat  40  ARG40       0.5346
    109  NH1      -13.7170   -7.4670   53.6950 N.pl3  40  ARG40       0.1354
    110  NH2      -13.1890   -7.3040   55.9310 N.pl3  40  ARG40       0.1354
    111  N        -12.9930   -0.1950   52.6840 N.am   41  ILE41      -0.1980
    112  CA       -13.2740    0.5610   51.4670 C.3    41  ILE41       0.1595
    113  C        -12.4240    1.8320   51.3400 C.2    41  ILE41       0.2287
    114  O        -11.9230    2.1570   50.2630 O.2    41  ILE41      -0.2864
    115  CB       -14.7880    0.9230   51.3510 C.3    41  ILE41       0.0276
    116  CG1      -15.6350   -0.3430   51.4250 C.3    41  ILE41       0.0022
    117  CG2      -15.0680    1.6360   50.0430 C.3    41  ILE41       0.0022
    118  CD1      -17.1220   -0.0840   51.2290 C.3    41  ILE41       0.0001
    119  N        -17.2420    6.9030   58.0390 N.3    57  VAL57      -0.1231
    120  CA       -18.0370    7.2980   59.1830 C.3    57  VAL57       0.1692
    121  C        -18.4780    6.0340   59.9060 C.2    57  VAL57       0.2592
    122  O        -18.9900    5.1090   59.2920 O.2    57  VAL57      -0.2718
    123  CB       -19.2580    8.1250   58.7570 C.3    57  VAL57       0.0266
    124  CG1      -19.9050    8.7640   59.9790 C.3    57  VAL57       0.0020
    125  CG2      -18.8560    9.1830   57.7360 C.3    57  VAL57       0.0020
    126  N        -18.2820    5.9860   61.2120 N.am   58  GLU58      -0.1966
    127  CA       -18.5730    4.7640   61.9390 C.3    58  GLU58       0.1733
    128  C        -18.9720    5.1180   63.3620 C.2    58  GLU58       0.2616
    129  O        -18.4230    6.0460   63.9590 O.2    58  GLU58      -0.2715
    130  CB       -17.3590    3.8180   61.8930 C.3    58  GLU58       0.0429
    131  CG       -17.4640    2.6050   62.8010 C.3    58  GLU58       0.1163
    132  CD       -18.6620    1.7240   62.4840 C.2    58  GLU58       0.3649
    133  OE1      -18.7250    1.1900   61.3560 O.co2  58  GLU58      -0.2457
    134  OE2      -19.5470    1.5770   63.3630 O.co2  58  GLU58      -0.2457
    135  N        -19.9350    4.3870   63.8980 N.am   59  ILE59      -0.1963
    136  CA       -20.4950    4.7250   65.1920 C.3    59  ILE59       0.1727
    137  C        -20.0910    3.7130   66.2630 C.2    59  ILE59       0.2616
    138  O        -20.1220    4.0050   67.4570 O.2    59  ILE59      -0.2715
    139  CB       -22.0290    4.8410   65.1110 C.3    59  ILE59       0.0290
    140  CG1      -22.5730    5.4960   66.3810 C.3    59  ILE59       0.0022
    141  CG2      -22.6630    3.4630   64.8520 C.3    59  ILE59       0.0023
    142  CD1      -24.0520    5.8140   66.3430 C.3    59  ILE59       0.0001
    143  N        -19.6880    2.5230   65.8410 N.am   60  ASN60      -0.1972
    144  CA       -19.3030    1.5010   66.8020 C.3    60  ASN60       0.1688
    145  C        -17.8140    1.6120   67.1930 C.2    60  ASN60       0.2292
    146  O        -16.9280    1.6260   66.3220 O.2    60  ASN60      -0.2864
    147  CB       -19.6430    0.1130   66.2640 C.3    60  ASN60       0.1181
    148  CG       -19.1840   -0.9970   67.1900 C.2    60  ASN60       0.2629
    149  OD1      -17.9960   -1.3010   67.2640 O.2    60  ASN60      -0.2716
    150  ND2      -20.1210   -1.6100   67.8920 N.am   60  ASN60      -0.0877
    151  N        -15.3170   -1.0230   66.1640 N.3    63  ARG63      -0.1245
    152  CA       -15.0600   -0.9450   64.7280 C.3    63  ARG63       0.1563
    153  C        -14.1260    0.2120   64.3840 C.2    63  ARG63       0.2260
    154  O        -13.2650    0.0770   63.5140 O.2    63  ARG63      -0.2867
    155  CB       -16.3660   -0.8290   63.9260 C.3    63  ARG63       0.0307
    156  CG       -17.3300   -2.0260   64.0310 C.3    63  ARG63       0.0489
    157  CD       -16.8940   -3.2470   63.2160 C.3    63  ARG63       0.2205
    158  NE       -15.7080   -3.9010   63.7650 N.pl3  63  ARG63      -0.0865
    159  CZ       -15.7140   -4.7760   64.7690 C.cat  63  ARG63       0.5346
    160  NH1      -14.5690   -5.3020   65.1870 N.pl3  63  ARG63       0.1354
    161  NH2      -16.8550   -5.1230   65.3580 N.pl3  63  ARG63       0.1354
    162  N        -19.1400    8.9010   64.5000 N.3    85  GLY85      -0.1210
    163  CA       -20.4530    9.4970   64.5820 C.3    85  GLY85       0.1956
    164  C        -21.5160    8.7290   63.8430 C.2    85  GLY85       0.2612
    165  O        -21.2590    7.6900   63.2380 O.2    85  GLY85      -0.2717
    166  N        -22.7280    9.2610   63.9260 N.am   86  ASN86      -0.1960
    167  CA       -23.8820    8.7480   63.2170 C.3    86  ASN86       0.1819
    168  C        -23.8110    9.2920   61.7930 C.2    86  ASN86       0.2621
    169  O        -23.7700   10.5090   61.6080 O.2    86  ASN86      -0.2715
    170  CB       -25.1330    9.2770   63.9310 C.3    86  ASN86       0.1195
    171  CG       -26.4320    8.7270   63.3760 C.2    86  ASN86       0.2630
    172  OD1      -26.4770    8.1000   62.3160 O.2    86  ASN86      -0.2716
    173  ND2      -27.5160    8.9820   64.1010 N.am   86  ASN86      -0.0877
    174  N        -23.7950    8.4170   60.7870 N.am   87  PHE87      -0.1960
    175  CA       -23.7270    8.9200   59.4140 C.3    87  PHE87       0.1771
    176  C        -24.9210    9.7690   58.9880 C.2    87  PHE87       0.2619
    177  O        -24.8260   10.5290   58.0220 O.2    87  PHE87      -0.2715
    178  CB       -23.3690    7.8490   58.3600 C.3    87  PHE87       0.0574
    179  CG       -24.2960    6.6680   58.2970 C.ar   87  PHE87      -0.0200
    180  CD1      -25.6550    6.8210   58.0550 C.ar   87  PHE87      -0.0042
    181  CD2      -23.7840    5.3830   58.4060 C.ar   87  PHE87      -0.0042
    182  CE1      -26.4790    5.7220   57.9690 C.ar   87  PHE87      -0.0003
    183  CE2      -24.6090    4.2820   58.3160 C.ar   87  PHE87      -0.0003
    184  CZ       -25.9570    4.4480   58.1010 C.ar   87  PHE87      -0.0000
    185  N        -26.0320    9.6580   59.7120 N.am   88  PHE88      -0.1974
    186  CA       -27.1690   10.5330   59.4500 C.3    88  PHE88       0.1639
    187  C        -26.8870   11.9960   59.8010 C.2    88  PHE88       0.2290
    188  O        -27.5450   12.8920   59.2830 O.2    88  PHE88      -0.2864
    189  CB       -28.4100   10.0540   60.2000 C.3    88  PHE88       0.0560
    190  CG       -29.0620    8.8600   59.5820 C.ar   88  PHE88      -0.0200
    191  CD1      -29.9370    9.0100   58.5090 C.ar   88  PHE88      -0.0042
    192  CD2      -28.8260    7.5890   60.0780 C.ar   88  PHE88      -0.0042
    193  CE1      -30.5550    7.9110   57.9370 C.ar   88  PHE88      -0.0003
    194  CE2      -29.4380    6.4870   59.5080 C.ar   88  PHE88      -0.0003
    195  CZ       -30.3090    6.6500   58.4390 C.ar   88  PHE88      -0.0000
    196  N        -22.9160   -0.0170   52.1810 N.3   101  PHE101     -0.1227
    197  CA       -23.3660   -1.4030   52.2910 C.3   101  PHE101      0.1736
    198  C        -24.1940   -1.5030   53.5550 C.2   101  PHE101      0.2595
    199  O        -23.6910   -1.8810   54.6200 O.2   101  PHE101     -0.2718
    200  CB       -22.1930   -2.3930   52.3350 C.3   101  PHE101      0.0547
    201  CG       -22.6200   -3.8560   52.3430 C.ar  101  PHE101     -0.0202
    202  CD1      -23.7700   -4.2700   51.6870 C.ar  101  PHE101     -0.0042
    203  CD2      -21.8650   -4.8060   53.0030 C.ar  101  PHE101     -0.0042
    204  CE1      -24.1620   -5.5970   51.7040 C.ar  101  PHE101     -0.0003
    205  CE2      -22.2400   -6.1430   53.0080 C.ar  101  PHE101     -0.0003
    206  CZ       -23.3930   -6.5350   52.3630 C.ar  101  PHE101     -0.0000
    207  N        -25.4780   -1.1590   53.4300 N.am  102  LEU102     -0.1980
    208  CA       -26.3350   -0.9520   54.5890 C.3   102  LEU102      0.1596
    209  C        -27.5380   -1.8920   54.5940 C.2   102  LEU102      0.2287
    210  O        -27.4190   -3.0560   54.9820 O.2   102  LEU102     -0.2864
    211  CB       -26.7940    0.5070   54.6230 C.3   102  LEU102      0.0297
    212  CG       -25.6670    1.5360   54.6970 C.3   102  LEU102      0.0022
    213  CD1      -26.2440    2.9230   54.6220 C.3   102  LEU102      0.0001
    214  CD2      -24.8230    1.3770   55.9620 C.3   102  LEU102      0.0001
@<TRIPOS>BOND
     1    61    59    1
     2   117   115    1
     3   114   113    2
     4    59    60    1
     5    59    56    1
     6   118   116    1
     7   113   112    1
     8   115   116    1
     9   115   112    1
    10    57    56    1
    11    57    58    2
    12   112   111    1
    13   202   204   ar
    14   202   201   ar
    15   204   206   ar
    16    56    55    1
    17   103   102    2
    18   196   197    1
    19   197   200    1
    20   197   198    1
    21   200   201    1
    22   201   203   ar
    23   206   205   ar
    24   111   102   am
    25   102   101    1
    26    62    63    1
    27   203   205   ar
    28    68    67   ar
    29    63    66    1
    30    63    64    1
    31    55    50   am
    32   207   198   am
    33   207   208    1
    34    76    75    1
    35    66    67    1
    36   106   105    1
    37   106   107    1
    38   198   199    2
    39    67    69   ar
    40   109   108    1
    41   105   104    1
    42    51    50    2
    43   104   101    1
    44    75    77    1
    45    75    74    1
    46   101   100    1
    47    50    49    1
    48    70    64   am
    49    70    71    1
    50    64    65    2
    51   208   209    1
    52   208   211    1
    53   209   210    2
    54   213   212    1
    55   211   212    1
    56   212   214    1
    57   107   108    2
    58   108   110    1
    59    74    71    1
    60    71    72    1
    61    73    72    2
    62    49    52    1
    63    49    48    1
    64    52    53    1
    65    72    78   am
    66    44    43    2
    67    46    45    1
    68    48    43   am
    69    48    54    1
    70    53    54    1
    71    43    42    1
    72    81    80    2
    73    98    97   ar
    74    85    84    2
    75    78    79    1
    76    86    83    1
    77    86    87    1
    78    83    84    1
    79    83    82    1
    80    45    42    1
    81    45    47    1
    82    80    82   am
    83    80    79    1
    84    99    97   ar
    85   125   123    1
    86    84    88   am
    87    97    96    1
    88    42    41    1
    89   193   195   ar
    90   193   191   ar
    91   182   180   ar
    92   182   184   ar
    93   177   176    2
    94   119   120    1
    95   180   179   ar
    96   184   183   ar
    97   179   178    1
    98   179   181   ar
    99   183   181   ar
   100   178   175    1
   101   195   194   ar
   102   191   190   ar
   103    95    94    2
   104    94    93    1
   105    20    19    1
   106   123   120    1
   107   123   124    1
   108    41    31   am
   109   176   175    1
   110   176   185   am
   111    88    89    1
   112   120   121    1
   113    40    39    1
   114    92    93    1
   115    92    90   am
   116   188   187    2
   117   122   121    2
   118    96    93    1
   119   175   174    1
   120    21    19    1
   121   186   185    1
   122   186   187    1
   123   186   189    1
   124    89    90    1
   125   194   192   ar
   126    37    39   ar
   127    37    35   ar
   128   190   192   ar
   129   190   189    1
   130    90    91    2
   131    19    16    1
   132    39    38   ar
   133   121   126   am
   134    25    24    2
   135    31    32    2
   136    31    30    1
   137    35    34   ar
   138    16    17    1
   139    16    15    1
   140   174   168   am
   141    28    27    1
   142    28    22    1
   143    38    36   ar
   144    27    26    1
   145    30    29    1
   146    30    33    1
   147   126   127    1
   148    17    22   am
   149    17    18    2
   150    24    29   am
   151    24    23    1
   152    12    13    1
   153    12     9    1
   154    13    14    1
   155    34    36   ar
   156    34    33    1
   157    22    23    1
   158   133   132   ar
   159   169   168    2
   160   168   167    1
   161   130   127    1
   162   130   131    1
   163   127   128    1
   164    23    26    1
   165    14     8    1
   166   172   171    2
   167   132   131    1
   168   132   134   ar
   169    11    10    2
   170    10     9    1
   171     9     8    1
   172     8     3   am
   173   157   158    1
   174   157   156    1
   175   167   166    1
   176   167   170    1
   177   165   164    2
   178   128   135   am
   179   128   129    2
   180   171   170    1
   181   171   173   am
   182   154   153    2
   183   158   159    2
   184   164   166   am
   185   164   163    1
   186   135   136    1
   187   155   156    1
   188   155   152    1
   189   153   152    1
   190     5     7    1
   191     5     6    1
   192     5     2    1
   193     3     2    1
   194     3     4    2
   195   162   163    1
   196   152   151    1
   197   159   160    1
   198   159   161    1
   199   141   139    1
   200     2     1    1
   201   139   136    1
   202   139   140    1
   203   136   137    1
   204   143   137   am
   205   143   144    1
   206   137   138    2
   207   147   144    1
   208   147   148    1
   209   146   145    2
   210   142   140    1
   211   144   145    1
   212   148   149    2
   213   148   150   am
