@<TRIPOS>MOLECULE
tmp/5faeA00.pdb
 102 101 0 0 0
SMALL
GASTEIGER

@<TRIPOS>ATOM
      1  N        -11.0490   20.3050   -3.2170 N.3    31  TRP31      -0.1241
      2  CA       -11.5840   21.6530   -2.9550 C.3    31  TRP31       0.1605
      3  C        -10.9770   22.7160   -3.9050 C.2    31  TRP31       0.2264
      4  O        -11.6270   23.7360   -4.2120 O.2    31  TRP31      -0.2867
      5  CB       -11.3290   22.0930   -1.4990 C.3    31  TRP31       0.0550
      6  CG       -12.1830   21.3830   -0.4030 C.ar   31  TRP31       0.0003
      7  CD1      -11.6960   20.6890    0.6940 C.ar   31  TRP31       0.0946
      8  CD2      -13.6180   21.3780   -0.2540 C.ar   31  TRP31       0.0152
      9  NE1      -12.7230   20.2510    1.4800 N.ar   31  TRP31      -0.2442
     10  CE2      -13.9120   20.6260    0.9110 C.ar   31  TRP31       0.0810
     11  CE3      -14.6770   21.8970   -1.0040 C.ar   31  TRP31       0.0012
     12  CZ2      -15.2300   20.3980    1.3600 C.ar   31  TRP31       0.0191
     13  CZ3      -15.9750   21.6530   -0.5760 C.ar   31  TRP31       0.0001
     14  CH2      -16.2400   20.9260    0.6130 C.ar   31  TRP31       0.0015
     15  N        -13.2440   23.8980   -6.7060 N.3    34  PHE34      -0.1227
     16  CA       -14.5200   24.5990   -6.4200 C.3    34  PHE34       0.1736
     17  C        -14.3570   26.1030   -6.6560 C.2    34  PHE34       0.2595
     18  O        -13.3200   26.6630   -6.4270 O.2    34  PHE34      -0.2718
     19  CB       -15.0030   24.3800   -4.9640 C.3    34  PHE34       0.0547
     20  CG       -15.6580   23.0560   -4.7600 C.ar   34  PHE34      -0.0202
     21  CD1      -14.9490   21.8910   -4.9010 C.ar   34  PHE34      -0.0042
     22  CD2      -17.0050   22.9750   -4.4000 C.ar   34  PHE34      -0.0042
     23  CE1      -15.5950   20.6100   -4.6920 C.ar   34  PHE34      -0.0003
     24  CE2      -17.6360   21.7060   -4.1920 C.ar   34  PHE34      -0.0003
     25  CZ       -16.9290   20.5440   -4.3220 C.ar   34  PHE34      -0.0000
     26  N        -15.4080   26.7310   -7.1430 N.am   35  LYS35      -0.1966
     27  CA       -15.4500   28.1670   -7.3960 C.3    35  LYS35       0.1728
     28  C        -16.7610   28.6480   -6.8730 C.2    35  LYS35       0.2616
     29  O        -17.7390   27.9520   -7.0950 O.2    35  LYS35      -0.2715
     30  CB       -15.3800   28.4890   -8.8880 C.3    35  LYS35       0.0311
     31  CG       -14.3900   27.6790   -9.6680 C.3    35  LYS35       0.0038
     32  CD       -12.9970   28.1440   -9.4140 C.3    35  LYS35       0.0206
     33  CE       -12.1330   27.9870  -10.6460 C.3    35  LYS35       0.1093
     34  NZ       -11.1550   29.0960  -10.6320 N.3    35  LYS35      -0.1314
     35  N        -16.8080   29.8310   -6.2610 N.am   36  ASN36      -0.1972
     36  CA       -18.0460   30.3810   -5.6870 C.3    36  ASN36       0.1688
     37  C        -19.0710   30.8030   -6.7510 C.2    36  ASN36       0.2292
     38  O        -20.2250   31.0580   -6.4560 O.2    36  ASN36      -0.2864
     39  CB       -17.7120   31.5740   -4.7670 C.3    36  ASN36       0.1181
     40  CG       -16.9300   31.1580   -3.5380 C.2    36  ASN36       0.2629
     41  OD1      -17.1140   30.0500   -3.0080 O.2    36  ASN36      -0.2716
     42  ND2      -16.0600   32.0450   -3.0620 N.am   36  ASN36      -0.0877
     43  N        -23.5790   20.9310   -5.0470 N.3    51  TRP51      -0.1241
     44  CA       -23.1450   22.1440   -4.3170 C.3    51  TRP51       0.1605
     45  C        -23.1930   23.3380   -5.2540 C.2    51  TRP51       0.2264
     46  O        -22.5990   23.2760   -6.3500 O.2    51  TRP51      -0.2867
     47  CB       -21.7490   21.9040   -3.8450 C.3    51  TRP51       0.0550
     48  CG       -21.0720   22.9710   -3.0120 C.ar   51  TRP51       0.0003
     49  CD1      -20.9710   23.0170   -1.6310 C.ar   51  TRP51       0.0946
     50  CD2      -20.4000   24.1570   -3.5030 C.ar   51  TRP51       0.0152
     51  NE1      -20.2360   24.1200   -1.2540 N.ar   51  TRP51      -0.2442
     52  CE2      -19.8980   24.8420   -2.3830 C.ar   51  TRP51       0.0810
     53  CE3      -20.1810   24.7040   -4.7980 C.ar   51  TRP51       0.0012
     54  CZ2      -19.1810   26.0580   -2.4810 C.ar   51  TRP51       0.0191
     55  CZ3      -19.4290   25.9360   -4.8800 C.ar   51  TRP51       0.0001
     56  CH2      -18.9580   26.5660   -3.7580 C.ar   51  TRP51       0.0015
     57  N        -22.5260   26.6780   -0.3560 N.3    87  GLU87      -0.1231
     58  CA       -21.4230   27.2510    0.2960 C.3    87  GLU87       0.1699
     59  C        -21.7360   27.5030    1.7690 C.2    87  GLU87       0.2592
     60  O        -22.6410   28.2780    2.0910 O.2    87  GLU87      -0.2718
     61  CB       -21.0970   28.5330   -0.4640 C.3    87  GLU87       0.0402
     62  CG       -19.8120   29.1870   -0.1340 C.3    87  GLU87       0.1161
     63  CD       -19.6160   30.3960   -1.0280 C.2    87  GLU87       0.3649
     64  OE1      -20.0640   30.3280   -2.2080 O.co2  87  GLU87      -0.2457
     65  OE2      -19.0400   31.4070   -0.5450 O.co2  87  GLU87      -0.2457
     66  N        -21.0400   26.8070    2.6690 N.am   88  GLY88      -0.1957
     67  CA       -21.2230   26.9750    4.0890 C.3    88  GLY88       0.1869
     68  C        -22.1660   26.0030    4.7860 C.2    88  GLY88       0.2309
     69  O        -22.3330   26.0760    5.9830 O.2    88  GLY88      -0.2863
     70  N        -21.9880   22.5880    3.8080 N.3    90  GLU90      -0.1245
     71  CA       -21.5140   21.2790    3.3120 C.3    90  GLU90       0.1567
     72  C        -21.6400   20.2080    4.3660 C.2    90  GLU90       0.2260
     73  O        -21.3060   20.4490    5.5430 O.2    90  GLU90      -0.2867
     74  CB       -20.0630   21.3710    2.8730 C.3    90  GLU90       0.0388
     75  CG       -19.8220   22.4310    1.7540 C.3    90  GLU90       0.1160
     76  CD       -19.5840   23.8500    2.2310 C.2    90  GLU90       0.3649
     77  OE1      -19.2220   24.6550    1.3420 O.co2  90  GLU90      -0.2457
     78  OE2      -19.7550   24.2230    3.4400 O.co2  90  GLU90      -0.2457
     79  N        -11.9640   22.1150    4.7540 N.3   101  LYS101     -0.1231
     80  CA       -12.3640   23.1460    3.7800 C.3   101  LYS101      0.1678
     81  C        -11.3390   24.2540    3.6670 C.2   101  LYS101      0.2434
     82  O        -10.6570   24.5780    4.6430 O.2   101  LYS101     -0.2733
     83  CB       -13.6890   23.8030    4.1440 C.3   101  LYS101      0.0284
     84  CG       -14.8460   22.8870    4.0250 C.3   101  LYS101      0.0035
     85  CD       -16.1700   23.6570    4.1540 C.3   101  LYS101      0.0206
     86  CE       -16.3240   24.3960    5.4880 C.3   101  LYS101      0.1093
     87  NZ       -17.7790   24.7750    5.6370 N.3   101  LYS101     -0.1314
     88  N        -11.2710   24.8860    2.4930 N.am  102  PRO102     -0.2729
     89  CA       -10.5820   26.1750    2.3650 C.3   102  PRO102      0.1401
     90  C        -11.1510   27.1820    3.4070 C.2   102  PRO102      0.2269
     91  O        -12.3650   27.2970    3.5270 O.2   102  PRO102     -0.2865
     92  CB       -10.8900   26.6180    0.9290 C.3   102  PRO102      0.0296
     93  CG       -11.3590   25.3690    0.2290 C.3   102  PRO102      0.0237
     94  CD       -11.9420   24.4580    1.2390 C.3   102  PRO102      0.0939
     95  N        -12.3080   30.7010    5.1290 N.3   104  LEU104     -0.1245
     96  CA       -12.9550   31.8420    4.5120 C.3   104  LEU104      0.1561
     97  C        -12.0730   33.0810    4.6240 C.2   104  LEU104      0.2260
     98  O        -11.3760   33.2240    5.6190 O.2   104  LEU104     -0.2867
     99  CB       -14.2950   32.1010    5.1660 C.3   104  LEU104      0.0270
    100  CG       -15.2390   30.8870    5.1420 C.3   104  LEU104      0.0019
    101  CD1      -16.6080   31.3550    5.6400 C.3   104  LEU104      0.0001
    102  CD2      -15.3110   30.2270    3.7530 C.3   104  LEU104      0.0001
@<TRIPOS>BOND
     1    33    34    1
     2    33    32    1
     3    31    32    1
     4    31    30    1
     5    30    27    1
     6    27    26    1
     7    27    28    1
     8    26    17   am
     9    29    28    2
    10    28    35   am
    11    37    38    2
    12    37    36    1
    13    15    16    1
    14    17    18    2
    15    17    16    1
    16    16    19    1
    17    46    45    2
    18    35    36    1
    19    36    39    1
    20    45    44    1
    21    43    44    1
    22    19    20    1
    23    21    20   ar
    24    21    23   ar
    25    55    53   ar
    26    55    56   ar
    27    53    50   ar
    28    39    40    1
    29    20    22   ar
    30    23    25   ar
    31    22    24   ar
    32    25    24   ar
    33    44    47    1
    34     4     3    2
    35     3     2    1
    36    47    48    1
    37    56    54   ar
    38    40    42   am
    39    40    41    2
    40    50    48   ar
    41    50    52   ar
    42     1     2    1
    43    48    49   ar
    44     2     5    1
    45    54    52   ar
    46    52    51   ar
    47    64    63   ar
    48    49    51   ar
    49     5     6    1
    50    63    65   ar
    51    63    62    1
    52    11    13   ar
    53    11     8   ar
    54    13    14   ar
    55    61    62    1
    56    61    58    1
    57     6     8   ar
    58     6     7   ar
    59    57    58    1
    60     8    10   ar
    61    93    92    1
    62    93    94    1
    63    58    59    1
    64    14    12   ar
    65     7     9   ar
    66    10    12   ar
    67    10     9   ar
    68    92    89    1
    69    94    88    1
    70    77    76   ar
    71    75    76    1
    72    75    74    1
    73    59    60    2
    74    59    66   am
    75    76    78   ar
    76    89    88    1
    77    89    90    1
    78    88    81   am
    79    66    67    1
    80    74    71    1
    81    71    70    1
    82    71    72    1
    83    90    91    2
    84    81    80    1
    85    81    82    2
    86   102   100    1
    87    80    83    1
    88    80    79    1
    89    84    83    1
    90    84    85    1
    91    67    68    1
    92    85    86    1
    93    72    73    2
    94    96    97    1
    95    96    95    1
    96    96    99    1
    97    97    98    2
    98    68    69    2
    99   100    99    1
   100   100   101    1
   101    86    87    1
