@<TRIPOS>MOLECULE
tmp/5fagA00.pdb
 133 130 0 0 0
SMALL
GASTEIGER

@<TRIPOS>ATOM
      1  N          7.5910    5.0630   29.2560 N.3    43  VAL43      -0.1245
      2  CA         7.5220    4.7370   30.6910 C.3    43  VAL43       0.1561
      3  C          8.8330    5.1010   31.3310 C.2    43  VAL43       0.2260
      4  O          9.8700    4.4810   31.0700 O.2    43  VAL43      -0.2867
      5  CB         7.1970    3.2720   30.8970 C.3    43  VAL43       0.0252
      6  CG1        7.1030    2.9220   32.3880 C.3    43  VAL43       0.0019
      7  CG2        5.8680    2.8620   30.2100 C.3    43  VAL43       0.0019
      8  N          9.1670    5.7880   34.8300 N.3    45  LYS45      -0.1245
      9  CA         9.1250    5.5570   36.2790 C.3    45  LYS45       0.1561
     10  C         10.4870    5.0710   36.7540 C.2    45  LYS45       0.2260
     11  O         11.3050    4.5680   35.9640 O.2    45  LYS45      -0.2867
     12  CB         8.0650    4.5560   36.6330 C.3    45  LYS45       0.0271
     13  CG         8.2980    3.1430   36.1500 C.3    45  LYS45       0.0035
     14  CD         7.0910    2.2560   36.2100 C.3    45  LYS45       0.0206
     15  CE         7.4860    0.8050   35.9710 C.3    45  LYS45       0.1093
     16  NZ         6.3170    0.0190   35.5650 N.3    45  LYS45      -0.1314
     17  N         13.9320    3.7470   34.8280 N.3    49  TYR49      -0.1241
     18  CA        14.5220    2.4320   34.9690 C.3    49  TYR49       0.1605
     19  C         16.0410    2.5530   35.2250 C.2    49  TYR49       0.2264
     20  O         16.8710    1.7860   34.7170 O.2    49  TYR49      -0.2867
     21  CB        14.2950    1.4800   33.7920 C.3    49  TYR49       0.0534
     22  CG        12.9070    0.9790   33.5350 C.ar   49  TYR49      -0.0201
     23  CD1       11.8090    1.7330   33.8380 C.ar   49  TYR49      -0.0009
     24  CD2       12.7150   -0.2610   32.9470 C.ar   49  TYR49      -0.0009
     25  CE1       10.5140    1.2440   33.5570 C.ar   49  TYR49       0.0417
     26  CE2       11.4590   -0.7560   32.6830 C.ar   49  TYR49       0.0417
     27  CZ        10.3630    0.0210   32.9350 C.ar   49  TYR49       0.1957
     28  OH         9.0940   -0.5240   32.6600 O.3    49  TYR49      -0.2866
     29  N          0.1040    6.3560   38.2130 N.3    95  TRP95      -0.1241
     30  CA        -0.8080    5.3290   38.6430 C.3    95  TRP95       0.1605
     31  C         -0.6510    4.8220   40.0610 C.2    95  TRP95       0.2264
     32  O         -1.5950    4.1630   40.5630 O.2    95  TRP95      -0.2867
     33  CB        -0.7970    4.1770   37.6880 C.3    95  TRP95       0.0550
     34  CG         0.5980    3.6770   37.2790 C.ar   95  TRP95       0.0003
     35  CD1        1.4120    2.8760   38.0480 C.ar   95  TRP95       0.0946
     36  CD2        1.2600    3.8630   36.0070 C.ar   95  TRP95       0.0152
     37  NE1        2.5810    2.6170   37.3330 N.ar   95  TRP95      -0.2442
     38  CE2        2.5120    3.1970   36.0850 C.ar   95  TRP95       0.0810
     39  CE3        0.9580    4.5970   34.8250 C.ar   95  TRP95       0.0012
     40  CZ2        3.4580    3.1690   34.9750 C.ar   95  TRP95       0.0191
     41  CZ3        1.8940    4.5760   33.7150 C.ar   95  TRP95       0.0001
     42  CH2        3.1450    3.8590   33.8240 C.ar   95  TRP95       0.0015
     43  N         -3.0830   -7.3060   40.6140 N.3   146  ARG146     -0.1245
     44  CA        -2.2700   -6.3130   41.3170 C.3   146  ARG146      0.1563
     45  C         -3.1200   -5.0790   41.4500 C.2   146  ARG146      0.2260
     46  O         -4.0740   -5.0830   42.2350 O.2   146  ARG146     -0.2867
     47  CB        -0.9140   -6.1160   40.6000 C.3   146  ARG146      0.0307
     48  CG         0.0920   -7.2100   40.8090 C.3   146  ARG146      0.0489
     49  CD         1.4880   -6.6440   41.1500 C.3   146  ARG146      0.2205
     50  NE         1.9640   -5.7120   40.1270 N.pl3 146  ARG146     -0.0865
     51  CZ         2.6560   -6.0720   39.0320 C.cat 146  ARG146      0.5346
     52  NH1        2.9990   -7.3590   38.8140 N.pl3 146  ARG146      0.1354
     53  NH2        2.9650   -5.1170   38.1200 N.pl3 146  ARG146      0.1354
     54  N         -7.6470    1.0570   31.0680 N.3   177  TRP177     -0.1241
     55  CA        -6.3970    0.3170   30.9060 C.3   177  TRP177      0.1605
     56  C         -6.2150   -0.8200   31.7980 C.2   177  TRP177      0.2264
     57  O         -6.9510   -1.0390   32.7650 O.2   177  TRP177     -0.2867
     58  CB        -5.2520    1.3050   31.0110 C.3   177  TRP177      0.0550
     59  CG        -4.9330    1.7810   32.4110 C.ar  177  TRP177      0.0003
     60  CD1       -5.6660    2.5830   33.2180 C.ar  177  TRP177      0.0946
     61  CD2       -3.7070    1.5330   33.1100 C.ar  177  TRP177      0.0152
     62  NE1       -4.9900    2.7970   34.4300 N.ar  177  TRP177     -0.2442
     63  CE2       -3.7690    2.1830   34.3580 C.ar  177  TRP177      0.0810
     64  CE3       -2.5560    0.8330   32.7790 C.ar  177  TRP177      0.0012
     65  CZ2       -2.7100    2.1330   35.2910 C.ar  177  TRP177      0.0191
     66  CZ3       -1.5020    0.7920   33.6760 C.ar  177  TRP177      0.0001
     67  CH2       -1.5860    1.4100   34.9290 C.ar  177  TRP177      0.0015
     68  N         -3.0000   -4.2740   32.5310 N.3   179  HIS179     -0.1241
     69  CA        -1.5750   -4.7530   32.4530 C.3   179  HIS179      0.1621
     70  C         -1.5110   -6.2630   32.5020 C.2   179  HIS179      0.2264
     71  O         -2.2940   -6.8980   33.2170 O.2   179  HIS179     -0.2867
     72  CB        -0.8170   -4.0390   33.6150 C.3   179  HIS179      0.0745
     73  CG         0.6820   -4.1550   33.5860 C.ar  179  HIS179      0.0817
     74  ND1        1.4650   -3.7410   32.5210 N.ar  179  HIS179     -0.2268
     75  CD2        1.5560   -4.5320   34.5630 C.ar  179  HIS179      0.1154
     76  CE1        2.7390   -3.8930   32.8170 C.ar  179  HIS179      0.1986
     77  NE2        2.8300   -4.3790   34.0460 N.ar  179  HIS179     -0.2212
     78  N          2.4030   -3.7700   27.5500 N.3   219  ASN219     -0.1225
     79  CA         3.8150   -3.5310   28.0480 C.3   219  ASN219      0.1785
     80  C          4.8090   -3.9110   26.9240 C.2   219  ASN219      0.2598
     81  O          4.4040   -4.0960   25.7540 O.2   219  ASN219     -0.2718
     82  CB         4.0640   -4.3070   29.2920 C.3   219  ASN219      0.1169
     83  CG         3.9520   -5.7960   29.1150 C.2   219  ASN219      0.2627
     84  OD1        3.5180   -6.2940   28.0220 O.2   219  ASN219     -0.2716
     85  ND2        4.1450   -6.5060   30.1770 N.am  219  ASN219     -0.0877
     86  N          6.1040   -3.9270   27.2330 N.am  220  SER220     -0.1938
     87  CA         7.0910   -4.2770   26.1820 C.3   220  SER220      0.2040
     88  C          6.8520   -5.6420   25.5040 C.2   220  SER220      0.2485
     89  O          6.8260   -5.7050   24.3020 O.2   220  SER220     -0.2729
     90  CB         8.5220   -4.2260   26.7460 C.3   220  SER220      0.2129
     91  OG         8.8660   -2.8920   27.0340 O.3   220  SER220     -0.2179
     92  N          6.7250   -6.7090   26.2760 N.am  221  PRO221     -0.2726
     93  CA         6.6440   -7.9490   25.5580 C.3   221  PRO221      0.1402
     94  C          5.3700   -8.0530   24.7400 C.2   221  PRO221      0.2269
     95  O          5.4260   -8.5560   23.5970 O.2   221  PRO221     -0.2865
     96  CB         6.6160   -8.9830   26.6780 C.3   221  PRO221      0.0296
     97  CG         6.1880   -8.2280   27.9050 C.3   221  PRO221      0.0237
     98  CD         6.8210   -6.9170   27.7260 C.3   221  PRO221      0.0939
     99  N          2.8190    0.7820   25.9620 N.3   235  ARG235     -0.1245
    100  CA         3.7200    1.2360   27.0620 C.3   235  ARG235      0.1563
    101  C          4.9660    0.3870   27.1830 C.2   235  ARG235      0.2260
    102  O          5.1400   -0.3670   28.1390 O.2   235  ARG235     -0.2867
    103  CB         2.9370    1.2530   28.3950 C.3   235  ARG235      0.0307
    104  CG         1.5240    1.8410   28.3710 C.3   235  ARG235      0.0489
    105  CD         0.8870    1.8500   29.7860 C.3   235  ARG235      0.2205
    106  NE         0.8050    0.5430   30.4030 N.pl3 235  ARG235     -0.0865
    107  CZ        -0.1510   -0.3580   30.2910 C.cat 235  ARG235      0.5346
    108  NH1       -1.2380   -0.1320   29.5960 N.pl3 235  ARG235      0.1354
    109  NH2        0.0070   -1.5020   30.8480 N.pl3 235  ARG235      0.1354
    110  N          8.1950   -0.1420   28.2750 N.3   237  GLY237     -0.1210
    111  CA         9.1890    0.3710   29.1440 C.3   237  GLY237      0.1956
    112  C         10.6050   -0.1630   28.9120 C.2   237  GLY237      0.2611
    113  O         11.4830    0.5340   28.3730 O.2   237  GLY237     -0.2717
    114  N         10.8000   -1.4220   29.2270 N.am  238  ILE238     -0.1979
    115  CA        12.1780   -2.0120   29.2090 C.3   238  ILE238      0.1595
    116  C         12.7610   -1.9310   27.7870 C.2   238  ILE238      0.2287
    117  O         13.9420   -1.6660   27.6150 O.2   238  ILE238     -0.2864
    118  CB        12.1980   -3.4490   29.7780 C.3   238  ILE238      0.0276
    119  CG1       13.5720   -3.9690   30.0940 C.3   238  ILE238      0.0022
    120  CG2       11.4390   -4.4780   28.9220 C.3   238  ILE238      0.0022
    121  CD1       14.3900   -3.1360   31.0460 C.3   238  ILE238      0.0001
    122  N         15.5210   -6.1710   33.9630 N.3   372  TYR372     -0.1241
    123  CA        14.8560   -5.0180   34.5390 C.3   372  TYR372      0.1605
    124  C         15.4790   -4.6250   35.8940 C.2   372  TYR372      0.2264
    125  O         15.6680   -3.4140   36.1730 O.2   372  TYR372     -0.2867
    126  CB        13.3750   -5.3230   34.8870 C.3   372  TYR372      0.0534
    127  CG        12.3690   -5.5770   33.7810 C.ar  372  TYR372     -0.0201
    128  CD1       12.3830   -6.7630   33.0300 C.ar  372  TYR372     -0.0009
    129  CD2       11.3920   -4.6890   33.5210 C.ar  372  TYR372     -0.0009
    130  CE1       11.4070   -6.9760   32.0410 C.ar  372  TYR372      0.0417
    131  CE2       10.4160   -4.9110   32.5750 C.ar  372  TYR372      0.0417
    132  CZ        10.4440   -6.0610   31.8230 C.ar  372  TYR372      0.1957
    133  OH         9.4050   -6.2720   30.8660 O.3   372  TYR372     -0.2866
@<TRIPOS>BOND
     1    95    94    2
     2    89    88    2
     3    94    93    1
     4    88    87    1
     5    88    92   am
     6    93    92    1
     7    93    96    1
     8    81    80    2
     9    99   100    1
    10    87    90    1
    11    87    86    1
    12    92    98    1
    13    96    97    1
    14    90    91    1
    15    80    86   am
    16    80    79    1
    17   100   101    1
    18   100   103    1
    19   101   102    2
    20    78    79    1
    21   117   116    2
    22    98    97    1
    23   116   115    1
    24    84    83    2
    25    79    82    1
    26   110   111    1
    27   104   103    1
    28   104   105    1
    29   113   112    2
    30   112   111    1
    31   112   114   am
    32   120   118    1
    33    83    82    1
    34    83    85   am
    35   115   114    1
    36   115   118    1
    37     1     2    1
    38   108   107    1
    39   118   119    1
    40   105   106    1
    41   119   121    1
    42     7     5    1
    43   107   106    2
    44   107   109    1
    45     2     5    1
    46     2     3    1
    47   133   132    1
    48     5     6    1
    49    55    58    1
    50    55    54    1
    51    55    56    1
    52    58    59    1
    53     4     3    2
    54    56    57    2
    55   132   130   ar
    56   132   131   ar
    57   130   128   ar
    58    59    61   ar
    59    59    60   ar
    60    69    70    1
    61    69    68    1
    62    69    72    1
    63    70    71    2
    64    74    76   ar
    65    74    73   ar
    66   131   129   ar
    67    28    27    1
    68    26    27   ar
    69    26    24   ar
    70    64    61   ar
    71    64    66   ar
    72    76    77   ar
    73    27    25   ar
    74    24    22   ar
    75   128   127   ar
    76    61    63   ar
    77    60    62   ar
    78   129   127   ar
    79    22    21    1
    80    22    23   ar
    81    25    23   ar
    82    73    72    1
    83    73    75   ar
    84    66    67   ar
    85    41    42   ar
    86    41    39   ar
    87   127   126    1
    88    21    18    1
    89    42    40   ar
    90   122   123    1
    91    77    75   ar
    92    63    62   ar
    93    63    65   ar
    94   123   126    1
    95   123   124    1
    96    20    19    2
    97    39    36   ar
    98    17    18    1
    99     8     9    1
   100    67    65   ar
   101    18    19    1
   102    40    38   ar
   103    16    15    1
   104   124   125    2
   105    11    10    2
   106    15    14    1
   107    36    38   ar
   108    36    34   ar
   109    38    37   ar
   110    13    14    1
   111    13    12    1
   112     9    12    1
   113     9    10    1
   114    34    33    1
   115    34    35   ar
   116    37    35   ar
   117    33    30    1
   118    53    51    1
   119    29    30    1
   120    30    31    1
   121    52    51    1
   122    51    50    2
   123    31    32    2
   124    50    49    1
   125    47    48    1
   126    47    44    1
   127    43    44    1
   128    48    49    1
   129    44    45    1
   130    45    46    2
