@<TRIPOS>MOLECULE
tmp/5fahA00.pdb
 176 175 0 0 0
SMALL
GASTEIGER

@<TRIPOS>ATOM
      1  N         10.7810   10.6910   49.1990 N.3    23  GLN23      -0.1231
      2  CA        10.9360   11.6360   48.0990 C.3    23  GLN23       0.1698
      3  C         11.1960   10.9040   46.7920 C.2    23  GLN23       0.2592
      4  O         12.1120   10.0920   46.7200 O.2    23  GLN23      -0.2718
      5  CB        12.1240   12.5590   48.3870 C.3    23  GLN23       0.0381
      6  CG        12.1800   13.8110   47.5140 C.3    23  GLN23       0.0905
      7  CD        13.3320   14.7470   47.8250 C.2    23  GLN23       0.2608
      8  OE1       14.1700   14.5080   48.7070 O.2    23  GLN23      -0.2717
      9  NE2       13.3930   15.8530   47.1000 N.am   23  GLN23      -0.0878
     10  N         10.4530   11.2460   45.7530 N.am   24  LEU24      -0.1966
     11  CA        10.6910   10.6270   44.4510 C.3    24  LEU24       0.1728
     12  C         12.1380   10.8660   44.0030 C.2    24  LEU24       0.2616
     13  O         12.6070   12.0160   43.9960 O.2    24  LEU24      -0.2715
     14  CB         9.7470   11.2170   43.4180 C.3    24  LEU24       0.0311
     15  CG        10.0040   10.7190   41.9880 C.3    24  LEU24       0.0022
     16  CD1        9.6380    9.2310   41.8420 C.3    24  LEU24       0.0001
     17  CD2        9.2150   11.5260   40.9890 C.3    24  LEU24       0.0001
     18  N         12.7730    9.8120   43.5280 N.am   25  HIS25      -0.1959
     19  CA        14.0970    9.9210   42.9240 C.3    25  HIS25       0.1787
     20  C         14.0640    9.5240   41.4430 C.2    25  HIS25       0.2620
     21  O         14.5860   10.2610   40.6010 O.2    25  HIS25      -0.2715
     22  CB        15.1330    9.1090   43.6950 C.3    25  HIS25       0.0785
     23  CG        16.5380    9.5010   43.3250 C.ar   25  HIS25       0.0821
     24  ND1       17.0370   10.7460   43.6290 N.ar   25  HIS25      -0.2267
     25  CD2       17.5250    8.7810   42.7550 C.ar   25  HIS25       0.1154
     26  CE1       18.2850   10.7770   43.1880 C.ar   25  HIS25       0.1986
     27  NE2       18.6280    9.6210   42.6670 N.ar   25  HIS25      -0.2212
     28  N         13.4750    8.3760   41.1280 N.am   26  CYS26      -0.1968
     29  CA        13.4390    7.8740   39.7470 C.3    26  CYS26       0.1712
     30  C         12.2570    6.9570   39.5610 C.2    26  CYS26       0.2296
     31  O         11.6610    6.4700   40.5460 O.2    26  CYS26      -0.2864
     32  CB        14.7180    7.0910   39.4340 C.3    26  CYS26       0.0983
     33  SG        16.1870    8.0930   39.0720 S.3    26  CYS26      -0.0798
     34  N         21.9750    6.4420   36.4020 N.3    41  HIS41      -0.1241
     35  CA        22.0300    7.7740   36.9840 C.3    41  HIS41       0.1621
     36  C         21.2650    7.8710   38.3000 C.2    41  HIS41       0.2264
     37  O         21.4680    8.8180   39.0700 O.2    41  HIS41      -0.2867
     38  CB        21.4300    8.7630   35.9740 C.3    41  HIS41       0.0745
     39  CG        21.8660   10.1820   36.1730 C.ar   41  HIS41       0.0817
     40  ND1       21.5000   11.1790   35.2970 N.ar   41  HIS41      -0.2268
     41  CD2       22.5690   10.7420   37.1820 C.ar   41  HIS41       0.1154
     42  CE1       22.0580   12.2870   35.7540 C.ar   41  HIS41       0.1986
     43  NE2       22.6910   12.0840   36.8910 N.ar   41  HIS41      -0.2212
     44  N          9.4700   23.0890   39.2670 N.3   128  VAL128     -0.1245
     45  CA         9.1040   21.6890   39.4670 C.3   128  VAL128      0.1561
     46  C          7.7250   21.6050   40.0910 C.2   128  VAL128      0.2260
     47  O          7.3590   22.4220   40.9560 O.2   128  VAL128     -0.2867
     48  CB        10.1350   20.7670   40.1750 C.3   128  VAL128      0.0252
     49  CG1       11.3840   20.5610   39.3150 C.3   128  VAL128      0.0019
     50  CG2       10.4870   21.2510   41.5810 C.3   128  VAL128      0.0019
     51  N          5.4710   18.1180   41.0860 N.3   130  PHE130     -0.1241
     52  CA         5.4670   16.6550   41.1380 C.3   130  PHE130      0.1605
     53  C          4.0910   16.0930   41.3420 C.2   130  PHE130      0.2264
     54  O          3.4900   16.3560   42.3920 O.2   130  PHE130     -0.2867
     55  CB         6.4730   16.1390   42.1950 C.3   130  PHE130      0.0534
     56  CG         7.9380   16.2770   41.8720 C.ar  130  PHE130     -0.0203
     57  CD1        8.4870   15.6320   40.7790 C.ar  130  PHE130     -0.0042
     58  CD2        8.7880   16.9850   42.7130 C.ar  130  PHE130     -0.0042
     59  CE1        9.8450   15.7540   40.4730 C.ar  130  PHE130     -0.0003
     60  CE2       10.1630   17.0580   42.4410 C.ar  130  PHE130     -0.0003
     61  CZ        10.6820   16.4480   41.3180 C.ar  130  PHE130     -0.0000
     62  N          7.0870   14.8410   26.3740 N.3   164  ASN164     -0.1225
     63  CA         8.4090   14.3300   26.7200 C.3   164  ASN164      0.1785
     64  C          8.4240   13.8770   28.1770 C.2   164  ASN164      0.2597
     65  O          7.4380   14.0180   28.8990 O.2   164  ASN164     -0.2718
     66  CB         9.4470   15.4580   26.5260 C.3   164  ASN164      0.1169
     67  CG        10.8080   14.9870   26.0950 C.2   164  ASN164      0.2627
     68  OD1       11.2290   13.8530   26.3550 O.2   164  ASN164     -0.2716
     69  ND2       11.5530   15.9020   25.4830 N.am  164  ASN164     -0.0877
     70  N          9.5720   13.3550   28.6180 N.am  165  ALA165     -0.1966
     71  CA         9.8490   13.0410   30.0130 C.3   165  ALA165      0.1728
     72  C         10.5950   14.2420   30.6320 C.2   165  ALA165      0.2616
     73  O         10.9740   15.1940   29.9050 O.2   165  ALA165     -0.2715
     74  CB        10.6880   11.7750   30.1170 C.3   165  ALA165      0.0334
     75  N         10.7720   14.2370   31.9560 N.am  166  CYS166     -0.1954
     76  CA        11.4820   15.3370   32.6360 C.3   166  CYS166      0.1843
     77  C         12.0620   14.8100   33.9650 C.2   166  CYS166      0.2625
     78  O         12.0470   13.5980   34.1880 O.2   166  CYS166     -0.2714
     79  CB        10.5590   16.5580   32.8170 C.3   166  CYS166      0.0997
     80  SG        11.3850   18.1340   33.2550 S.3   166  CYS166     -0.0797
     81  N         12.5290   15.7040   34.8610 N.am  167  ASN167     -0.1958
     82  CA        13.0910   15.3540   36.1670 C.3   167  ASN167      0.1819
     83  C         12.2210   14.4790   36.9950 C.2   167  ASN167      0.2621
     84  O         11.0780   14.8180   37.3220 O.2   167  ASN167     -0.2715
     85  CB        13.4800   16.5810   36.9740 C.3   167  ASN167      0.1195
     86  CG        14.6470   17.3020   36.3630 C.2   167  ASN167      0.2630
     87  OD1       14.4710   18.1960   35.5350 O.2   167  ASN167     -0.2716
     88  ND2       15.8630   16.8330   36.6450 N.am  167  ASN167     -0.0877
     89  N         12.7880   13.3780   37.3990 N.am  168  GLY168     -0.1954
     90  CA        12.0160   12.4360   38.1920 C.3   168  GLY168      0.1869
     91  C         11.5440   11.2470   37.3820 C.2   168  GLY168      0.2309
     92  O         11.1220   10.2360   37.9570 O.2   168  GLY168     -0.2863
     93  N         13.5390    9.6230   35.0610 N.3   170  SER170     -0.1217
     94  CA        14.6460    8.7120   34.7290 C.3   170  SER170      0.1889
     95  C         14.4020    7.3240   35.2400 C.2   170  SER170      0.2288
     96  O         13.9310    7.1480   36.3700 O.2   170  SER170     -0.2866
     97  CB        15.9420    9.2260   35.3250 C.3   170  SER170      0.2089
     98  OG        16.9400    8.2200   35.2620 O.3   170  SER170     -0.2183
     99  N         13.8330    5.7610   30.4400 N.3   184  VAL184     -0.1231
    100  CA        14.1540    7.1820   30.3610 C.3   184  VAL184      0.1692
    101  C         15.5980    7.4180   30.8050 C.2   184  VAL184      0.2593
    102  O         16.0210    6.9020   31.8610 O.2   184  VAL184     -0.2718
    103  CB        13.2100    8.0270   31.2420 C.3   184  VAL184      0.0266
    104  CG1       13.6530    9.4930   31.2830 C.3   184  VAL184      0.0020
    105  CG2       11.7620    7.8920   30.7760 C.3   184  VAL184      0.0020
    106  N         16.3580    8.1850   30.0290 N.am  185  SER185     -0.1938
    107  CA        17.7330    8.5220   30.3860 C.3   185  SER185      0.2055
    108  C         17.9500   10.0100   30.5930 C.2   185  SER185      0.2643
    109  O         18.2320   10.4210   31.7270 O.2   185  SER185     -0.2714
    110  CB        18.7140    7.9350   29.3700 C.3   185  SER185      0.2130
    111  OG        20.0480    8.2420   29.7520 O.3   185  SER185     -0.2179
    112  N         17.8410   10.8380   29.5550 N.am  186  TRP186     -0.1959
    113  CA        18.1680   12.2340   29.7370 C.3   186  TRP186      0.1771
    114  C         17.5920   13.0480   28.6000 C.2   186  TRP186      0.2620
    115  O         17.1250   12.5090   27.5920 O.2   186  TRP186     -0.2715
    116  CB        19.7070   12.4000   29.8240 C.3   186  TRP186      0.0590
    117  CG        20.3750   12.3200   28.5140 C.ar  186  TRP186      0.0006
    118  CD1       20.7170   11.1970   27.8390 C.ar  186  TRP186      0.0946
    119  CD2       20.8090   13.4330   27.7100 C.ar  186  TRP186      0.0152
    120  NE1       21.3700   11.5360   26.6560 N.ar  186  TRP186     -0.2442
    121  CE2       21.4000   12.9040   26.5470 C.ar  186  TRP186      0.0810
    122  CE3       20.7580   14.8330   27.8690 C.ar  186  TRP186      0.0012
    123  CZ2       21.9090   13.7260   25.5270 C.ar  186  TRP186      0.0191
    124  CZ3       21.2930   15.6440   26.8770 C.ar  186  TRP186      0.0001
    125  CH2       21.8750   15.0870   25.7350 C.ar  186  TRP186      0.0015
    126  N         17.6750   14.3620   28.7420 N.am  187  GLY187     -0.1940
    127  CA        17.2950   15.3050   27.7000 C.3   187  GLY187      0.2014
    128  C         17.6050   16.7150   28.1360 C.2   187  GLY187      0.2640
    129  O         18.2170   16.9610   29.1940 O.2   187  GLY187     -0.2714
    130  N         17.1740   17.6580   27.3160 N.am  188  THR188     -0.1936
    131  CA        17.4390   19.0680   27.5350 C.3   188  THR188      0.2028
    132  C         16.7090   19.6260   28.7280 C.2   188  THR188      0.2642
    133  O         15.5770   19.2420   29.0030 O.2   188  THR188     -0.2714
    134  CB        17.0370   19.8500   26.2780 C.3   188  THR188      0.1808
    135  OG1       17.6580   19.2380   25.1500 O.3   188  THR188     -0.2208
    136  CG2       17.4130   21.3220   26.3510 C.3   188  THR188      0.0379
    137  N         17.3530   20.5810   29.4090 N.am  189  PHE189     -0.1973
    138  CA        16.7300   21.3290   30.4750 C.3   189  PHE189      0.1639
    139  C         16.8120   22.8300   30.1220 C.2   189  PHE189      0.2290
    140  O         17.9040   23.2940   29.7940 O.2   189  PHE189     -0.2864
    141  CB        17.4330   21.0690   31.8130 C.3   189  PHE189      0.0560
    142  CG        16.6840   21.7040   32.9540 C.ar  189  PHE189     -0.0200
    143  CD1       16.9000   23.0300   33.3050 C.ar  189  PHE189     -0.0042
    144  CD2       15.7160   20.9940   33.6440 C.ar  189  PHE189     -0.0042
    145  CE1       16.1870   23.6170   34.3490 C.ar  189  PHE189     -0.0003
    146  CE2       14.9970   21.5890   34.6820 C.ar  189  PHE189     -0.0003
    147  CZ        15.2420   22.8890   35.0340 C.ar  189  PHE189     -0.0000
    148  N         12.8530   21.3710   30.3250 N.3   191  CYS191     -0.1235
    149  CA        12.0570   20.3670   29.6170 C.3   191  CYS191      0.1677
    150  C         10.9950   20.9780   28.7640 C.2   191  CYS191      0.2270
    151  O         10.6220   22.1350   28.9400 O.2   191  CYS191     -0.2867
    152  CB        11.4090   19.4550   30.6370 C.3   191  CYS191      0.0956
    153  SG        12.5940   18.6040   31.6820 S.3   191  CYS191     -0.0801
    154  N         13.4950   13.4540   24.0610 N.3   198  GLY198     -0.1210
    155  CA        14.2140   12.7900   25.1430 C.3   198  GLY198      0.1956
    156  C         14.9280   11.5400   24.6730 C.2   198  GLY198      0.2612
    157  O         14.5670   10.9390   23.6480 O.2   198  GLY198     -0.2717
    158  N         15.9350   11.1590   25.4220 N.am  199  VAL199     -0.1965
    159  CA        16.8090   10.0350   25.1380 C.3   199  VAL199      0.1727
    160  C         16.5290    8.9190   26.1230 C.2   199  VAL199      0.2616
    161  O         16.3540    9.1590   27.3260 O.2   199  VAL199     -0.2715
    162  CB        18.3000   10.4350   25.1710 C.3   199  VAL199      0.0290
    163  CG1       19.1700    9.3170   24.6150 C.3   199  VAL199      0.0023
    164  CG2       18.5300   11.7270   24.3970 C.3   199  VAL199      0.0023
    165  N         16.5590    7.7060   25.6060 N.am  200  TYR200     -0.1974
    166  CA        16.2460    6.4810   26.3080 C.3   200  TYR200      0.1639
    167  C         17.3090    5.4400   26.0980 C.2   200  TYR200      0.2290
    168  O         17.9290    5.3590   25.0220 O.2   200  TYR200     -0.2864
    169  CB        14.9270    5.8790   25.8010 C.3   200  TYR200      0.0560
    170  CG        13.7330    6.7810   25.9950 C.ar  200  TYR200     -0.0198
    171  CD1       13.5290    7.8930   25.1780 C.ar  200  TYR200     -0.0009
    172  CD2       12.8110    6.5350   27.0000 C.ar  200  TYR200     -0.0009
    173  CE1       12.4790    8.7690   25.3990 C.ar  200  TYR200      0.0417
    174  CE2       11.7270    7.3720   27.1970 C.ar  200  TYR200      0.0417
    175  CZ        11.5720    8.4930   26.4040 C.ar  200  TYR200      0.1957
    176  OH        10.4740    9.2800   26.6440 O.3   200  TYR200     -0.2866
@<TRIPOS>BOND
     1   157   156    2
     2   154   155    1
     3   164   162    1
     4   163   162    1
     5   156   155    1
     6   156   158   am
     7   168   167    2
     8   159   162    1
     9   159   158    1
    10   159   160    1
    11   135   134    1
    12   171   173   ar
    13   171   170   ar
    14   173   175   ar
    15    69    67   am
    16   123   125   ar
    17   123   121   ar
    18   165   160   am
    19   165   166    1
    20   125   124   ar
    21   169   170    1
    22   169   166    1
    23   170   172   ar
    24    67    68    2
    25    67    66    1
    26   167   166    1
    27   160   161    2
    28   134   136    1
    29   134   131    1
    30    62    63    1
    31   175   176    1
    32   175   174   ar
    33    66    63    1
    34   121   120   ar
    35   121   119   ar
    36   120   118   ar
    37    63    64    1
    38   124   122   ar
    39   172   174   ar
    40   130   131    1
    41   130   128   am
    42   131   132    1
    43   115   114    2
    44   127   128    1
    45   127   126    1
    46   119   122   ar
    47   119   117   ar
    48   118   117   ar
    49   128   129    2
    50    64    70   am
    51    64    65    2
    52   117   116    1
    53   114   126   am
    54   114   113    1
    55    70    71    1
    56   132   133    2
    57   132   137   am
    58   150   151    2
    59   150   149    1
    60   110   111    1
    61   110   107    1
    62   137   138    1
    63   112   113    1
    64   112   108   am
    65   149   148    1
    66   149   152    1
    67   113   116    1
    68   140   139    2
    69    73    72    2
    70    71    74    1
    71    71    72    1
    72   106   107    1
    73   106   101   am
    74   139   138    1
    75   100    99    1
    76   100   101    1
    77   100   103    1
    78   107   108    1
    79   138   141    1
    80   108   109    2
    81    72    75   am
    82   152   153    1
    83   105   103    1
    84   101   102    2
    85   103   104    1
    86   153    80    1
    87   141   142    1
    88    75    76    1
    89    76    79    1
    90    76    77    1
    91    79    80    1
    92   142   143   ar
    93   142   144   ar
    94   143   145   ar
    95   144   146   ar
    96    77    78    2
    97    77    81   am
    98   145   147   ar
    99   146   147   ar
   100    94    93    1
   101    94    95    1
   102    94    97    1
   103    81    82    1
   104    95    96    2
   105    98    97    1
   106    40    42   ar
   107    40    39   ar
   108    87    86    2
   109    42    43   ar
   110    38    39    1
   111    38    35    1
   112    82    85    1
   113    82    83    1
   114    39    41   ar
   115    86    88   am
   116    86    85    1
   117    34    35    1
   118    43    41   ar
   119    35    36    1
   120    83    84    2
   121    83    89   am
   122    91    92    2
   123    91    90    1
   124    89    90    1
   125    36    37    2
   126    33    32    1
   127    44    45    1
   128    49    48    1
   129    32    29    1
   130    45    46    1
   131    45    48    1
   132    30    29    1
   133    30    31    2
   134    29    28    1
   135    46    47    2
   136    48    50    1
   137    59    57   ar
   138    59    61   ar
   139    21    20    2
   140    57    56   ar
   141    17    15    1
   142    51    52    1
   143    28    20   am
   144    52    53    1
   145    52    55    1
   146    61    60   ar
   147    53    54    2
   148    20    19    1
   149    16    15    1
   150    56    55    1
   151    56    58   ar
   152    15    14    1
   153    60    58   ar
   154    27    25   ar
   155    27    26   ar
   156    25    23   ar
   157    19    18    1
   158    19    22    1
   159    26    24   ar
   160    23    24   ar
   161    23    22    1
   162    14    11    1
   163    18    12   am
   164    13    12    2
   165    12    11    1
   166    11    10    1
   167    10     3   am
   168     4     3    2
   169     3     2    1
   170     9     7   am
   171     6     7    1
   172     6     5    1
   173     7     8    2
   174     2     5    1
   175     2     1    1
