@<TRIPOS>MOLECULE
tmp/5faiA00.pdb
 131 127 0 0 0
SMALL
GASTEIGER

@<TRIPOS>ATOM
      1  N        -28.5540   52.1370   12.4970 N.3    49  ARG49      -0.1245
      2  CA       -27.3220   52.9120   12.6480 C.3    49  ARG49       0.1563
      3  C        -26.6030   53.0200   11.2850 C.2    49  ARG49       0.2260
      4  O        -25.5160   52.4750   11.1130 O.2    49  ARG49      -0.2867
      5  CB       -26.4290   52.2450   13.6780 C.3    49  ARG49       0.0307
      6  CG       -26.9480   52.3350   15.1190 C.3    49  ARG49       0.0489
      7  CD       -26.8360   53.7400   15.6920 C.3    49  ARG49       0.2205
      8  NE       -25.4590   54.2310   15.5820 N.pl3  49  ARG49      -0.0865
      9  CZ       -24.4370   53.8080   16.3260 C.cat  49  ARG49       0.5346
     10  NH1      -24.6270   52.9500   17.3290 N.pl3  49  ARG49       0.1354
     11  NH2      -23.2070   54.2680   16.0890 N.pl3  49  ARG49       0.1354
     12  N        -22.7230   53.9900   10.9210 N.3    52  ILE52      -0.1245
     13  CA       -21.6320   53.0160   10.9400 C.3    52  ILE52       0.1561
     14  C        -21.1250   52.7290    9.5070 C.2    52  ILE52       0.2260
     15  O        -19.9190   52.7200    9.2430 O.2    52  ILE52      -0.2867
     16  CB       -22.0640   51.7100   11.6520 C.3    52  ILE52       0.0252
     17  CG1      -22.2800   51.9830   13.1470 C.3    52  ILE52       0.0019
     18  CG2      -21.0230   50.6060   11.4920 C.3    52  ILE52       0.0019
     19  CD1      -22.9680   50.8450   13.9160 C.3    52  ILE52       0.0001
     20  N        -14.2470   38.7990   10.2770 N.3   141  THR141     -0.1203
     21  CA       -13.6020   39.4520   11.4070 C.3   141  THR141      0.1994
     22  C        -14.5380   39.4950   12.6250 C.2   141  THR141      0.2619
     23  O        -15.7350   39.7480   12.4920 O.2   141  THR141     -0.2717
     24  CB       -13.1420   40.8780   11.0410 C.3   141  THR141      0.1784
     25  OG1      -14.2530   41.6360   10.5320 O.3   141  THR141     -0.2211
     26  CG2      -12.0480   40.8300   10.0190 C.3   141  THR141      0.0376
     27  N        -13.9880   39.2150   13.8040 N.am  142  SER142     -0.1937
     28  CA       -14.7500   39.2810   15.0400 C.3   142  SER142      0.2055
     29  C        -13.8240   39.4020   16.2240 C.2   142  SER142      0.2643
     30  O        -12.8320   38.6890   16.3210 O.2   142  SER142     -0.2714
     31  CB       -15.6340   38.0340   15.2250 C.3   142  SER142      0.2130
     32  OG       -16.3340   38.0680   16.4810 O.3   142  SER142     -0.2179
     33  N        -14.1920   40.2890   17.1360 N.am  143  PHE143     -0.1973
     34  CA       -13.5320   40.4360   18.4260 C.3   143  PHE143      0.1639
     35  C        -13.5830   39.1380   19.2680 C.2   143  PHE143      0.2290
     36  O        -12.6780   38.8900   20.0640 O.2   143  PHE143     -0.2864
     37  CB       -14.1830   41.6190   19.1800 C.3   143  PHE143      0.0560
     38  CG       -13.8060   41.7160   20.6330 C.ar  143  PHE143     -0.0200
     39  CD1      -12.5180   42.0480   21.0060 C.ar  143  PHE143     -0.0042
     40  CD2      -14.7580   41.5060   21.6240 C.ar  143  PHE143     -0.0042
     41  CE1      -12.1610   42.1290   22.3530 C.ar  143  PHE143     -0.0003
     42  CE2      -14.4080   41.5950   22.9750 C.ar  143  PHE143     -0.0003
     43  CZ       -13.1160   41.9230   23.3340 C.ar  143  PHE143     -0.0000
     44  N        -16.5240   42.6070    7.2910 N.3   165  VAL165     -0.1231
     45  CA       -16.5560   43.4970    8.4580 C.3   165  VAL165      0.1692
     46  C        -18.0070   43.8070    8.7700 C.2   165  VAL165      0.2592
     47  O        -18.7880   44.2070    7.8650 O.2   165  VAL165     -0.2718
     48  CB       -15.8090   44.8210    8.1540 C.3   165  VAL165      0.0266
     49  CG1      -15.9090   45.7860    9.3210 C.3   165  VAL165      0.0020
     50  CG2      -14.3370   44.5420    7.8160 C.3   165  VAL165      0.0020
     51  N        -18.4170   43.5990   10.0270 N.am  166  GLY166     -0.1957
     52  CA       -19.8120   43.8790   10.3960 C.3   166  GLY166      0.1869
     53  C        -20.0930   45.3790   10.3920 C.2   166  GLY166      0.2309
     54  O        -19.2800   46.1650   10.8800 O.2   166  GLY166     -0.2863
     55  N        -23.3370   46.3910   11.4080 N.3   168  PHE168     -0.1227
     56  CA       -24.5390   46.4540   12.2440 C.3   168  PHE168      0.1736
     57  C        -24.2190   47.2020   13.5310 C.2   168  PHE168      0.2595
     58  O        -23.0730   47.2740   13.9320 O.2   168  PHE168     -0.2718
     59  CB       -25.0370   45.0340   12.5880 C.3   168  PHE168      0.0547
     60  CG       -23.9340   44.0180   12.7190 C.ar  168  PHE168     -0.0202
     61  CD1      -23.0160   44.1000   13.7580 C.ar  168  PHE168     -0.0042
     62  CD2      -23.7990   42.9870   11.7960 C.ar  168  PHE168     -0.0042
     63  CE1      -21.9900   43.1870   13.8790 C.ar  168  PHE168     -0.0003
     64  CE2      -22.7680   42.0550   11.9160 C.ar  168  PHE168     -0.0003
     65  CZ       -21.8530   42.1670   12.9510 C.ar  168  PHE168     -0.0000
     66  N        -25.2550   47.6930   14.2090 N.am  169  ALA169     -0.1966
     67  CA       -25.0920   48.2290   15.5640 C.3   169  ALA169      0.1728
     68  C        -24.5530   47.1680   16.5300 C.2   169  ALA169      0.2616
     69  O        -23.6350   47.4250   17.3030 O.2   169  ALA169     -0.2715
     70  CB       -26.4130   48.7840   16.0690 C.3   169  ALA169      0.0334
     71  N        -25.1450   45.9740   16.4800 N.am  170  HIS170     -0.1959
     72  CA       -24.7370   44.8550   17.3260 C.3   170  HIS170      0.1787
     73  C        -24.9010   43.5620   16.5680 C.2   170  HIS170      0.2621
     74  O        -25.8220   43.4260   15.7850 O.2   170  HIS170     -0.2715
     75  CB       -25.6210   44.8030   18.5740 C.3   170  HIS170      0.0785
     76  CG       -25.5030   46.0130   19.4170 C.ar  170  HIS170      0.0821
     77  ND1      -26.3590   47.0860   19.2940 N.ar  170  HIS170     -0.2267
     78  CD2      -24.5590   46.3810   20.3070 C.ar  170  HIS170      0.1154
     79  CE1      -25.9740   48.0390   20.1220 C.ar  170  HIS170      0.1986
     80  NE2      -24.8860   47.6370   20.7420 N.ar  170  HIS170     -0.2212
     81  N        -24.0050   42.6230   16.8070 N.am  171  GLY171     -0.1940
     82  CA       -24.0860   41.2970   16.1730 C.3   171  GLY171      0.2014
     83  C        -22.7220   40.6790   15.9780 C.2   171  GLY171      0.2639
     84  O        -21.7490   41.1380   16.5370 O.2   171  GLY171     -0.2714
     85  N        -22.6640   39.6460   15.1480 N.am  172  LYS172     -0.1963
     86  CA       -21.4120   38.9720   14.8290 C.3   172  LYS172      0.1728
     87  C        -21.4780   38.5390   13.3660 C.2   172  LYS172      0.2616
     88  O        -22.5190   38.0660   12.8970 O.2   172  LYS172     -0.2715
     89  CB       -21.2010   37.7490   15.7560 C.3   172  LYS172      0.0311
     90  CG       -19.8260   37.0970   15.6290 C.3   172  LYS172      0.0038
     91  CD       -19.7360   35.8680   16.5280 C.3   172  LYS172      0.0206
     92  CE       -19.9360   36.1560   18.0040 C.3   172  LYS172      0.1093
     93  NZ       -19.9490   34.8780   18.8060 N.3   172  LYS172     -0.1314
     94  N        -20.3920   38.7620   12.6360 N.am  173  VAL173     -0.1977
     95  CA       -20.3230   38.3440   11.2450 C.3   173  VAL173      0.1596
     96  C        -20.4830   36.8320   11.2250 C.2   173  VAL173      0.2287
     97  O        -19.7280   36.1280   11.8960 O.2   173  VAL173     -0.2864
     98  CB       -18.9920   38.7470   10.5840 C.3   173  VAL173      0.0276
     99  CG1      -18.7840   38.0150    9.2610 C.3   173  VAL173      0.0022
    100  CG2      -18.9610   40.2500   10.3460 C.3   173  VAL173      0.0022
    101  N        -13.4250   47.0780   18.4330 N.3   189  LEU189     -0.1231
    102  CA       -13.2380   48.2750   17.6070 C.3   189  LEU189      0.1693
    103  C        -14.5010   48.6730   16.8620 C.2   189  LEU189      0.2593
    104  O        -15.4150   47.8890   16.6980 O.2   189  LEU189     -0.2718
    105  CB       -12.1300   48.0360   16.5900 C.3   189  LEU189      0.0284
    106  CG       -10.7950   47.5530   17.1640 C.3   189  LEU189      0.0019
    107  CD1       -9.8160   47.3140   16.0300 C.3   189  LEU189      0.0001
    108  CD2      -10.2510   48.5460   18.1640 C.3   189  LEU189      0.0001
    109  N        -14.5280   49.9020   16.3820 N.am  190  SER190     -0.1938
    110  CA       -15.5460   50.3020   15.4340 C.3   190  SER190      0.2055
    111  C        -15.2700   49.6150   14.0850 C.2   190  SER190      0.2643
    112  O        -14.1300   49.2310   13.7750 O.2   190  SER190     -0.2714
    113  CB       -15.5700   51.8270   15.2790 C.3   190  SER190      0.2130
    114  OG       -14.3700   52.3030   14.6790 O.3   190  SER190     -0.2179
    115  N        -16.3240   49.4400   13.2980 N.am  191  ALA191     -0.1963
    116  CA       -16.1850   48.9690   11.9340 C.3   191  ALA191      0.1728
    117  C        -15.2350   49.8950   11.1680 C.2   191  ALA191      0.2616
    118  O        -14.3970   49.4310   10.4110 O.2   191  ALA191     -0.2715
    119  CB       -17.5400   48.9280   11.2550 C.3   191  ALA191      0.0334
    120  N        -15.3670   51.2050   11.3890 N.am  192  ALA192     -0.1977
    121  CA       -14.6030   52.1860   10.6110 C.3   192  ALA192      0.1597
    122  C        -13.1010   52.0980   10.9070 C.2   192  ALA192      0.2287
    123  O        -12.2580   52.1500    9.9830 O.2   192  ALA192     -0.2864
    124  CB       -15.1310   53.5860   10.8630 C.3   192  ALA192      0.0319
    125  N        -11.6950   49.3760   12.1210 N.3   194  THR194     -0.1218
    126  CA       -11.3200   48.0960   11.5400 C.3   194  THR194      0.1862
    127  C        -10.9350   48.2530   10.0580 C.2   194  THR194      0.2287
    128  O         -9.9110   47.7330    9.6140 O.2   194  THR194     -0.2866
    129  CB       -12.4350   47.0480   11.7050 C.3   194  THR194      0.1770
    130  OG1      -12.7150   46.8680   13.1040 O.3   194  THR194     -0.2211
    131  CG2      -12.0020   45.7160   11.1080 C.3   194  THR194      0.0375
@<TRIPOS>BOND
     1    44    45    1
     2    50    48    1
     3    47    46    2
     4    48    45    1
     5    48    49    1
     6    45    46    1
     7    46    51   am
     8    15    14    2
     9    99    98    1
    10    14    13    1
    11   128   127    2
    12   123   122    2
    13    26    24    1
    14    51    52    1
    15   127   126    1
    16    20    21    1
    17   100    98    1
    18    53    52    1
    19    53    54    2
    20   118   117    2
    21    25    24    1
    22    98    95    1
    23   121   124    1
    24   121   122    1
    25   121   120    1
    26    12    13    1
    27    13    16    1
    28    24    21    1
    29   131   129    1
    30     4     3    2
    31   117   120   am
    32   117   116    1
    33    96    95    1
    34    96    97    2
    35    95    94    1
    36   119   116    1
    37     3     2    1
    38    21    22    1
    39    55    56    1
    40    18    16    1
    41   126   129    1
    42   126   125    1
    43    16    17    1
    44   129   130    1
    45    62    64   ar
    46    62    60   ar
    47    64    65   ar
    48   116   115    1
    49    56    59    1
    50    56    57    1
    51    23    22    2
    52     1     2    1
    53    59    60    1
    54    22    27   am
    55    94    87   am
    56     2     5    1
    57    60    61   ar
    58    88    87    2
    59    65    63   ar
    60    17    19    1
    61   115   111   am
    62    87    86    1
    63    57    58    2
    64    57    66   am
    65     5     6    1
    66    61    63   ar
    67   112   111    2
    68    27    28    1
    69   111   110    1
    70    66    67    1
    71   114   113    1
    72    86    85    1
    73    86    89    1
    74    28    31    1
    75    28    29    1
    76     6     7    1
    77    85    83   am
    78    31    32    1
    79   113   110    1
    80   110   109    1
    81    67    70    1
    82    67    68    1
    83     8     7    1
    84     8     9    2
    85    90    89    1
    86    90    91    1
    87    74    73    2
    88    83    82    1
    89    83    84    2
    90   107   106    1
    91    11     9    1
    92    82    81    1
    93    29    30    2
    94    29    33   am
    95     9    10    1
    96   109   103   am
    97    71    68   am
    98    71    72    1
    99    91    92    1
   100    68    69    2
   101    73    81   am
   102    73    72    1
   103   105   106    1
   104   105   102    1
   105   104   103    2
   106   103   102    1
   107    33    34    1
   108   106   108    1
   109    72    75    1
   110   102   101    1
   111    92    93    1
   112    34    37    1
   113    34    35    1
   114    75    76    1
   115    37    38    1
   116    35    36    2
   117    77    76   ar
   118    77    79   ar
   119    76    78   ar
   120    79    80   ar
   121    78    80   ar
   122    38    39   ar
   123    38    40   ar
   124    39    41   ar
   125    40    42   ar
   126    41    43   ar
   127    42    43   ar
