@<TRIPOS>MOLECULE
tmp/5faiA01.pdb
 86 86 0 0 0
SMALL
GASTEIGER

@<TRIPOS>ATOM
      1  N        -14.2470   38.7990   10.2770 N.3   141  THR141     -0.1203
      2  CA       -13.6020   39.4520   11.4070 C.3   141  THR141      0.1994
      3  C        -14.5380   39.4950   12.6250 C.2   141  THR141      0.2619
      4  O        -15.7350   39.7480   12.4920 O.2   141  THR141     -0.2717
      5  CB       -13.1420   40.8780   11.0410 C.3   141  THR141      0.1784
      6  OG1      -14.2530   41.6360   10.5320 O.3   141  THR141     -0.2211
      7  CG2      -12.0480   40.8300   10.0190 C.3   141  THR141      0.0376
      8  N        -13.9880   39.2150   13.8040 N.am  142  SER142     -0.1937
      9  CA       -14.7500   39.2810   15.0400 C.3   142  SER142      0.2055
     10  C        -13.8240   39.4020   16.2240 C.2   142  SER142      0.2643
     11  O        -12.8320   38.6890   16.3210 O.2   142  SER142     -0.2714
     12  CB       -15.6340   38.0340   15.2250 C.3   142  SER142      0.2130
     13  OG       -16.3340   38.0680   16.4810 O.3   142  SER142     -0.2179
     14  N        -14.1920   40.2890   17.1360 N.am  143  PHE143     -0.1959
     15  CA       -13.5320   40.4360   18.4260 C.3   143  PHE143      0.1771
     16  C        -13.5830   39.1380   19.2680 C.2   143  PHE143      0.2620
     17  O        -12.6780   38.8900   20.0640 O.2   143  PHE143     -0.2715
     18  CB       -14.1830   41.6190   19.1800 C.3   143  PHE143      0.0574
     19  CG       -13.8060   41.7160   20.6330 C.ar  143  PHE143     -0.0200
     20  CD1      -12.5180   42.0480   21.0060 C.ar  143  PHE143     -0.0042
     21  CD2      -14.7580   41.5060   21.6240 C.ar  143  PHE143     -0.0042
     22  CE1      -12.1610   42.1290   22.3530 C.ar  143  PHE143     -0.0003
     23  CE2      -14.4080   41.5950   22.9750 C.ar  143  PHE143     -0.0003
     24  CZ       -13.1160   41.9230   23.3340 C.ar  143  PHE143     -0.0000
     25  N        -14.6120   38.3200   19.0690 N.am  144  SER144     -0.1950
     26  CA       -14.8000   37.0900   19.8700 C.3   144  SER144      0.1924
     27  C        -13.7590   35.9690   19.6230 C.2   144  SER144      0.2314
     28  O        -13.6880   35.0230   20.4010 O.2   144  SER144     -0.2863
     29  CB       -16.2070   36.5300   19.6700 C.3   144  SER144      0.2116
     30  OG       -16.3700   36.0700   18.3430 O.3   144  SER144     -0.2180
     31  N        -23.3370   46.3910   11.4080 N.3   168  PHE168     -0.1241
     32  CA       -24.5390   46.4540   12.2440 C.3   168  PHE168      0.1605
     33  C        -24.2190   47.2020   13.5310 C.2   168  PHE168      0.2264
     34  O        -23.0730   47.2740   13.9320 O.2   168  PHE168     -0.2867
     35  CB       -25.0370   45.0340   12.5880 C.3   168  PHE168      0.0534
     36  CG       -23.9340   44.0180   12.7190 C.ar  168  PHE168     -0.0203
     37  CD1      -23.0160   44.1000   13.7580 C.ar  168  PHE168     -0.0042
     38  CD2      -23.7990   42.9870   11.7960 C.ar  168  PHE168     -0.0042
     39  CE1      -21.9900   43.1870   13.8790 C.ar  168  PHE168     -0.0003
     40  CE2      -22.7680   42.0550   11.9160 C.ar  168  PHE168     -0.0003
     41  CZ       -21.8530   42.1670   12.9510 C.ar  168  PHE168     -0.0000
     42  N        -25.1450   45.9740   16.4800 N.3   170  HIS170     -0.1226
     43  CA       -24.7370   44.8550   17.3260 C.3   170  HIS170      0.1752
     44  C        -24.9010   43.5620   16.5680 C.2   170  HIS170      0.2597
     45  O        -25.8220   43.4260   15.7850 O.2   170  HIS170     -0.2718
     46  CB       -25.6210   44.8030   18.5740 C.3   170  HIS170      0.0759
     47  CG       -25.5030   46.0130   19.4170 C.ar  170  HIS170      0.0818
     48  ND1      -26.3590   47.0860   19.2940 N.ar  170  HIS170     -0.2268
     49  CD2      -24.5590   46.3810   20.3070 C.ar  170  HIS170      0.1154
     50  CE1      -25.9740   48.0390   20.1220 C.ar  170  HIS170      0.1986
     51  NE2      -24.8860   47.6370   20.7420 N.ar  170  HIS170     -0.2212
     52  N        -24.0050   42.6230   16.8070 N.am  171  GLY171     -0.1942
     53  CA       -24.0860   41.2970   16.1730 C.3   171  GLY171      0.2014
     54  C        -22.7220   40.6790   15.9780 C.2   171  GLY171      0.2639
     55  O        -21.7490   41.1380   16.5370 O.2   171  GLY171     -0.2714
     56  N        -22.6640   39.6460   15.1480 N.am  172  LYS172     -0.1963
     57  CA       -21.4120   38.9720   14.8290 C.3   172  LYS172      0.1728
     58  C        -21.4780   38.5390   13.3660 C.2   172  LYS172      0.2616
     59  O        -22.5190   38.0660   12.8970 O.2   172  LYS172     -0.2715
     60  CB       -21.2010   37.7490   15.7560 C.3   172  LYS172      0.0311
     61  CG       -19.8260   37.0970   15.6290 C.3   172  LYS172      0.0038
     62  CD       -19.7360   35.8680   16.5280 C.3   172  LYS172      0.0206
     63  CE       -19.9360   36.1560   18.0040 C.3   172  LYS172      0.1093
     64  NZ       -19.9490   34.8780   18.8060 N.3   172  LYS172     -0.1314
     65  N        -20.3920   38.7620   12.6360 N.am  173  VAL173     -0.1977
     66  CA       -20.3230   38.3440   11.2450 C.3   173  VAL173      0.1596
     67  C        -20.4830   36.8320   11.2250 C.2   173  VAL173      0.2287
     68  O        -19.7280   36.1280   11.8960 O.2   173  VAL173     -0.2864
     69  CB       -18.9920   38.7470   10.5840 C.3   173  VAL173      0.0276
     70  CG1      -18.7840   38.0150    9.2610 C.3   173  VAL173      0.0022
     71  CG2      -18.9610   40.2500   10.3460 C.3   173  VAL173      0.0022
     72  N        -12.5200   45.6890   21.4390 N.3   188  PRO188     -0.2102
     73  CA       -13.6030   45.7760   20.4740 C.3   188  PRO188      0.1504
     74  C        -13.5530   47.1200   19.7550 C.2   188  PRO188      0.2575
     75  O        -13.6040   48.1590   20.4050 O.2   188  PRO188     -0.2718
     76  CB       -14.8640   45.6510   21.3330 C.3   188  PRO188      0.0282
     77  CG       -14.4640   46.1160   22.6740 C.3   188  PRO188      0.0208
     78  CD       -13.0090   45.7710   22.8300 C.3   188  PRO188      0.0893
     79  N        -13.4250   47.0780   18.4330 N.am  189  LEU189     -0.1980
     80  CA       -13.2380   48.2750   17.6070 C.3   189  LEU189      0.1596
     81  C        -14.5010   48.6730   16.8620 C.2   189  LEU189      0.2287
     82  O        -15.4150   47.8890   16.6980 O.2   189  LEU189     -0.2864
     83  CB       -12.1300   48.0360   16.5900 C.3   189  LEU189      0.0297
     84  CG       -10.7950   47.5530   17.1640 C.3   189  LEU189      0.0022
     85  CD1       -9.8160   47.3140   16.0300 C.3   189  LEU189      0.0001
     86  CD2      -10.2510   48.5460   18.1640 C.3   189  LEU189      0.0001
@<TRIPOS>BOND
     1    70    69    1
     2     7     5    1
     3     1     2    1
     4    71    69    1
     5     6     5    1
     6    69    66    1
     7     5     2    1
     8    67    66    1
     9    67    68    2
    10    66    65    1
    11     2     3    1
    12    31    32    1
    13    38    40   ar
    14    38    36   ar
    15    40    41   ar
    16    32    35    1
    17    32    33    1
    18     4     3    2
    19    35    36    1
    20     3     8   am
    21    65    58   am
    22    36    37   ar
    23    59    58    2
    24    41    39   ar
    25    58    57    1
    26    33    34    2
    27    37    39   ar
    28     8     9    1
    29    57    56    1
    30    57    60    1
    31     9    12    1
    32     9    10    1
    33    56    54   am
    34    12    13    1
    35    61    60    1
    36    61    62    1
    37    45    44    2
    38    54    53    1
    39    54    55    2
    40    85    84    1
    41    53    52    1
    42    10    11    2
    43    10    14   am
    44    42    43    1
    45    62    63    1
    46    44    52   am
    47    44    43    1
    48    83    84    1
    49    83    80    1
    50    82    81    2
    51    81    80    1
    52    14    15    1
    53    84    86    1
    54    43    46    1
    55    80    79    1
    56    63    64    1
    57    30    29    1
    58    15    18    1
    59    15    16    1
    60    79    74   am
    61    46    47    1
    62    25    16   am
    63    25    26    1
    64    18    19    1
    65    16    17    2
    66    48    47   ar
    67    48    50   ar
    68    47    49   ar
    69    27    26    1
    70    27    28    2
    71    29    26    1
    72    74    75    2
    73    74    73    1
    74    50    51   ar
    75    49    51   ar
    76    73    76    1
    77    73    72    1
    78    19    20   ar
    79    19    21   ar
    80    20    22   ar
    81    76    77    1
    82    72    78    1
    83    21    23   ar
    84    22    24   ar
    85    77    78    1
    86    23    24   ar
