@<TRIPOS>MOLECULE
tmp/5fajB01.pdb
 141 137 0 0 0
SMALL
GASTEIGER

@<TRIPOS>ATOM
      1  N         31.7560    3.6900   60.7920 N.3    35  VAL35      -0.1245
      2  CA        31.8670    3.4720   59.3800 C.3    35  VAL35       0.1561
      3  C         30.5540    3.9280   58.7330 C.2    35  VAL35       0.2260
      4  O         29.5130    3.2630   58.9300 O.2    35  VAL35      -0.2867
      5  CB        32.1580    1.9540   59.0940 C.3    35  VAL35       0.0252
      6  CG1       32.2780    1.6920   57.6210 C.3    35  VAL35       0.0019
      7  CG2       33.4110    1.4830   59.8150 C.3    35  VAL35       0.0019
      8  N         30.3310    4.8120   55.2270 N.3    37  LYS37      -0.1245
      9  CA        30.3570    4.6360   53.7890 C.3    37  LYS37       0.1561
     10  C         29.0050    4.1930   53.2780 C.2    37  LYS37       0.2260
     11  O         28.1210    3.7610   54.0780 O.2    37  LYS37      -0.2867
     12  CB        31.3940    3.5700   53.4070 C.3    37  LYS37       0.0271
     13  CG        31.0940    2.1710   53.9030 C.3    37  LYS37       0.0035
     14  CD        32.3280    1.3640   53.7840 C.3    37  LYS37       0.0206
     15  CE        32.1820    0.0160   54.3860 C.3    37  LYS37       0.1093
     16  NZ        31.5440   -0.8990   53.4660 N.3    37  LYS37      -0.1314
     17  N         25.4890    2.9890   55.1750 N.3    41  TYR41      -0.1241
     18  CA        24.8200    1.7060   54.9680 C.3    41  TYR41       0.1605
     19  C         23.3170    1.9080   54.7070 C.2    41  TYR41       0.2264
     20  O         22.4440    1.1700   55.2200 O.2    41  TYR41      -0.2867
     21  CB        24.9990    0.7260   56.1370 C.3    41  TYR41       0.0534
     22  CG        26.3960    0.1080   56.3780 C.ar   41  TYR41      -0.0201
     23  CD1       27.5230    0.8130   56.1850 C.ar   41  TYR41      -0.0009
     24  CD2       26.5130   -1.1820   56.9350 C.ar   41  TYR41      -0.0009
     25  CE1       28.7930    0.2510   56.4870 C.ar   41  TYR41       0.0417
     26  CE2       27.7510   -1.7760   57.2010 C.ar   41  TYR41       0.0417
     27  CZ        28.8980   -1.0440   56.9340 C.ar   41  TYR41       0.1957
     28  OH        30.1010   -1.6190   57.2240 O.3    41  TYR41      -0.2866
     29  N         39.4620    4.8990   51.9810 N.3    87  TRP87      -0.1241
     30  CA        40.3230    3.8770   51.5270 C.3    87  TRP87       0.1605
     31  C         40.1560    3.4130   50.0960 C.2    87  TRP87       0.2264
     32  O         41.0520    2.6840   49.6330 O.2    87  TRP87      -0.2867
     33  CB        40.2440    2.6590   52.4570 C.3    87  TRP87       0.0550
     34  CG        38.8490    2.1930   52.8160 C.ar   87  TRP87       0.0003
     35  CD1       38.0150    1.5290   52.0340 C.ar   87  TRP87       0.0946
     36  CD2       38.1840    2.3850   54.0750 C.ar   87  TRP87       0.0152
     37  NE1       36.8610    1.2680   52.7020 N.ar   87  TRP87      -0.2442
     38  CE2       36.9460    1.7480   53.9820 C.ar   87  TRP87       0.0810
     39  CE3       38.5190    3.0140   55.2740 C.ar   87  TRP87       0.0012
     40  CZ2       35.9750    1.7290   55.0750 C.ar   87  TRP87       0.0191
     41  CZ3       37.5650    3.0020   56.3780 C.ar   87  TRP87       0.0001
     42  CH2       36.3070    2.3270   56.2420 C.ar   87  TRP87       0.0015
     43  N         42.0590   -8.7380   48.9700 N.3   138  ARG138     -0.1245
     44  CA        41.2570   -7.6610   48.3990 C.3   138  ARG138      0.1563
     45  C         42.1370   -6.4430   48.2480 C.2   138  ARG138      0.2260
     46  O         43.0270   -6.4300   47.3670 O.2   138  ARG138     -0.2867
     47  CB        39.9730   -7.4760   49.2500 C.3   138  ARG138      0.0307
     48  CG        38.7930   -6.7880   48.5860 C.3   138  ARG138      0.0489
     49  CD        37.5860   -6.7270   49.5270 C.3   138  ARG138      0.2205
     50  NE        37.6470   -5.5810   50.4680 N.pl3 138  ARG138     -0.0865
     51  CZ        36.7890   -5.3360   51.4790 C.cat 138  ARG138      0.5346
     52  NH1       35.7930   -6.1770   51.7070 N.pl3 138  ARG138      0.1354
     53  NH2       36.9430   -4.2400   52.2780 N.pl3 138  ARG138      0.1354
     54  N         46.8130   -1.0380   58.9890 N.3   169  TRP169     -0.1241
     55  CA        45.5070   -1.7230   59.1300 C.3   169  TRP169      0.1605
     56  C         45.2790   -2.8510   58.1600 C.2   169  TRP169      0.2264
     57  O         46.0350   -3.0050   57.1960 O.2   169  TRP169     -0.2867
     58  CB        44.3830   -0.6540   59.0320 C.3   169  TRP169      0.0550
     59  CG        44.1160   -0.0810   57.7010 C.ar  169  TRP169      0.0003
     60  CD1       44.9050    0.7280   56.9580 C.ar  169  TRP169      0.0946
     61  CD2       42.9480   -0.3340   56.9090 C.ar  169  TRP169      0.0152
     62  NE1       44.2930    1.0330   55.7600 N.ar  169  TRP169     -0.2442
     63  CE2       43.0680    0.4230   55.7280 C.ar  169  TRP169      0.0810
     64  CE3       41.7840   -1.0320   57.1440 C.ar  169  TRP169      0.0012
     65  CZ2       42.0930    0.4400   54.7500 C.ar  169  TRP169      0.0191
     66  CZ3       40.8180   -1.0260   56.1910 C.ar  169  TRP169      0.0001
     67  CH2       40.9810   -0.3180   54.9910 C.ar  169  TRP169      0.0015
     68  N         41.8910   -6.1350   57.2790 N.3   171  HIS171     -0.1241
     69  CA        40.4730   -6.4810   57.3480 C.3   171  HIS171      0.1621
     70  C         40.3780   -7.9910   57.2150 C.2   171  HIS171      0.2264
     71  O         41.1350   -8.5960   56.4660 O.2   171  HIS171     -0.2867
     72  CB        39.7520   -5.7230   56.2100 C.3   171  HIS171      0.0745
     73  CG        38.2380   -5.7670   56.2580 C.ar  171  HIS171      0.0817
     74  ND1       37.4830   -5.2680   57.3010 N.ar  171  HIS171     -0.2268
     75  CD2       37.3410   -6.1940   55.3270 C.ar  171  HIS171      0.1154
     76  CE1       36.1970   -5.4580   57.0490 C.ar  171  HIS171      0.1986
     77  NE2       36.0840   -6.0200   55.8540 N.ar  171  HIS171     -0.2212
     78  N         36.4880   -5.4870   62.1890 N.3   211  ASN211     -0.1225
     79  CA        35.1230   -5.1180   61.7390 C.3   211  ASN211      0.1785
     80  C         34.1290   -5.5120   62.8470 C.2   211  ASN211      0.2598
     81  O         34.5040   -5.7860   64.0110 O.2   211  ASN211     -0.2718
     82  CB        34.8600   -5.8590   60.4520 C.3   211  ASN211      0.1169
     83  CG        34.9650   -7.4170   60.5830 C.2   211  ASN211      0.2627
     84  OD1       35.3380   -7.9690   61.6280 O.2   211  ASN211     -0.2716
     85  ND2       34.6520   -8.1050   59.4650 N.am  211  ASN211     -0.0877
     86  N         32.8060   -5.5300   62.5440 N.am  212  SER212     -0.1938
     87  CA        31.8320   -5.8110   63.5850 C.3   212  SER212      0.2040
     88  C         31.9690   -7.1680   64.1950 C.2   212  SER212      0.2485
     89  O         31.9860   -7.2820   65.4100 O.2   212  SER212     -0.2729
     90  CB        30.3870   -5.6240   63.0610 C.3   212  SER212      0.2129
     91  OG        30.1230   -4.2480   62.7840 O.3   212  SER212     -0.2179
     92  N         32.0910   -8.2230   63.3610 N.am  213  PRO213     -0.2726
     93  CA        32.0720   -9.5280   64.0700 C.3   213  PRO213      0.1402
     94  C         33.3380   -9.7480   64.9400 C.2   213  PRO213      0.2269
     95  O         33.2270  -10.3350   66.0130 O.2   213  PRO213     -0.2865
     96  CB        32.0020  -10.5420   62.9010 C.3   213  PRO213      0.0296
     97  CG        32.4990   -9.8170   61.7160 C.3   213  PRO213      0.0237
     98  CD        31.9730   -8.4250   61.9160 C.3   213  PRO213      0.0939
     99  N         36.2980   -1.0290   64.0220 N.3   227  ARG227     -0.1245
    100  CA        35.4970   -0.4500   62.9220 C.3   227  ARG227      0.1563
    101  C         34.1470   -1.2230   62.7710 C.2   227  ARG227      0.2260
    102  O         33.9560   -1.9070   61.7830 O.2   227  ARG227     -0.2867
    103  CB        36.2790   -0.4870   61.6300 C.3   227  ARG227      0.0307
    104  CG        37.7530    0.0700   61.6530 C.3   227  ARG227      0.0489
    105  CD        38.3280    0.1740   60.2720 C.3   227  ARG227      0.2205
    106  NE        38.3410   -1.1360   59.5580 N.pl3 227  ARG227     -0.0865
    107  CZ        39.2740   -2.1180   59.6540 C.cat 227  ARG227      0.5346
    108  NH1       40.3380   -2.0000   60.3760 N.pl3 227  ARG227      0.1354
    109  NH2       39.0970   -3.2630   58.9850 N.pl3 227  ARG227      0.1354
    110  N         30.9600   -1.4130   61.6730 N.3   229  GLY229     -0.1210
    111  CA        29.9690   -0.8150   60.7960 C.3   229  GLY229      0.1956
    112  C         28.5700   -1.3430   61.0110 C.2   229  GLY229      0.2611
    113  O         27.7380   -0.6410   61.5570 O.2   229  GLY229     -0.2717
    114  N         28.3040   -2.5900   60.6380 N.am  230  ILE230     -0.1979
    115  CA        26.9190   -3.1080   60.6180 C.3   230  ILE230      0.1595
    116  C         26.3050   -3.0960   62.0310 C.2   230  ILE230      0.2287
    117  O         25.1310   -2.7120   62.2150 O.2   230  ILE230     -0.2864
    118  CB        26.8600   -4.4990   59.9180 C.3   230  ILE230      0.0276
    119  CG1       25.4200   -4.9190   59.5760 C.3   230  ILE230      0.0022
    120  CG2       27.4410   -5.5800   60.8070 C.3   230  ILE230      0.0022
    121  CD1       24.6440   -3.9670   58.6690 C.3   230  ILE230      0.0001
    122  N         22.6330  -11.3530   52.8530 N.3   362  ILE362     -0.1245
    123  CA        22.9470  -10.9470   54.2090 C.3   362  ILE362      0.1561
    124  C         22.2830   -9.6100   54.5190 C.2   362  ILE362      0.2260
    125  O         21.9870   -8.8240   53.5640 O.2   362  ILE362     -0.2867
    126  CB        24.4880  -10.8510   54.4100 C.3   362  ILE362      0.0252
    127  CG1       25.1410   -9.9220   53.4030 C.3   362  ILE362      0.0019
    128  CG2       25.0810  -12.2710   54.3540 C.3   362  ILE362      0.0019
    129  CD1       26.6510   -9.7620   53.4740 C.3   362  ILE362      0.0001
    130  N         23.3720   -6.8770   55.7810 N.3   364  TYR364     -0.1241
    131  CA        24.1470   -5.7540   55.1930 C.3   364  TYR364      0.1605
    132  C         23.5880   -5.2620   53.8520 C.2   364  TYR364      0.2264
    133  O         23.5030   -4.0460   53.5890 O.2   364  TYR364     -0.2867
    134  CB        25.5710   -6.1730   54.8460 C.3   364  TYR364      0.0534
    135  CG        26.5670   -6.5270   55.9330 C.ar  364  TYR364     -0.0201
    136  CD1       26.4730   -7.7260   56.6630 C.ar  364  TYR364     -0.0009
    137  CD2       27.5710   -5.6680   56.2420 C.ar  364  TYR364     -0.0009
    138  CE1       27.4070   -8.0710   57.6010 C.ar  364  TYR364      0.0417
    139  CE2       28.5540   -6.0200   57.1560 C.ar  364  TYR364      0.0417
    140  CZ        28.4370   -7.2080   57.8500 C.ar  364  TYR364      0.1957
    141  OH        29.3720   -7.5100   58.7860 O.3   364  TYR364     -0.2866
@<TRIPOS>BOND
     1    46    45    2
     2    45    44    1
     3    44    43    1
     4    44    47    1
     5    48    47    1
     6    48    49    1
     7    49    50    1
     8    32    31    2
     9    31    30    1
    10    50    51    2
    11    51    52    1
    12    51    53    1
    13    30    29    1
    14    30    33    1
    15    35    37   ar
    16    35    34   ar
    17    33    34    1
    18    37    38   ar
    19    34    36   ar
    20   122   123    1
    21    10     9    1
    22    10    11    2
    23   127   129    1
    24   127   126    1
    25    12     9    1
    26    12    13    1
    27    16    15    1
    28   125   124    2
    29   133   132    2
    30    14    13    1
    31    14    15    1
    32     9     8    1
    33   132   131    1
    34    38    36   ar
    35    38    40   ar
    36    36    39   ar
    37   123   126    1
    38   123   124    1
    39   128   126    1
    40    19    18    1
    41    19    20    2
    42    65    67   ar
    43    65    63   ar
    44   134   131    1
    45   134   135    1
    46    18    17    1
    47    18    21    1
    48    67    66   ar
    49    40    42   ar
    50   131   130    1
    51    39    41   ar
    52    75    77   ar
    53    75    73   ar
    54    63    62   ar
    55    63    61   ar
    56    62    60   ar
    57    77    76   ar
    58   135   137   ar
    59   135   136   ar
    60    21    22    1
    61    23    22   ar
    62    23    25   ar
    63    66    64   ar
    64    72    73    1
    65    72    69    1
    66   137   139   ar
    67    42    41   ar
    68    73    74   ar
    69    22    24   ar
    70    71    70    2
    71    25    27   ar
    72   136   138   ar
    73    61    64   ar
    74    61    59   ar
    75    27    26   ar
    76    27    28    1
    77    24    26   ar
    78    60    59   ar
    79    76    74   ar
    80   139   140   ar
    81    57    56    2
    82    70    69    1
    83    68    69    1
    84   138   140   ar
    85     6     5    1
    86    59    58    1
    87   140   141    1
    88    56    55    1
    89   121   119    1
    90     3     4    2
    91     3     2    1
    92   109   107    1
    93    54    55    1
    94    58    55    1
    95     5     2    1
    96     5     7    1
    97     2     1    1
    98    85    83   am
    99   106   107    2
   100   106   105    1
   101   119   118    1
   102   107   108    1
   103   118   115    1
   104   118   120    1
   105   105   104    1
   106    82    83    1
   107    82    79    1
   108    83    84    2
   109   115   114    1
   110   115   116    1
   111   114   112   am
   112   111   112    1
   113   111   110    1
   114   112   113    2
   115   103   104    1
   116   103   100    1
   117    97    98    1
   118    97    96    1
   119    79    78    1
   120    79    80    1
   121   102   101    2
   122    98    92    1
   123   116   117    2
   124    86    80   am
   125    86    87    1
   126   101   100    1
   127    91    90    1
   128    80    81    2
   129    96    93    1
   130   100    99    1
   131    90    87    1
   132    92    93    1
   133    92    88   am
   134    87    88    1
   135    93    94    1
   136    88    89    2
   137    94    95    2
