@<TRIPOS>MOLECULE
tmp/5fanA01.pdb
 140 135 0 0 0
SMALL
GASTEIGER

@<TRIPOS>ATOM
      1  N        -10.7280   14.2060  -23.1410 N.3    33  VAL33      -0.1231
      2  CA       -11.1820   12.8120  -22.9980 C.3    33  VAL33       0.1678
      3  C        -12.6360   12.6260  -23.5050 C.2    33  VAL33       0.2434
      4  O        -13.4010   13.5910  -23.6060 O.2    33  VAL33      -0.2733
      5  CB       -11.0760   12.3540  -21.5430 C.3    33  VAL33       0.0265
      6  CG1       -9.6210   11.9590  -21.2000 C.3    33  VAL33       0.0020
      7  CG2      -11.6360   13.4100  -20.6070 C.3    33  VAL33       0.0020
      8  N        -13.0150   11.3870  -23.8720 N.am   34  PRO34      -0.2729
      9  CA       -14.3680   11.1860  -24.4140 C.3    34  PRO34       0.1401
     10  C        -15.4630   11.6770  -23.4640 C.2    34  PRO34       0.2269
     11  O        -15.2650   11.6450  -22.2570 O.2    34  PRO34      -0.2865
     12  CB       -14.4550    9.6680  -24.5890 C.3    34  PRO34       0.0296
     13  CG       -13.0260    9.2140  -24.7770 C.3    34  PRO34       0.0237
     14  CD       -12.1990   10.1520  -23.9330 C.3    34  PRO34       0.0939
     15  N        -18.2150   10.4680  -22.2110 N.3    36  PHE36      -0.1241
     16  CA       -19.1300    9.4750  -21.7150 C.3    36  PHE36       0.1605
     17  C        -18.8090    9.1620  -20.2560 C.2    36  PHE36       0.2264
     18  O        -17.7960    9.6250  -19.6970 O.2    36  PHE36      -0.2867
     19  CB       -19.1100    8.2030  -22.6050 C.3    36  PHE36       0.0534
     20  CG       -17.7270    7.6020  -22.8740 C.ar   36  PHE36      -0.0203
     21  CD1      -16.8050    7.3770  -21.8500 C.ar   36  PHE36      -0.0042
     22  CD2      -17.3840    7.1880  -24.1660 C.ar   36  PHE36      -0.0042
     23  CE1      -15.5670    6.7860  -22.1130 C.ar   36  PHE36      -0.0003
     24  CE2      -16.1340    6.5860  -24.4350 C.ar   36  PHE36      -0.0003
     25  CZ       -15.2310    6.3960  -23.4030 C.ar   36  PHE36      -0.0000
     26  N        -17.3830    6.5310  -18.4560 N.3    38  THR38      -0.1204
     27  CA       -16.5220    5.4410  -18.8000 C.3    38  THR38       0.1979
     28  C        -17.0730    4.1870  -18.1470 C.2    38  THR38       0.2459
     29  O        -17.1800    4.1200  -16.9070 O.2    38  THR38      -0.2732
     30  CB       -15.0600    5.6340  -18.3370 C.3    38  THR38       0.1783
     31  OG1      -14.5750    6.9140  -18.7810 O.3    38  THR38      -0.2211
     32  CG2      -14.1620    4.4970  -18.8850 C.3    38  THR38       0.0376
     33  N        -17.4180    3.1880  -18.9740 N.am   39  PRO39      -0.2728
     34  CA       -18.0410    1.9770  -18.4390 C.3    39  PRO39       0.1401
     35  C        -17.0250    0.9020  -18.0960 C.2    39  PRO39       0.2269
     36  O        -16.1590    0.5710  -18.9130 O.2    39  PRO39      -0.2865
     37  CB       -18.9480    1.5350  -19.5830 C.3    39  PRO39       0.0296
     38  CG       -18.1540    1.9770  -20.8550 C.3    39  PRO39       0.0237
     39  CD       -17.5460    3.2810  -20.4490 C.3    39  PRO39       0.0939
     40  N        -16.0680   11.0840  -17.5820 N.3   165  HIS165     -0.1241
     41  CA       -14.6250   11.1060  -17.8030 C.3   165  HIS165      0.1621
     42  C        -13.9310   12.4030  -17.3380 C.2   165  HIS165      0.2264
     43  O        -12.7340   12.3570  -17.0580 O.2   165  HIS165     -0.2867
     44  CB       -14.2820   10.8420  -19.2880 C.3   165  HIS165      0.0745
     45  CG       -13.0460   10.0080  -19.4660 C.ar  165  HIS165      0.0817
     46  ND1      -11.8400   10.2880  -18.8360 N.ar  165  HIS165     -0.2268
     47  CD2      -12.8320    8.8770  -20.1850 C.ar  165  HIS165      0.1154
     48  CE1      -10.9470    9.3830  -19.1700 C.ar  165  HIS165      0.1986
     49  NE2      -11.5230    8.5010  -19.9730 N.ar  165  HIS165     -0.2212
     50  N         -8.1380    6.4990  -15.8920 N.3   170  GLY170     -0.1225
     51  CA        -8.0830    5.1530  -15.3620 C.3   170  GLY170      0.1811
     52  C         -7.4570    5.0800  -13.9840 C.2   170  GLY170      0.2280
     53  O         -8.0550    4.5460  -13.0420 O.2   170  GLY170     -0.2866
     54  N         -4.9440    5.8150  -32.2540 N.3   283  TYR283     -0.1241
     55  CA        -4.9910    6.6870  -31.0640 C.3   283  TYR283      0.1605
     56  C         -4.5920    5.8670  -29.8160 C.2   283  TYR283      0.2264
     57  O         -5.2740    4.8860  -29.4630 O.2   283  TYR283     -0.2867
     58  CB        -6.3960    7.3140  -30.8910 C.3   283  TYR283      0.0534
     59  CG        -6.6440    8.4870  -31.8260 C.ar  283  TYR283     -0.0201
     60  CD1       -6.9020    8.2780  -33.1560 C.ar  283  TYR283     -0.0009
     61  CD2       -6.6170    9.7870  -31.3780 C.ar  283  TYR283     -0.0009
     62  CE1       -7.1240    9.3250  -34.0260 C.ar  283  TYR283      0.0417
     63  CE2       -6.8540   10.8700  -32.2640 C.ar  283  TYR283      0.0417
     64  CZ        -7.1040   10.6120  -33.5730 C.ar  283  TYR283      0.1957
     65  OH        -7.3370   11.6260  -34.4740 O.3   283  TYR283     -0.2866
     66  N         -3.8930    6.1980  -25.8540 N.3   285  ALA285     -0.1245
     67  CA        -3.9270    6.9240  -24.5830 C.3   285  ALA285      0.1562
     68  C         -2.6130    6.6820  -23.8230 C.2   285  ALA285      0.2260
     69  O         -2.1760    5.5490  -23.6650 O.2   285  ALA285     -0.2867
     70  CB        -5.1170    6.4990  -23.7520 C.3   285  ALA285      0.0290
     71  N         -4.1570   12.2000  -19.1410 N.3   305  ILE305     -0.1245
     72  CA        -4.0410   11.4930  -20.4260 C.3   305  ILE305      0.1561
     73  C         -3.5330   12.3750  -21.5460 C.2   305  ILE305      0.2260
     74  O         -4.1450   13.3860  -21.8920 O.2   305  ILE305     -0.2867
     75  CB        -5.3840   10.9000  -20.8770 C.3   305  ILE305      0.0252
     76  CG1       -5.9290    9.9600  -19.8040 C.3   305  ILE305      0.0019
     77  CG2       -5.2430   10.1590  -22.2300 C.3   305  ILE305      0.0019
     78  CD1       -4.9820    8.8820  -19.3960 C.3   305  ILE305      0.0001
     79  N        -12.4170   13.5090  -28.1130 N.3   358  ARG358     -0.1245
     80  CA       -12.2980   12.2660  -28.8810 C.3   358  ARG358      0.1563
     81  C        -13.6330   11.5290  -28.8320 C.2   358  ARG358      0.2260
     82  O        -14.1640   11.2880  -27.7510 O.2   358  ARG358     -0.2867
     83  CB       -11.1510   11.4040  -28.3320 C.3   358  ARG358      0.0307
     84  CG        -9.7260   11.9790  -28.6500 C.3   358  ARG358      0.0489
     85  CD        -8.5850   11.1310  -28.0850 C.3   358  ARG358      0.2205
     86  NE        -8.5150   11.1080  -26.6160 N.pl3 358  ARG358     -0.0865
     87  CZ        -8.0050   12.0730  -25.8520 C.cat 358  ARG358      0.5346
     88  NH1       -7.5300   13.1900  -26.3970 N.pl3 358  ARG358      0.1354
     89  NH2       -7.9860   11.9280  -24.5280 N.pl3 358  ARG358      0.1354
     90  N        -12.4370    7.5900  -33.8160 N.3   363  PHE363     -0.1241
     91  CA       -11.9190    6.2200  -33.8600 C.3   363  PHE363      0.1605
     92  C        -12.4610    5.4340  -35.0450 C.2   363  PHE363      0.2264
     93  O        -11.9980    4.3370  -35.3260 O.2   363  PHE363     -0.2867
     94  CB       -12.2530    5.4910  -32.5590 C.3   363  PHE363      0.0534
     95  CG       -11.8160    6.2190  -31.3270 C.ar  363  PHE363     -0.0203
     96  CD1      -10.4720    6.4380  -31.0750 C.ar  363  PHE363     -0.0042
     97  CD2      -12.7510    6.6900  -30.4200 C.ar  363  PHE363     -0.0042
     98  CE1      -10.0730    7.1070  -29.9420 C.ar  363  PHE363     -0.0003
     99  CE2      -12.3460    7.3490  -29.2880 C.ar  363  PHE363     -0.0003
    100  CZ       -11.0110    7.5470  -29.0400 C.ar  363  PHE363     -0.0000
    101  N         -6.6750    1.4470  -26.3080 N.3   371  THR371     -0.1218
    102  CA        -6.4710    1.9300  -24.9610 C.3   371  THR371      0.1862
    103  C         -6.0040    0.7680  -24.1050 C.2   371  THR371      0.2287
    104  O         -6.7300   -0.2160  -23.9880 O.2   371  THR371     -0.2866
    105  CB        -7.8000    2.5520  -24.4450 C.3   371  THR371      0.1770
    106  OG1       -8.2230    3.5940  -25.3460 O.3   371  THR371     -0.2211
    107  CG2       -7.6420    3.1380  -23.0930 C.3   371  THR371      0.0375
    108  N         -5.2670   -1.1250  -20.7310 N.3   373  TRP373     -0.1241
    109  CA        -5.5590   -1.2430  -19.3170 C.3   373  TRP373      0.1605
    110  C         -4.5680   -2.1940  -18.6230 C.2   373  TRP373      0.2264
    111  O         -4.7320   -2.4920  -17.4420 O.2   373  TRP373     -0.2867
    112  CB        -7.0020   -1.7290  -19.1090 C.3   373  TRP373      0.0550
    113  CG        -8.0660   -0.6930  -19.3690 C.ar  373  TRP373      0.0003
    114  CD1       -7.8950    0.5400  -19.9420 C.ar  373  TRP373      0.0946
    115  CD2       -9.4630   -0.8020  -19.0630 C.ar  373  TRP373      0.0152
    116  NE1       -9.0980    1.1960  -20.0170 N.ar  373  TRP373     -0.2442
    117  CE2      -10.0820    0.3930  -19.4930 C.ar  373  TRP373      0.0810
    118  CE3      -10.2510   -1.7920  -18.4600 C.ar  373  TRP373      0.0012
    119  CZ2      -11.4420    0.6330  -19.3310 C.ar  373  TRP373      0.0191
    120  CZ3      -11.6140   -1.5570  -18.3010 C.ar  373  TRP373      0.0001
    121  CH2      -12.1950   -0.3550  -18.7360 C.ar  373  TRP373      0.0015
    122  N        -12.8560    1.4670  -31.6640 N.3   401  LEU401     -0.1245
    123  CA       -12.2570    1.6430  -30.3480 C.3   401  LEU401      0.1561
    124  C        -12.0350    0.2660  -29.7630 C.2   401  LEU401      0.2260
    125  O        -12.8970   -0.6060  -29.8900 O.2   401  LEU401     -0.2867
    126  CB       -13.1520    2.4860  -29.4340 C.3   401  LEU401      0.0270
    127  CG       -12.5750    2.6750  -28.0300 C.3   401  LEU401      0.0019
    128  CD1      -11.2730    3.4330  -28.0840 C.3   401  LEU401      0.0001
    129  CD2      -13.5980    3.4010  -27.1920 C.3   401  LEU401      0.0001
    130  N         -9.5810   -2.0760  -26.5190 N.3   403  PHE403     -0.1241
    131  CA        -8.8960   -2.0920  -25.2280 C.3   403  PHE403      0.1605
    132  C         -7.9310   -3.2690  -25.1220 C.2   403  PHE403      0.2264
    133  O         -8.2290   -4.3320  -25.6150 O.2   403  PHE403     -0.2867
    134  CB        -9.9130   -2.1990  -24.1100 C.3   403  PHE403      0.0534
    135  CG       -10.7940   -0.9950  -24.0050 C.ar  403  PHE403     -0.0203
    136  CD1      -11.9090   -0.8910  -24.8020 C.ar  403  PHE403     -0.0042
    137  CD2      -10.4730    0.0440  -23.1460 C.ar  403  PHE403     -0.0042
    138  CE1      -12.7140    0.2330  -24.7280 C.ar  403  PHE403     -0.0003
    139  CE2      -11.2950    1.2030  -23.0680 C.ar  403  PHE403     -0.0003
    140  CZ       -12.3930    1.2770  -23.8690 C.ar  403  PHE403     -0.0000
@<TRIPOS>BOND
     1    93    92    2
     2    92    91    1
     3    65    64    1
     4    62    64   ar
     5    62    60   ar
     6    91    90    1
     7    91    94    1
     8    64    63   ar
     9    60    59   ar
    10    94    95    1
    11    63    61   ar
    12    54    55    1
    13    59    61   ar
    14    59    58    1
    15   122   123    1
    16    95    96   ar
    17    95    97   ar
    18    96    98   ar
    19    55    58    1
    20    55    56    1
    21    97    99   ar
    22   123   124    1
    23   123   126    1
    24    98   100   ar
    25   125   124    2
    26    56    57    2
    27   126   127    1
    28    99   100   ar
    29    80    81    1
    30    80    83    1
    31    80    79    1
    32    81    82    2
    33    84    83    1
    34    84    85    1
    35    85    86    1
    36   128   127    1
    37   127   129    1
    38    86    87    2
    39   130   131    1
    40    88    87    1
    41   101   102    1
    42    66    67    1
    43    87    89    1
    44   133   132    2
    45   106   105    1
    46   131   132    1
    47   131   134    1
    48   102   105    1
    49   102   103    1
    50   136   138   ar
    51   136   135   ar
    52    13    12    1
    53    13    14    1
    54   138   140   ar
    55    12     9    1
    56    67    68    1
    57    67    70    1
    58   105   107    1
    59    24    22   ar
    60    24    25   ar
    61     9     8    1
    62     9    10    1
    63    22    20   ar
    64   134   135    1
    65   103   104    2
    66   135   137   ar
    67    14     8    1
    68     8     3   am
    69   140   139   ar
    70    68    69    2
    71     4     3    2
    72     3     2    1
    73    10    11    2
    74    25    23   ar
    75   137   139   ar
    76     1     2    1
    77     2     5    1
    78    20    19    1
    79    20    21   ar
    80    19    16    1
    81    77    75    1
    82    15    16    1
    83    23    21   ar
    84    74    73    2
    85    16    17    1
    86    73    72    1
    87     5     6    1
    88     5     7    1
    89    75    72    1
    90    75    76    1
    91    38    39    1
    92    38    37    1
    93   108   109    1
    94    39    33    1
    95    72    71    1
    96    17    18    2
    97    47    49   ar
    98    47    45   ar
    99   116   114   ar
   100   116   117   ar
   101    49    48   ar
   102   114   113   ar
   103    76    78    1
   104    37    34    1
   105   117   119   ar
   106   117   115   ar
   107    45    44    1
   108    45    46   ar
   109   113   112    1
   110   113   115   ar
   111   119   121   ar
   112   109   112    1
   113   109   110    1
   114    44    41    1
   115    48    46   ar
   116   115   118   ar
   117    33    34    1
   118    33    28   am
   119    36    35    2
   120    32    30    1
   121    27    26    1
   122    27    30    1
   123    27    28    1
   124    31    30    1
   125   121   120   ar
   126   110   111    2
   127   118   120   ar
   128    34    35    1
   129    28    29    2
   130    41    40    1
   131    41    42    1
   132    42    43    2
   133    50    51    1
   134    51    52    1
   135    52    53    2
