@<TRIPOS>MOLECULE
tmp/5faoB00.pdb
 109 102 0 0 0
SMALL
GASTEIGER

@<TRIPOS>ATOM
      1  N        -34.6080   -5.4380    4.2120 N.3    42  CYS42      -0.1221
      2  CA       -33.9700   -6.6660    4.6970 C.3    42  CYS42       0.1808
      3  C        -33.3170   -6.4220    6.0740 C.2    42  CYS42       0.2601
      4  O        -34.0150   -6.0390    7.0190 O.2    42  CYS42      -0.2717
      5  CB       -32.9980   -7.2440    3.6580 C.3    42  CYS42       0.0970
      6  SG       -33.7570   -7.5850    2.0430 S.3    42  CYS42      -0.0800
      7  N        -32.0150   -6.5750    6.1810 N.am   43  SER43      -0.1952
      8  CA       -31.3870   -6.4750    7.4740 C.3    43  SER43       0.1924
      9  C        -31.0280   -5.0470    7.8680 C.2    43  SER43       0.2314
     10  O        -30.5460   -4.8310    8.9550 O.2    43  SER43      -0.2863
     11  CB       -30.1850   -7.4070    7.5240 C.3    43  SER43       0.2116
     12  OG       -30.4930   -8.5880    6.8600 O.3    43  SER43      -0.2180
     13  N        -33.0580   -3.5330   10.9000 N.3    46  LYS46      -0.1245
     14  CA       -32.5780   -3.8490   12.2520 C.3    46  LYS46       0.1561
     15  C        -32.1230   -2.6220   13.0310 C.2    46  LYS46       0.2260
     16  O        -32.1740   -2.6430   14.2580 O.2    46  LYS46      -0.2867
     17  CB       -31.4470   -4.8910   12.1960 C.3    46  LYS46       0.0271
     18  CG       -31.8850   -6.2260   11.6060 C.3    46  LYS46       0.0035
     19  CD       -30.7920   -7.2770   11.5960 C.3    46  LYS46       0.0206
     20  CE       -31.2950   -8.5290   10.9050 C.3    46  LYS46       0.1093
     21  NZ       -30.3400   -9.6560   11.0340 N.3    46  LYS46      -0.1314
     22  N        -32.9670  -19.0170   10.0830 N.3    77  ASN77      -0.1225
     23  CA       -31.9680  -19.2150    9.0200 C.3    77  ASN77       0.1785
     24  C        -30.5130  -18.7990    9.3080 C.2    77  ASN77       0.2597
     25  O        -29.6040  -19.6130    9.1240 O.2    77  ASN77      -0.2718
     26  CB       -32.4650  -18.6110    7.6960 C.3    77  ASN77       0.1169
     27  CG       -32.4400  -17.1020    7.6780 C.2    77  ASN77       0.2627
     28  OD1      -33.0500  -16.4460    8.5220 O.2    77  ASN77      -0.2716
     29  ND2      -31.6910  -16.5370    6.7360 N.am   77  ASN77      -0.0877
     30  N        -30.2960  -17.5510    9.7360 N.am   78  TYR78      -0.1976
     31  CA       -28.9580  -17.0390   10.0430 C.3    78  TYR78       0.1639
     32  C        -28.9180  -16.4180   11.4410 C.2    78  TYR78       0.2290
     33  O        -29.4890  -15.3470   11.6810 O.2    78  TYR78      -0.2864
     34  CB       -28.4950  -16.0380    8.9790 C.3    78  TYR78       0.0560
     35  CG       -27.0730  -15.5290    9.1670 C.ar   78  TYR78      -0.0198
     36  CD1      -26.8290  -14.2730    9.7150 C.ar   78  TYR78      -0.0009
     37  CD2      -25.9750  -16.2900    8.7730 C.ar   78  TYR78      -0.0009
     38  CE1      -25.5370  -13.7910    9.8600 C.ar   78  TYR78       0.0417
     39  CE2      -24.6790  -15.8140    8.9200 C.ar   78  TYR78       0.0417
     40  CZ       -24.4640  -14.5670    9.4610 C.ar   78  TYR78       0.1957
     41  OH       -23.1810  -14.0990    9.6190 O.3    78  TYR78      -0.2866
     42  N        -25.5110   -9.2680   12.4240 N.3   103  SER103     -0.1217
     43  CA       -26.7210   -9.5000   11.6620 C.3   103  SER103      0.1889
     44  C        -27.4290  -10.7970   12.0270 C.2   103  SER103      0.2288
     45  O        -27.8230  -11.5790   11.1850 O.2   103  SER103     -0.2866
     46  CB       -26.4510   -9.4220   10.1810 C.3   103  SER103      0.2089
     47  OG       -27.4960   -8.7220    9.5310 O.3   103  SER103     -0.2183
     48  N        -30.4660  -12.9250   13.0920 N.3   105  ASN105     -0.1240
     49  CA       -31.9150  -12.8380   12.8720 C.3   105  ASN105      0.1653
     50  C        -32.7650  -13.1350   14.1120 C.2   105  ASN105      0.2266
     51  O        -33.8460  -12.5620   14.2540 O.2   105  ASN105     -0.2867
     52  CB       -32.3530  -13.7090   11.6860 C.3   105  ASN105      0.1155
     53  CG       -31.9950  -13.1130   10.3340 C.2   105  ASN105      0.2627
     54  OD1      -31.5170  -11.9850   10.2300 O.2   105  ASN105     -0.2716
     55  ND2      -32.2560  -13.8660    9.2800 N.am  105  ASN105     -0.0877
     56  N        -37.4550  -15.0850    9.3830 N.3   140  PRO140     -0.2116
     57  CA       -36.7540  -14.7560    8.1430 C.3   140  PRO140      0.1372
     58  C        -37.6300  -14.2630    6.9920 C.2   140  PRO140      0.2244
     59  O        -37.1000  -13.8600    5.9520 O.2   140  PRO140     -0.2868
     60  CB       -36.0880  -16.0870    7.7760 C.3   140  PRO140      0.0268
     61  CG       -37.0180  -17.1430    8.2960 C.3   140  PRO140      0.0207
     62  CD       -37.8010  -16.5240    9.4310 C.3   140  PRO140      0.0892
     63  N        -37.2630  -10.8600    4.4790 N.3   143  ASN143     -0.1225
     64  CA       -36.2330  -10.7110    3.4300 C.3   143  ASN143      0.1785
     65  C        -36.5880  -11.3270    2.0650 C.2   143  ASN143      0.2597
     66  O        -35.7030  -11.4830    1.2240 O.2   143  ASN143     -0.2718
     67  CB       -34.8690  -11.2560    3.8920 C.3   143  ASN143      0.1169
     68  CG       -34.5590  -10.9680    5.3420 C.2   143  ASN143      0.2627
     69  OD1      -34.1430   -9.8650    5.7020 O.2   143  ASN143     -0.2716
     70  ND2      -34.7350  -11.9760    6.1880 N.am  143  ASN143     -0.0877
     71  N        -37.8660  -11.6520    1.8380 N.am  144  THR144     -0.1953
     72  CA       -38.3280  -12.2460    0.5690 C.3   144  THR144      0.1897
     73  C        -38.0260  -11.3540   -0.6490 C.2   144  THR144      0.2313
     74  O        -37.6320  -11.8650   -1.7010 O.2   144  THR144     -0.2863
     75  CB       -39.8310  -12.5920    0.6140 C.3   144  THR144      0.1794
     76  OG1      -40.5650  -11.4860    1.1490 O.3   144  THR144     -0.2208
     77  CG2      -40.0900  -13.8300    1.4580 C.3   144  THR144      0.0378
     78  N        -19.9630   -6.9550    9.2250 N.3   189  THR189     -0.1218
     79  CA       -20.5670   -7.4060    7.9560 C.3   189  THR189      0.1862
     80  C        -20.4260   -6.4430    6.7640 C.2   189  THR189      0.2287
     81  O        -20.5660   -6.8690    5.6170 O.2   189  THR189     -0.2866
     82  CB       -22.0540   -7.7570    8.1530 C.3   189  THR189      0.1770
     83  OG1      -22.7480   -6.6280    8.6930 O.3   189  THR189     -0.2211
     84  CG2      -22.2190   -8.9810    9.0720 C.3   189  THR189      0.0375
     85  N        -25.4700   -3.7120    6.9370 N.3   208  THR208     -0.1203
     86  CA       -25.7480   -4.2890    5.6250 C.3   208  THR208      0.1994
     87  C        -26.9960   -5.1770    5.6410 C.2   208  THR208      0.2618
     88  O        -27.4850   -5.5470    6.7050 O.2   208  THR208     -0.2717
     89  CB       -24.5330   -5.0940    5.1400 C.3   208  THR208      0.1784
     90  OG1      -24.0080   -5.8630    6.2260 O.3   208  THR208     -0.2211
     91  CG2      -23.4430   -4.1740    4.6110 C.3   208  THR208      0.0376
     92  N        -27.4990   -5.5040    4.4530 N.am  209  GLY209     -0.1942
     93  CA       -28.6780   -6.3460    4.2930 C.3   209  GLY209      0.2014
     94  C        -28.7060   -7.0940    2.9750 C.2   209  GLY209      0.2640
     95  O        -28.4410   -6.5120    1.9250 O.2   209  GLY209     -0.2714
     96  N        -29.0480   -8.3810    3.0350 N.am  210  SER210     -0.1935
     97  CA       -29.1950   -9.2340    1.8560 C.3   210  SER210      0.2055
     98  C        -30.5600   -9.9140    1.8610 C.2   210  SER210      0.2644
     99  O        -31.2800   -9.8480    2.8540 O.2   210  SER210     -0.2714
    100  CB       -28.0800  -10.2780    1.8170 C.3   210  SER210      0.2130
    101  OG       -26.8600   -9.7040    1.3730 O.3   210  SER210     -0.2179
    102  N        -30.9240  -10.5480    0.7530 N.am  211  GLY211     -0.1939
    103  CA       -32.2010  -11.2530    0.6670 C.3   211  GLY211      0.2014
    104  C        -32.5550  -11.7040   -0.7290 C.2   211  GLY211      0.2639
    105  O        -31.7260  -11.6380   -1.6440 O.2   211  GLY211     -0.2714
    106  N        -33.7990  -12.1570   -0.8750 N.am  212  GLY212     -0.1954
    107  CA       -34.3310  -12.6770   -2.1350 C.3   212  GLY212      0.1869
    108  C        -34.2000  -11.6960   -3.2790 C.2   212  GLY212      0.2309
    109  O        -33.9650  -10.5130   -3.0530 O.2   212  GLY212     -0.2863
@<TRIPOS>BOND
     1   108   109    2
     2   108   107    1
     3   107   106    1
     4    74    73    2
     5   105   104    2
     6   106   104   am
     7   104   103    1
     8    73    72    1
     9    72    75    1
    10    72    71    1
    11    75    76    1
    12    75    77    1
    13   103   102    1
    14   102    98   am
    15    66    65    2
    16   101   100    1
    17   100    97    1
    18    71    65   am
    19    97    98    1
    20    97    96    1
    21    98    99    2
    22    95    94    2
    23     6     5    1
    24    65    64    1
    25    94    96   am
    26    94    93    1
    27    64    67    1
    28    64    63    1
    29     5     2    1
    30    67    68    1
    31     1     2    1
    32    93    92    1
    33    92    87   am
    34    91    89    1
    35     2     3    1
    36    89    86    1
    37    89    90    1
    38    68    69    2
    39    68    70   am
    40    81    80    2
    41    86    87    1
    42    86    85    1
    43    87    88    2
    44    59    58    2
    45     3     7   am
    46     3     4    2
    47     7     8    1
    48    29    27   am
    49    80    79    1
    50    12    11    1
    51    58    57    1
    52     8    11    1
    53     8     9    1
    54    27    26    1
    55    27    28    2
    56    26    23    1
    57    60    57    1
    58    60    61    1
    59     9    10    2
    60    79    82    1
    61    79    78    1
    62    57    56    1
    63    82    83    1
    64    82    84    1
    65    61    62    1
    66    37    39   ar
    67    37    35   ar
    68    39    40   ar
    69    34    35    1
    70    34    31    1
    71    23    24    1
    72    23    22    1
    73    25    24    2
    74    35    36   ar
    75    55    53   am
    76    24    30   am
    77    56    62    1
    78    40    41    1
    79    40    38   ar
    80    47    46    1
    81    36    38   ar
    82    30    31    1
    83    31    32    1
    84    46    43    1
    85    54    53    2
    86    53    52    1
    87    13    14    1
    88    20    21    1
    89    20    19    1
    90    45    44    2
    91    32    33    2
    92    19    18    1
    93    18    17    1
    94    43    44    1
    95    43    42    1
    96    52    49    1
    97    17    14    1
    98    14    15    1
    99    49    48    1
   100    49    50    1
   101    15    16    2
   102    50    51    2
