@<TRIPOS>MOLECULE
tmp/5fapB00.pdb
 112 104 0 0 0
SMALL
GASTEIGER

@<TRIPOS>ATOM
      1  N         -2.9500  -25.4190   17.9680 N.3    42  SER42      -0.1217
      2  CA        -4.2150  -26.1170   18.2320 C.3    42  SER42       0.1889
      3  C         -5.4880  -25.2830   17.9990 C.2    42  SER42       0.2288
      4  O         -6.5980  -25.8190   18.0750 O.2    42  SER42      -0.2866
      5  CB        -4.2350  -26.6950   19.6520 C.3    42  SER42       0.2089
      6  OG        -3.2880  -27.7450   19.8050 O.3    42  SER42      -0.2183
      7  N         -7.9700  -26.3120   15.1280 N.3    45  LYS45      -0.1245
      8  CA        -8.9760  -27.3480   15.3620 C.3    45  LYS45       0.1561
      9  C        -10.4030  -26.8330   15.1620 C.2    45  LYS45       0.2260
     10  O        -11.2940  -27.5950   14.7800 O.2    45  LYS45      -0.2867
     11  CB        -8.8090  -27.9410   16.7690 C.3    45  LYS45       0.0271
     12  CG        -7.5410  -28.7680   16.9660 C.3    45  LYS45       0.0035
     13  CD        -7.4870  -29.4320   18.3370 C.3    45  LYS45       0.0206
     14  CE        -6.2090  -30.2430   18.5150 C.3    45  LYS45       0.1093
     15  NZ        -5.6430  -30.1920   19.8960 N.3    45  LYS45      -0.1314
     16  N          1.1370  -37.2780   21.0500 N.3    76  ASN76      -0.1225
     17  CA         1.6470  -36.6380   22.2640 C.3    76  ASN76       0.1785
     18  C          0.6360  -36.1520   23.3040 C.2    76  ASN76       0.2597
     19  O          0.9070  -36.1280   24.4550 O.2    76  ASN76      -0.2718
     20  CB         2.5720  -35.4940   21.8830 C.3    76  ASN76       0.1169
     21  CG         1.8280  -34.3130   21.3420 C.2    76  ASN76       0.2627
     22  OD1        1.0020  -34.4280   20.4800 O.2    76  ASN76      -0.2716
     23  ND2        2.0970  -33.1850   21.8880 N.am   76  ASN76      -0.0877
     24  N         -0.5240  -35.7080   22.8550 N.am   77  TYR77      -0.1976
     25  CA        -1.5990  -35.2590   23.7180 C.3    77  TYR77       0.1639
     26  C         -2.9730  -35.7180   23.2370 C.2    77  TYR77       0.2290
     27  O         -3.5260  -35.2710   22.2550 O.2    77  TYR77      -0.2864
     28  CB        -1.5830  -33.7630   23.9720 C.3    77  TYR77       0.0560
     29  CG        -2.3970  -33.3900   25.1760 C.ar   77  TYR77      -0.0198
     30  CD1       -3.5900  -32.7590   25.0550 C.ar   77  TYR77      -0.0009
     31  CD2       -1.9740  -33.6840   26.4100 C.ar   77  TYR77      -0.0009
     32  CE1       -4.3310  -32.4540   26.1400 C.ar   77  TYR77       0.0417
     33  CE2       -2.7120  -33.3730   27.4960 C.ar   77  TYR77       0.0417
     34  CZ        -3.8860  -32.7430   27.3540 C.ar   77  TYR77       0.1957
     35  OH        -4.6310  -32.4140   28.4350 O.3    77  TYR77      -0.2866
     36  N         -8.6550  -30.5530   23.7070 N.3   102  SER102     -0.1217
     37  CA        -7.5090  -30.3720   22.7970 C.3   102  SER102      0.1889
     38  C         -6.7020  -31.6540   22.5800 C.2   102  SER102      0.2288
     39  O         -5.4720  -31.6630   22.6040 O.2   102  SER102     -0.2866
     40  CB        -6.6190  -29.1930   23.2140 C.3   102  SER102      0.2089
     41  OG        -6.0930  -28.5230   22.0770 O.3   102  SER102     -0.2183
     42  N         -5.1440  -34.4650   20.3530 N.3   104  ASN104     -0.1240
     43  CA        -4.5110  -34.4140   19.0350 C.3   104  ASN104      0.1653
     44  C         -4.8710  -35.5820   18.1140 C.2   104  ASN104      0.2266
     45  O         -4.8240  -35.4400   16.8870 O.2   104  ASN104     -0.2867
     46  CB        -2.9890  -34.3090   19.1650 C.3   104  ASN104      0.1155
     47  CG        -2.5230  -32.8890   19.3990 C.2   104  ASN104      0.2627
     48  OD1       -3.3170  -31.9520   19.3750 O.2   104  ASN104     -0.2716
     49  ND2       -1.2290  -32.7240   19.6460 N.am  104  ASN104     -0.0877
     50  N         -1.2630  -33.0200   13.5060 N.3   138  GLU138     -0.1231
     51  CA        -0.7390  -32.8540   14.8620 C.3   138  GLU138      0.1684
     52  C          0.1900  -34.0280   15.1730 C.2   138  GLU138      0.2434
     53  O         -0.0760  -35.1440   14.7340 O.2   138  GLU138     -0.2733
     54  CB        -1.8860  -32.7940   15.8810 C.3   138  GLU138      0.0402
     55  CG        -2.8660  -31.6470   15.6730 C.3   138  GLU138      0.1161
     56  CD        -2.5260  -30.3840   16.4490 C.2   138  GLU138      0.3649
     57  OE1       -3.3210  -29.4200   16.3620 O.co2 138  GLU138     -0.2457
     58  OE2       -1.4780  -30.3440   17.1300 O.co2 138  GLU138     -0.2457
     59  N          1.3090  -33.7820   15.8840 N.am  139  PRO139     -0.2729
     60  CA         1.7330  -32.5510   16.5510 C.3   139  PRO139      0.1401
     61  C          2.6810  -31.6360   15.7610 C.2   139  PRO139      0.2269
     62  O          3.0480  -30.5710   16.2660 O.2   139  PRO139     -0.2865
     63  CB         2.4480  -33.0790   17.7950 C.3   139  PRO139      0.0296
     64  CG         3.0610  -34.3610   17.3390 C.3   139  PRO139      0.0237
     65  CD         2.1930  -34.9090   16.2360 C.3   139  PRO139      0.0939
     66  N          2.5370  -27.6520   15.1880 N.3   142  ASN142     -0.1240
     67  CA         2.8790  -26.7650   16.2950 C.3   142  ASN142      0.1653
     68  C          4.3540  -26.3000   16.3170 C.2   142  ASN142      0.2266
     69  O          4.7670  -25.6250   17.2640 O.2   142  ASN142     -0.2867
     70  CB         2.5390  -27.4300   17.6440 C.3   142  ASN142      0.1155
     71  CG         1.1590  -28.0960   17.6740 C.2   142  ASN142      0.2627
     72  OD1        0.1270  -27.4350   17.5610 O.2   142  ASN142     -0.2716
     73  ND2        1.1400  -29.3990   17.9430 N.am  142  ASN142     -0.0877
     74  N         -9.7790  -25.6610   28.6740 N.3   188  THR188     -0.1218
     75  CA        -8.3570  -25.3000   28.6040 C.3   188  THR188      0.1862
     76  C         -8.0160  -23.8000   28.6100 C.2   188  THR188      0.2287
     77  O         -6.8340  -23.4340   28.6510 O.2   188  THR188     -0.2866
     78  CB        -7.6750  -25.9190   27.3670 C.3   188  THR188      0.1770
     79  OG1       -8.3000  -25.4410   26.1710 O.3   188  THR188     -0.2211
     80  CG2       -7.7300  -27.4420   27.4080 C.3   188  THR188      0.0375
     81  N         -7.8390  -22.6260   22.6000 N.3   207  THR207     -0.1203
     82  CA        -6.4590  -22.2750   22.9080 C.3   207  THR207      0.1994
     83  C         -5.4870  -23.0680   22.0210 C.2   207  THR207      0.2618
     84  O         -5.8920  -23.9840   21.2970 O.2   207  THR207     -0.2717
     85  CB        -6.1600  -22.5840   24.3900 C.3   207  THR207      0.1784
     86  OG1       -6.6910  -23.8770   24.7170 O.3   207  THR207     -0.2211
     87  CG2       -6.7870  -21.5280   25.3070 C.3   207  THR207      0.0376
     88  N         -4.2040  -22.7230   22.1110 N.am  208  GLY208     -0.1942
     89  CA        -3.1470  -23.4040   21.3710 C.3   208  GLY208      0.2014
     90  C         -1.7690  -23.0220   21.8820 C.2   208  GLY208      0.2640
     91  O         -1.5750  -21.9200   22.3930 O.2   208  GLY208     -0.2714
     92  N         -0.8090  -23.9300   21.7220 N.am  209  SER209     -0.1935
     93  CA         0.5540  -23.7630   22.2410 C.3   209  SER209      0.2055
     94  C          1.5480  -24.4680   21.3130 C.2   209  SER209      0.2643
     95  O          1.1950  -25.4230   20.6180 O.2   209  SER209     -0.2714
     96  CB         0.6540  -24.3290   23.6650 C.3   209  SER209      0.2130
     97  OG         1.8980  -24.9750   23.8890 O.3   209  SER209     -0.2179
     98  N          2.7820  -23.9800   21.2570 N.am  210  GLY210     -0.1954
     99  CA         3.7360  -24.5280   20.3000 C.3   210  GLY210      0.1869
    100  C          5.1830  -24.2520   20.6480 C.2   210  GLY210      0.2309
    101  O          5.4980  -23.8700   21.7750 O.2   210  GLY210     -0.2863
    102  N          0.4820  -17.2960   28.8090 N.3   246  ARG246     -0.1245
    103  CA        -0.9710  -17.1470   28.7370 C.3   246  ARG246      0.1563
    104  C         -1.4090  -15.8190   29.3610 C.2   246  ARG246      0.2260
    105  O         -2.4820  -15.3050   29.0510 O.2   246  ARG246     -0.2867
    106  CB        -1.6580  -18.3200   29.4460 C.3   246  ARG246      0.0307
    107  CG        -1.6140  -19.6380   28.6780 C.3   246  ARG246      0.0489
    108  CD        -2.0500  -20.8280   29.5230 C.3   246  ARG246      0.2205
    109  NE        -0.9740  -21.3280   30.3740 N.pl3 246  ARG246     -0.0865
    110  CZ        -0.1470  -22.3150   30.0440 C.cat 246  ARG246      0.5346
    111  NH1       -0.2710  -22.9370   28.8800 N.pl3 246  ARG246      0.1354
    112  NH2        0.8100  -22.6890   30.8840 N.pl3 246  ARG246      0.1354
@<TRIPOS>BOND
     1    50    51    1
     2    53    52    2
     3    10     9    2
     4    51    52    1
     5    51    54    1
     6     7     8    1
     7     9     8    1
     8    52    59   am
     9    66    67    1
    10     8    11    1
    11    55    54    1
    12    55    56    1
    13    61    62    2
    14    61    60    1
    15    59    65    1
    16    59    60    1
    17    65    64    1
    18    67    68    1
    19    67    70    1
    20    68    69    2
    21    57    56   ar
    22    56    58   ar
    23    60    63    1
    24    11    12    1
    25    45    44    2
    26    12    13    1
    27    64    63    1
    28    72    71    2
    29    70    71    1
    30    71    73   am
    31     1     2    1
    32     3     4    2
    33     3     2    1
    34    44    43    1
    35     2     5    1
    36    13    14    1
    37    14    15    1
    38    43    46    1
    39    43    42    1
    40    46    47    1
    41    48    47    2
    42    47    49   am
    43     5     6    1
    44    99   100    1
    45    99    98    1
    46    22    21    2
    47    95    94    2
    48   100   101    2
    49    16    17    1
    50    98    94   am
    51    84    83    2
    52    94    93    1
    53    21    20    1
    54    21    23   am
    55    89    90    1
    56    89    88    1
    57    92    90   am
    58    92    93    1
    59    90    91    2
    60    20    17    1
    61    83    88   am
    62    83    82    1
    63    41    40    1
    64    93    96    1
    65    27    26    2
    66    17    18    1
    67    38    39    2
    68    38    37    1
    69    81    82    1
    70    37    40    1
    71    37    36    1
    72    24    18   am
    73    24    25    1
    74    82    85    1
    75    26    25    1
    76    18    19    2
    77    96    97    1
    78    25    28    1
    79    28    29    1
    80    85    86    1
    81    85    87    1
    82    30    29   ar
    83    30    32   ar
    84    29    31   ar
    85    32    34   ar
    86    79    78    1
    87    31    33   ar
    88    34    33   ar
    89    34    35    1
    90    78    80    1
    91    78    75    1
    92    75    76    1
    93    75    74    1
    94    76    77    2
    95   107   106    1
    96   107   108    1
    97   103   102    1
    98   103   104    1
    99   103   106    1
   100   111   110    1
   101   105   104    2
   102   108   109    1
   103   110   109    2
   104   110   112    1
