@<TRIPOS>MOLECULE
tmp/5faqA00.pdb
 143 137 0 0 0
SMALL
GASTEIGER

@<TRIPOS>ATOM
      1  N          2.8390   25.1130   -0.4540 N.3    45  ALA45      -0.1231
      2  CA         3.1800   23.7550   -0.7920 C.3    45  ALA45       0.1694
      3  C          3.4470   22.9690    0.4840 C.2    45  ALA45       0.2592
      4  O          2.6480   23.0660    1.4410 O.2    45  ALA45      -0.2718
      5  CB         4.3660   23.6920   -1.7920 C.3    45  ALA45       0.0304
      6  N          4.5130   22.1570    0.5050 N.am   46  SER46      -0.1952
      7  CA         4.7130   21.2570    1.6280 C.3    46  SER46       0.1924
      8  C          4.9360   21.9050    2.9840 C.2    46  SER46       0.2314
      9  O          4.9160   21.2200    3.9590 O.2    46  SER46      -0.2863
     10  CB         5.8240   20.2800    1.4180 C.3    46  SER46       0.2116
     11  OG         5.6970   19.5340    0.2300 O.3    46  SER46      -0.2180
     12  N          6.5770    9.2090   -7.8500 N.3    77  ASP77      -0.1225
     13  CA         7.9210    9.4650   -8.3710 C.3    77  ASP77       0.1805
     14  C          9.0000    9.7430   -7.3160 C.2    77  ASP77       0.2597
     15  O         10.1590    9.7560   -7.6640 O.2    77  ASP77      -0.2718
     16  CB         7.9480   10.5070   -9.5190 C.3    77  ASP77       0.1424
     17  CG         7.5750   11.9290   -9.0850 C.2    77  ASP77       0.3668
     18  OD1        7.2420   12.1880   -7.8950 O.co2  77  ASP77      -0.2456
     19  OD2        7.5880   12.8050   -9.9950 O.co2  77  ASP77      -0.2456
     20  N          8.6390    9.9650   -6.0470 N.am   78  ILE78      -0.1980
     21  CA         9.6190   10.0320   -4.9750 C.3    78  ILE78       0.1595
     22  C          9.6200    8.7070   -4.1840 C.2    78  ILE78       0.2287
     23  O          8.6490    8.3300   -3.4730 O.2    78  ILE78      -0.2864
     24  CB         9.3280   11.2110   -4.0500 C.3    78  ILE78       0.0276
     25  CG1        9.5220   12.5220   -4.8080 C.3    78  ILE78       0.0022
     26  CG2       10.2080   11.1270   -2.8290 C.3    78  ILE78       0.0022
     27  CD1        8.8790   13.7220   -4.1160 C.3    78  ILE78       0.0001
     28  N          8.2510    7.8280   -0.7190 N.3    81  TRP81      -0.1241
     29  CA         6.7990    7.8350   -0.4970 C.3    81  TRP81       0.1605
     30  C          6.1690    6.4470   -0.5980 C.2    81  TRP81       0.2264
     31  O          5.0580    6.2680   -0.1580 O.2    81  TRP81      -0.2867
     32  CB         6.0920    8.7290   -1.4870 C.3    81  TRP81       0.0550
     33  CG         6.4330   10.1140   -1.3870 C.ar   81  TRP81       0.0003
     34  CD1        7.3670   10.6580   -0.5940 C.ar   81  TRP81       0.0946
     35  CD2        5.7800   11.1970   -2.0510 C.ar   81  TRP81       0.0152
     36  NE1        7.3940   11.9920   -0.7480 N.ar   81  TRP81      -0.2442
     37  CE2        6.4350   12.3670   -1.6530 C.ar   81  TRP81       0.0810
     38  CE3        4.7540   11.2840   -2.9930 C.ar   81  TRP81       0.0012
     39  CZ2        6.0710   13.5980   -2.1110 C.ar   81  TRP81       0.0191
     40  CZ3        4.4110   12.5020   -3.4860 C.ar   81  TRP81       0.0001
     41  CH2        5.0670   13.6500   -3.0560 C.ar   81  TRP81       0.0015
     42  N         10.1460   12.9390    5.0130 N.3    93  TYR93      -0.1227
     43  CA        10.1440   12.6710    3.5600 C.3    93  TYR93       0.1736
     44  C          9.0250   13.3950    2.8020 C.2    93  TYR93       0.2596
     45  O          8.8460   13.2350    1.5640 O.2    93  TYR93      -0.2718
     46  CB        10.0930   11.1660    3.3640 C.3    93  TYR93       0.0548
     47  CG        11.2820   10.5010    3.9430 C.ar   93  TYR93      -0.0200
     48  CD1       12.5630   10.7310    3.4110 C.ar   93  TYR93      -0.0009
     49  CD2       11.1420    9.6040    5.0060 C.ar   93  TYR93      -0.0009
     50  CE1       13.6860   10.1260    3.9900 C.ar   93  TYR93       0.0417
     51  CE2       12.2250    8.9720    5.5540 C.ar   93  TYR93       0.0417
     52  CZ        13.4790    9.2290    5.0350 C.ar   93  TYR93       0.1957
     53  OH        14.5060    8.5800    5.5990 O.3    93  TYR93      -0.2866
     54  N          8.2810   14.2290    3.5190 N.am   94  SER94      -0.1952
     55  CA         7.2710   15.1520    2.8940 C.3    94  SER94       0.1924
     56  C          6.3330   14.3990    1.9890 C.2    94  SER94       0.2314
     57  O          6.1110   14.7300    0.8130 O.2    94  SER94      -0.2863
     58  CB         7.9650   16.3230    2.1990 C.3    94  SER94       0.2116
     59  OG         7.2010   17.5360    2.1820 O.3    94  SER94      -0.2180
     60  N          3.3170   13.7600    0.6410 N.3    96  VAL96      -0.1245
     61  CA         2.0630   14.4050    0.2810 C.3    96  VAL96       0.1561
     62  C          0.8100   13.5010    0.3400 C.2    96  VAL96       0.2260
     63  O         -0.1710   13.9320    0.8550 O.2    96  VAL96      -0.2867
     64  CB         2.1590   15.0410   -1.1420 C.3    96  VAL96       0.0252
     65  CG1        0.8260   15.5880   -1.6150 C.3    96  VAL96       0.0019
     66  CG2        3.1570   16.1840   -1.1500 C.3    96  VAL96       0.0019
     67  N         -1.2300   23.3350   -2.6960 N.3   134  LEU134     -0.1245
     68  CA        -0.3290   23.0570   -3.8560 C.3   134  LEU134      0.1561
     69  C         -0.8220   23.7890   -5.1680 C.2   134  LEU134      0.2260
     70  O         -0.0120   24.2630   -5.9330 O.2   134  LEU134     -0.2867
     71  CB        -0.2710   21.5650   -4.0970 C.3   134  LEU134      0.0270
     72  CG         0.2900   20.7220   -2.9320 C.3   134  LEU134      0.0019
     73  CD1       -0.0170   19.2310   -3.0260 C.3   134  LEU134      0.0001
     74  CD2        1.7760   20.8840   -2.8150 C.3   134  LEU134      0.0001
     75  N         10.5120   23.0960    8.1930 N.3   184  LYS184     -0.1231
     76  CA         9.8890   22.2910    7.1340 C.3   184  LYS184      0.1693
     77  C         10.2270   22.9720    5.7850 C.2   184  LYS184      0.2593
     78  O         10.0890   24.2010    5.6410 O.2   184  LYS184     -0.2718
     79  CB         8.3690   22.1860    7.3110 C.3   184  LYS184      0.0285
     80  CG         7.6520   21.3650    6.2150 C.3   184  LYS184      0.0035
     81  CD         7.9940   19.8990    6.3700 C.3   184  LYS184      0.0206
     82  CE         7.4630   19.0170    5.2700 C.3   184  LYS184      0.1093
     83  NZ         8.3580   19.1870    4.1050 N.3   184  LYS184     -0.1314
     84  N         10.6420   22.1490    4.8390 N.am  185  THR185     -0.1939
     85  CA        10.9200   22.5400    3.4480 C.3   185  THR185      0.2028
     86  C          9.6200   22.4670    2.6060 C.2   185  THR185      0.2643
     87  O          8.6050   21.8380    2.9790 O.2   185  THR185     -0.2714
     88  CB        11.9150   21.5520    2.8060 C.3   185  THR185      0.1808
     89  OG1       11.5280   20.2420    3.1800 O.3   185  THR185     -0.2208
     90  CG2       13.3090   21.7290    3.2890 C.3   185  THR185      0.0379
     91  N          9.6460   23.1890    1.4860 N.am  186  GLY186     -0.1939
     92  CA         8.6230   23.0050    0.4670 C.3   186  GLY186      0.2014
     93  C          9.0870   23.3990   -0.9090 C.2   186  GLY186      0.2638
     94  O         10.0290   24.1590   -1.0520 O.2   186  GLY186     -0.2714
     95  N          8.3870   22.8750   -1.9240 N.am  187  TYR187     -0.1973
     96  CA         8.6390   23.2240   -3.3010 C.3   187  TYR187      0.1639
     97  C          7.3030   23.3390   -4.0070 C.2   187  TYR187      0.2290
     98  O          6.6120   22.3840   -4.2090 O.2   187  TYR187     -0.2864
     99  CB         9.5470   22.1570   -3.9410 C.3   187  TYR187      0.0560
    100  CG        10.0280   22.4220   -5.3340 C.ar  187  TYR187     -0.0198
    101  CD1        9.9170   23.6940   -5.9220 C.ar  187  TYR187     -0.0009
    102  CD2       10.6220   21.4180   -6.0880 C.ar  187  TYR187     -0.0009
    103  CE1       10.3530   23.9240   -7.2120 C.ar  187  TYR187      0.0417
    104  CE2       11.0830   21.6590   -7.3800 C.ar  187  TYR187      0.0417
    105  CZ        10.9430   22.8980   -7.9310 C.ar  187  TYR187      0.1957
    106  OH        11.4140   23.1620   -9.2180 O.3   187  TYR187     -0.2866
    107  N          5.5120   23.7930   -7.2560 N.3   189  THR189     -0.1203
    108  CA         5.7980   23.5440   -8.6550 C.3   189  THR189      0.1994
    109  C          4.5680   23.5840   -9.5410 C.2   189  THR189      0.2617
    110  O          4.7270   23.5290  -10.7450 O.2   189  THR189     -0.2717
    111  CB         6.3600   22.1270   -8.8530 C.3   189  THR189      0.1784
    112  OG1        5.4060   21.1680   -8.3980 O.3   189  THR189     -0.2211
    113  CG2        7.5600   21.9380   -8.0100 C.3   189  THR189      0.0376
    114  N          3.3490   23.6330   -9.0080 N.am  190  ARG190     -0.1979
    115  CA         2.1980   23.4190   -9.8720 C.3   190  ARG190      0.1597
    116  C          1.7970   24.7100  -10.5560 C.2   190  ARG190      0.2287
    117  O          1.2590   24.6680  -11.6310 O.2   190  ARG190     -0.2864
    118  CB         1.0060   22.7800   -9.1550 C.3   190  ARG190      0.0334
    119  CG         1.3370   21.4370   -8.4980 C.3   190  ARG190      0.0492
    120  CD         0.0700   20.7690   -8.0030 C.3   190  ARG190      0.2205
    121  NE         0.3570   19.5780   -7.2120 N.pl3 190  ARG190     -0.0865
    122  CZ        -0.5680   18.6720   -6.8420 C.cat 190  ARG190      0.5346
    123  NH1       -1.8540   18.8130   -7.1570 N.pl3 190  ARG190      0.1354
    124  NH2       -0.2070   17.6350   -6.1560 N.pl3 190  ARG190      0.1354
    125  N         17.4690   22.4380   -5.0180 N.3   223  LEU223     -0.1245
    126  CA        16.7350   22.3490   -3.7580 C.3   223  LEU223      0.1561
    127  C         17.6000   22.4540   -2.5170 C.2   223  LEU223      0.2260
    128  O         17.2180   23.0950   -1.5580 O.2   223  LEU223     -0.2867
    129  CB        15.9150   21.0720   -3.6930 C.3   223  LEU223      0.0270
    130  CG        14.6550   21.1310   -4.5660 C.3   223  LEU223      0.0019
    131  CD1       14.0000   19.7920   -4.5550 C.3   223  LEU223      0.0001
    132  CD2       13.6570   22.1960   -4.1510 C.3   223  LEU223      0.0001
    133  N         18.1880   25.8520   -0.6250 N.3   226  ARG226     -0.1245
    134  CA        17.2620   26.3980    0.4170 C.3   226  ARG226      0.1563
    135  C         18.0070   26.4410    1.7420 C.2   226  ARG226      0.2260
    136  O         18.1620   27.4910    2.3490 O.2   226  ARG226     -0.2867
    137  CB        16.0360   25.5360    0.4950 C.3   226  ARG226      0.0307
    138  CG        15.1410   25.6270   -0.7310 C.3   226  ARG226      0.0489
    139  CD        13.9720   24.6850   -0.7460 C.3   226  ARG226      0.2205
    140  NE        14.4260   23.2950   -0.6080 N.pl3 226  ARG226     -0.0865
    141  CZ        13.6080   22.2570   -0.5830 C.cat 226  ARG226      0.5346
    142  NH1       14.1020   21.0440   -0.4900 N.pl3 226  ARG226      0.1354
    143  NH2       12.3000   22.4210   -0.6620 N.pl3 226  ARG226      0.1354
@<TRIPOS>BOND
     1   117   116    2
     2   110   109    2
     3   116   115    1
     4    19    17   ar
     5   115   118    1
     6   115   114    1
     7   109   114   am
     8   109   108    1
     9    16    17    1
    10    16    13    1
    11   106   105    1
    12   118   119    1
    13    17    18   ar
    14   111   108    1
    15   111   112    1
    16   111   113    1
    17   108   107    1
    18   119   120    1
    19    13    12    1
    20    13    14    1
    21   120   121    1
    22   105   104   ar
    23   105   103   ar
    24    15    14    2
    25   104   102   ar
    26    14    20   am
    27   103   101   ar
    28   121   122    2
    29   123   122    1
    30   122   124    1
    31   102   100   ar
    32    20    21    1
    33    70    69    2
    34   101   100   ar
    35   100    99    1
    36    69    68    1
    37   125   126    1
    38    21    22    1
    39    21    24    1
    40    25    27    1
    41    25    24    1
    42   130   131    1
    43   130   132    1
    44   130   129    1
    45    98    97    2
    46    22    23    2
    47    71    68    1
    48    71    72    1
    49    24    26    1
    50    97    96    1
    51    99    96    1
    52    68    67    1
    53   126   129    1
    54   126   127    1
    55    40    41   ar
    56    40    38   ar
    57    96    95    1
    58    41    39   ar
    59    73    72    1
    60    38    35   ar
    61    72    74    1
    62   127   128    2
    63    39    37   ar
    64    35    37   ar
    65    35    33   ar
    66    95    93   am
    67     5     2    1
    68    37    36   ar
    69    65    64    1
    70    32    33    1
    71    32    29    1
    72    33    34   ar
    73    66    64    1
    74    64    61    1
    75    94    93    2
    76    93    92    1
    77     2     1    1
    78     2     3    1
    79    36    34   ar
    80   139   138    1
    81   139   140    1
    82   138   137    1
    83    28    29    1
    84   143   141    1
    85   133   134    1
    86   140   141    2
    87    30    29    1
    88    30    31    2
    89   141   142    1
    90    11    10    1
    91    61    62    1
    92    61    60    1
    93    62    63    2
    94   134   137    1
    95   134   135    1
    96    92    91    1
    97     3     6   am
    98     3     4    2
    99     6     7    1
   100    57    56    2
   101    10     7    1
   102    91    86   am
   103    45    44    2
   104     7     8    1
   105   135   136    2
   106    56    55    1
   107    59    58    1
   108    58    55    1
   109    86    87    2
   110    86    85    1
   111    44    54   am
   112    44    43    1
   113    88    89    1
   114    88    90    1
   115    88    85    1
   116    55    54    1
   117     8     9    2
   118    46    43    1
   119    46    47    1
   120    48    47   ar
   121    48    50   ar
   122    85    84    1
   123    43    42    1
   124    47    49   ar
   125    50    52   ar
   126    83    82    1
   127    84    77   am
   128    49    51   ar
   129    52    51   ar
   130    52    53    1
   131    82    81    1
   132    78    77    2
   133    77    76    1
   134    80    81    1
   135    80    79    1
   136    76    79    1
   137    76    75    1
