@<TRIPOS>MOLECULE
tmp/5farC01.pdb
 91 87 0 0 0
SMALL
GASTEIGER

@<TRIPOS>ATOM
      1  N         29.6110   95.3310   24.7800 N.3    15  VAL15      -0.1231
      2  CA        29.5020   95.9200   26.1190 C.3    15  VAL15       0.1692
      3  C         29.7780   94.8890   27.2190 C.2    15  VAL15       0.2592
      4  O         30.4650   95.2120   28.1940 O.2    15  VAL15      -0.2718
      5  CB        28.1290   96.6180   26.3040 C.3    15  VAL15       0.0266
      6  CG1       27.8870   97.0360   27.7490 C.3    15  VAL15       0.0020
      7  CG2       28.0490   97.8520   25.3910 C.3    15  VAL15       0.0020
      8  N         29.2500   93.6680   27.0610 N.am   16  PHE16      -0.1976
      9  CA        29.4630   92.5730   28.0240 C.3    16  PHE16       0.1639
     10  C         30.8030   91.8690   27.8210 C.2    16  PHE16       0.2290
     11  O         31.1620   91.5810   26.6780 O.2    16  PHE16      -0.2864
     12  CB        28.3860   91.4800   27.8590 C.3    16  PHE16       0.0560
     13  CG        26.9820   91.9360   28.1090 C.ar   16  PHE16      -0.0200
     14  CD1       26.6470   92.6500   29.2580 C.ar   16  PHE16      -0.0042
     15  CD2       25.9690   91.5920   27.2270 C.ar   16  PHE16      -0.0042
     16  CE1       25.3370   93.0400   29.4990 C.ar   16  PHE16      -0.0003
     17  CE2       24.6550   91.9800   27.4630 C.ar   16  PHE16      -0.0003
     18  CZ        24.3390   92.7060   28.6040 C.ar   16  PHE16      -0.0000
     19  N         30.3390   88.6560   25.7890 N.3    19  GLU19      -0.1245
     20  CA        30.4520   88.9350   24.3450 C.3    19  GLU19       0.1567
     21  C         31.8850   88.9460   23.8440 C.2    19  GLU19       0.2260
     22  O         32.1800   88.3780   22.7760 O.2    19  GLU19      -0.2867
     23  CB        29.7640   90.2590   23.9730 C.3    19  GLU19       0.0388
     24  CG        28.2550   90.2170   24.1380 C.3    19  GLU19       0.1160
     25  CD        27.5630   91.4100   23.5210 C.2    19  GLU19       0.3649
     26  OE1       27.4600   92.4400   24.2210 O.co2  19  GLU19      -0.2457
     27  OE2       27.0920   91.3050   22.3600 O.co2  19  GLU19      -0.2457
     28  N         33.7970   98.1870   22.2670 N.3    68  LYS68      -0.1231
     29  CA        32.5880   97.8450   23.0080 C.3    68  LYS68       0.1693
     30  C         31.3230   98.1400   22.2130 C.2    68  LYS68       0.2592
     31  O         30.3600   97.3810   22.2900 O.2    68  LYS68      -0.2718
     32  CB        32.5550   98.5480   24.3690 C.3    68  LYS68       0.0285
     33  CG        33.6260   98.0340   25.3210 C.3    68  LYS68       0.0035
     34  CD        33.8540   98.9690   26.4990 C.3    68  LYS68       0.0206
     35  CE        35.1880   98.6940   27.1830 C.3    68  LYS68       0.1093
     36  NZ        36.3250   99.3620   26.4850 N.3    68  LYS68      -0.1314
     37  N         31.3210   99.2290   21.4460 N.am   69  LEU69      -0.1966
     38  CA        30.1320   99.6360   20.7070 C.3    69  LEU69       0.1728
     39  C         30.2790   99.4600   19.1890 C.2    69  LEU69       0.2616
     40  O         31.3080   99.8350   18.6030 O.2    69  LEU69      -0.2715
     41  CB        29.7670  101.0910   21.0320 C.3    69  LEU69       0.0311
     42  CG        29.5540  101.5110   22.4970 C.3    69  LEU69       0.0022
     43  CD1       28.8550  102.8640   22.5430 C.3    69  LEU69       0.0001
     44  CD2       28.7620  100.4830   23.2990 C.3    69  LEU69       0.0001
     45  N         29.2430   98.8930   18.5630 N.am   70  VAL70      -0.1963
     46  CA        29.0750   98.9620   17.1040 C.3    70  VAL70       0.1727
     47  C         29.0850  100.4020   16.5660 C.2    70  VAL70       0.2616
     48  O         29.3580  100.6080   15.3890 O.2    70  VAL70      -0.2715
     49  CB        27.7950   98.2350   16.5950 C.3    70  VAL70       0.0290
     50  CG1       27.8480   96.7470   16.8990 C.3    70  VAL70       0.0023
     51  CG2       26.5150   98.8480   17.1530 C.3    70  VAL70       0.0023
     52  N         28.7600  101.3780   17.4170 N.am   71  GLU71      -0.1977
     53  CA        28.9680  102.7960   17.1020 C.3    71  GLU71       0.1602
     54  C         30.4360  103.1630   16.8350 C.2    71  GLU71       0.2287
     55  O         30.6940  104.0950   16.0690 O.2    71  GLU71      -0.2864
     56  CB        28.4230  103.7100   18.2140 C.3    71  GLU71       0.0415
     57  CG        26.9010  103.8240   18.2930 C.3    71  GLU71       0.1163
     58  CD        26.2780  102.8430   19.2690 C.2    71  GLU71       0.3649
     59  OE1       26.7140  101.6760   19.2950 O.co2  71  GLU71      -0.2457
     60  OE2       25.3540  103.2330   20.0090 O.co2  71  GLU71      -0.2457
     61  N         24.3500   93.7890   13.9740 N.3    97  LYS97      -0.1245
     62  CA        24.5940   92.7710   14.9530 C.3    97  LYS97       0.1561
     63  C         23.3970   91.8000   14.7960 C.2    97  LYS97       0.2260
     64  O         22.4010   91.9440   15.4870 O.2    97  LYS97      -0.2867
     65  CB        24.6840   93.4010   16.3460 C.3    97  LYS97       0.0271
     66  CG        25.8920   92.9570   17.1680 C.3    97  LYS97       0.0035
     67  CD        25.6750   93.1450   18.6610 C.3    97  LYS97       0.0206
     68  CE        26.9740   93.2480   19.4290 C.3    97  LYS97       0.1093
     69  NZ        26.7250   93.5130   20.8760 N.3    97  LYS97      -0.1314
     70  N         22.8310   89.5130   22.2280 N.3   101  PRO101     -0.2102
     71  CA        22.3180   88.8020   23.3790 C.3   101  PRO101      0.1504
     72  C         21.0760   89.3490   24.0190 C.2   101  PRO101      0.2575
     73  O         21.0480   89.4920   25.2390 O.2   101  PRO101     -0.2718
     74  CB        23.5100   88.8240   24.3400 C.3   101  PRO101      0.0282
     75  CG        24.2830   90.0360   23.9370 C.3   101  PRO101      0.0208
     76  CD        24.2240   89.9330   22.4570 C.3   101  PRO101      0.0893
     77  N         20.0280   89.5830   23.2270 N.am  102  ILE102     -0.1980
     78  CA        18.7600   90.0900   23.7520 C.3   102  ILE102      0.1595
     79  C         17.6490   89.0710   23.7280 C.2   102  ILE102      0.2287
     80  O         17.3600   88.5350   22.6760 O.2   102  ILE102     -0.2864
     81  CB        18.2020   91.2600   22.9400 C.3   102  ILE102      0.0276
     82  CG1       19.2240   92.4020   22.8600 C.3   102  ILE102      0.0022
     83  CG2       16.8840   91.7400   23.5530 C.3   102  ILE102      0.0022
     84  CD1       18.8800   93.3880   21.7760 C.3   102  ILE102      0.0001
     85  N         23.5000  100.0480   13.7660 N.3   111  VAL111     -0.1245
     86  CA        23.7850  101.4820   13.7910 C.3   111  VAL111      0.1561
     87  C         24.0340  101.8560   12.3550 C.2   111  VAL111      0.2260
     88  O         24.3150  100.9820   11.5220 O.2   111  VAL111     -0.2867
     89  CB        24.9850  101.8590   14.6790 C.3   111  VAL111      0.0252
     90  CG1       24.5950  101.7320   16.1430 C.3   111  VAL111      0.0019
     91  CG2       26.2120  101.0090   14.3790 C.3   111  VAL111      0.0019
@<TRIPOS>BOND
     1    88    87    2
     2    87    86    1
     3    85    86    1
     4    86    89    1
     5    61    62    1
     6    91    89    1
     7    89    90    1
     8    63    62    1
     9    63    64    2
    10    62    65    1
    11    48    47    2
    12    55    54    2
    13    65    66    1
    14    47    46    1
    15    47    52   am
    16    49    50    1
    17    49    46    1
    18    49    51    1
    19    54    53    1
    20    53    52    1
    21    53    56    1
    22    46    45    1
    23    66    67    1
    24    56    57    1
    25    57    58    1
    26    45    39   am
    27    40    39    2
    28    67    68    1
    29    39    38    1
    30    58    59   ar
    31    58    60   ar
    32    68    69    1
    33    38    41    1
    34    38    37    1
    35    41    42    1
    36    37    30   am
    37    84    82    1
    38    30    31    2
    39    30    29    1
    40    70    76    1
    41    70    71    1
    42    28    29    1
    43    27    25   ar
    44    76    75    1
    45    42    43    1
    46    42    44    1
    47    80    79    2
    48    22    21    2
    49    82    81    1
    50    81    83    1
    51    81    78    1
    52    29    32    1
    53    77    78    1
    54    77    72   am
    55    71    72    1
    56    71    74    1
    57    25    24    1
    58    25    26   ar
    59    79    78    1
    60    21    20    1
    61    75    74    1
    62    23    24    1
    63    23    20    1
    64    72    73    2
    65    20    19    1
    66    32    33    1
    67     1     2    1
    68    33    34    1
    69     7     5    1
    70     2     5    1
    71     2     3    1
    72     5     6    1
    73    36    35    1
    74    34    35    1
    75    11    10    2
    76     8     3   am
    77     8     9    1
    78     3     4    2
    79    15    17   ar
    80    15    13   ar
    81    17    18   ar
    82    10     9    1
    83    12     9    1
    84    12    13    1
    85    13    14   ar
    86    18    16   ar
    87    14    16   ar
