@<TRIPOS>MOLECULE
tmp/5fasB00.pdb
 135 129 0 0 0
SMALL
GASTEIGER

@<TRIPOS>ATOM
      1  N         24.2460    8.7630   39.2880 N.3    45  ALA45      -0.1231
      2  CA        24.7750   10.1200   39.1790 C.3    45  ALA45       0.1694
      3  C         23.9080   10.9440   38.2110 C.2    45  ALA45       0.2592
      4  O         22.6800   10.9200   38.3410 O.2    45  ALA45      -0.2718
      5  CB        26.2260   10.0880   38.7230 C.3    45  ALA45       0.0304
      6  N         24.5300   11.7080   37.3070 N.am   46  SER46      -0.1952
      7  CA        23.7320   12.6360   36.5020 C.3    46  SER46       0.1924
      8  C         22.6590   11.9820   35.6200 C.2    46  SER46       0.2314
      9  O         21.7870   12.7030   35.1050 O.2    46  SER46      -0.2863
     10  CB        24.6300   13.5180   35.6460 C.3    46  SER46       0.2116
     11  OG        25.4290   14.3190   36.5320 O.3    46  SER46      -0.2180
     12  N         32.4670   24.0600   37.4920 N.3    78  ILE78      -0.1245
     13  CA        32.0120   23.9430   36.1120 C.3    78  ILE78       0.1561
     14  C         31.3460   25.2550   35.6910 C.2    78  ILE78       0.2260
     15  O         30.3060   25.6740   36.2240 O.2    78  ILE78      -0.2867
     16  CB        31.0460   22.7280   35.9490 C.3    78  ILE78       0.0252
     17  CG1       31.7370   21.4590   36.4730 C.3    78  ILE78       0.0019
     18  CG2       30.7020   22.5050   34.4890 C.3    78  ILE78       0.0019
     19  CD1       30.9560   20.1730   36.3030 C.3    78  ILE78       0.0001
     20  N         27.6700   26.0450   34.9340 N.3    81  TRP81      -0.1241
     21  CA        26.7350   26.0160   36.0660 C.3    81  TRP81       0.1605
     22  C         26.5020   27.4040   36.6510 C.2    81  TRP81       0.2264
     23  O         25.5210   27.6590   37.3440 O.2    81  TRP81      -0.2867
     24  CB        27.2310   25.0850   37.1660 C.3    81  TRP81       0.0550
     25  CG        27.3010   23.6210   36.8070 C.ar   81  TRP81       0.0003
     26  CD1       27.0920   23.0510   35.5800 C.ar   81  TRP81       0.0946
     27  CD2       27.5030   22.5380   37.7250 C.ar   81  TRP81       0.0152
     28  NE1       27.2030   21.6820   35.6700 N.ar   81  TRP81      -0.2442
     29  CE2       27.4300   21.3380   36.9840 C.ar   81  TRP81       0.0810
     30  CE3       27.7190   22.4640   39.1040 C.ar   81  TRP81       0.0012
     31  CZ2       27.6150   20.1000   37.5630 C.ar   81  TRP81       0.0191
     32  CZ3       27.9020   21.2030   39.6870 C.ar   81  TRP81       0.0001
     33  CH2       27.8700   20.0420   38.9030 C.ar   81  TRP81       0.0015
     34  N         23.9710   20.8590   30.1930 N.3    93  TYR93      -0.1227
     35  CA        25.1970   21.1610   30.9540 C.3    93  TYR93       0.1736
     36  C         25.2460   20.4260   32.2920 C.2    93  TYR93       0.2596
     37  O         26.1760   20.6270   33.1220 O.2    93  TYR93      -0.2718
     38  CB        25.2570   22.6610   31.1570 C.3    93  TYR93       0.0548
     39  CG        25.4160   23.3790   29.8520 C.ar   93  TYR93      -0.0200
     40  CD1       26.5610   23.1740   29.0790 C.ar   93  TYR93      -0.0009
     41  CD2       24.4470   24.2730   29.3830 C.ar   93  TYR93      -0.0009
     42  CE1       26.7250   23.8260   27.8750 C.ar   93  TYR93       0.0417
     43  CE2       24.5810   24.8630   28.1360 C.ar   93  TYR93       0.0417
     44  CZ        25.7360   24.6370   27.3930 C.ar   93  TYR93       0.1957
     45  OH        25.9140   25.2010   26.1280 O.3    93  TYR93      -0.2866
     46  N         24.2530   19.5510   32.4930 N.am   94  SER94      -0.1952
     47  CA        24.1840   18.6710   33.6400 C.3    94  SER94       0.1924
     48  C         24.3980   19.4320   34.9290 C.2    94  SER94       0.2314
     49  O         25.2710   19.0940   35.7490 O.2    94  SER94      -0.2863
     50  CB        25.1370   17.5060   33.4850 C.3    94  SER94       0.2116
     51  OG        24.6900   16.3790   34.2020 O.3    94  SER94      -0.2180
     52  N         23.8610   20.1140   38.3340 N.3    96  VAL96      -0.1245
     53  CA        23.4590   19.4120   39.5520 C.3    96  VAL96       0.1561
     54  C         22.7140   20.3040   40.5340 C.2    96  VAL96       0.2260
     55  O         21.6660   19.9170   41.0650 O.2    96  VAL96      -0.2867
     56  CB        24.6650   18.7190   40.2090 C.3    96  VAL96       0.0252
     57  CG1       24.3190   18.1640   41.5860 C.3    96  VAL96       0.0019
     58  CG2       25.2500   17.6120   39.3550 C.3    96  VAL96       0.0019
     59  N         23.8690   10.5580   43.9640 N.3   134  LEU134     -0.1245
     60  CA        25.2780   10.8630   43.8690 C.3   134  LEU134      0.1561
     61  C         26.0830   10.1370   44.9830 C.2   134  LEU134      0.2260
     62  O         27.1750    9.6020   44.7370 O.2   134  LEU134     -0.2867
     63  CB        25.4500   12.3740   44.0080 C.3   134  LEU134      0.0270
     64  CG        24.8050   13.2220   42.9020 C.3   134  LEU134      0.0019
     65  CD1       24.7240   14.6790   43.3070 C.3   134  LEU134      0.0001
     66  CD2       25.5910   13.0730   41.6230 C.3   134  LEU134      0.0001
     67  N         21.3660   10.7970   28.1090 N.3   184  LYS184     -0.1231
     68  CA        21.8840   11.5550   29.2040 C.3   184  LYS184      0.1693
     69  C         23.1960   10.8950   29.6680 C.2   184  LYS184      0.2593
     70  O         23.2730    9.6730   29.8670 O.2   184  LYS184     -0.2718
     71  CB        20.9030   11.6410   30.3810 C.3   184  LYS184      0.0285
     72  CG        21.3720   12.5020   31.5810 C.3   184  LYS184      0.0035
     73  CD        21.4780   13.9850   31.2050 C.3   184  LYS184      0.0206
     74  CE        22.2420   14.8030   32.2470 C.3   184  LYS184      0.1093
     75  NZ        23.7150   14.6700   32.0730 N.3   184  LYS184     -0.1314
     76  N         24.2040   11.7390   29.7960 N.am  185  THR185     -0.1939
     77  CA        25.4960   11.3200   30.3440 C.3   185  THR185      0.2028
     78  C         25.4960   11.3070   31.8720 C.2   185  THR185      0.2643
     79  O         24.7520   12.0410   32.5130 O.2   185  THR185     -0.2714
     80  CB        26.6040   12.2910   29.8370 C.3   185  THR185      0.1808
     81  OG1       26.1370   13.6420   29.9300 O.3   185  THR185     -0.2208
     82  CG2       26.9590   11.9820   28.4470 C.3   185  THR185      0.0379
     83  N         26.4410   10.5600   32.4740 N.am  186  GLY186     -0.1939
     84  CA        26.7270   10.7460   33.8700 C.3   186  GLY186      0.2014
     85  C         28.1700   10.3860   34.2030 C.2   186  GLY186      0.2638
     86  O         28.8420    9.7290   33.4170 O.2   186  GLY186     -0.2714
     87  N         28.5940   10.8120   35.3850 N.am  187  TYR187     -0.1973
     88  CA        29.9610   10.5330   35.8860 C.3   187  TYR187      0.1639
     89  C         29.8760   10.4210   37.4130 C.2   187  TYR187      0.2290
     90  O         29.6460   11.4240   38.0900 O.2   187  TYR187     -0.2864
     91  CB        30.8900   11.6580   35.4780 C.3   187  TYR187      0.0560
     92  CG        32.3750   11.3930   35.7940 C.ar  187  TYR187     -0.0198
     93  CD1       32.8350   10.1090   36.0040 C.ar  187  TYR187     -0.0009
     94  CD2       33.2670   12.4510   35.9490 C.ar  187  TYR187     -0.0009
     95  CE1       34.1670    9.8630   36.3000 C.ar  187  TYR187      0.0417
     96  CE2       34.6060   12.2150   36.2480 C.ar  187  TYR187      0.0417
     97  CZ        35.0540   10.9160   36.3900 C.ar  187  TYR187      0.1957
     98  OH        36.3920   10.6440   36.6820 O.3   187  TYR187     -0.2866
     99  N         31.4920    9.8350   40.7690 N.3   189  THR189     -0.1203
    100  CA        32.8460   10.0450   41.3300 C.3   189  THR189      0.1994
    101  C         32.8830    9.9870   42.8580 C.2   189  THR189      0.2617
    102  O         33.8740    9.5280   43.4470 O.2   189  THR189     -0.2717
    103  CB        33.4150   11.4050   40.9150 C.3   189  THR189      0.1784
    104  OG1       32.6220   12.4640   41.4720 O.3   189  THR189     -0.2211
    105  CG2       33.4340   11.5200   39.4130 C.3   189  THR189      0.0376
    106  N         31.8160   10.4700   43.4890 N.am  190  ARG190     -0.1979
    107  CA        31.7970   10.7060   44.9310 C.3   190  ARG190      0.1597
    108  C         32.0400    9.4160   45.7310 C.2   190  ARG190      0.2287
    109  O         32.5560    9.4520   46.8580 O.2   190  ARG190     -0.2864
    110  CB        30.4400   11.2750   45.3500 C.3   190  ARG190      0.0334
    111  CG        30.0610   12.5860   44.6780 C.3   190  ARG190      0.0492
    112  CD        29.0860   13.3490   45.5630 C.3   190  ARG190      0.2205
    113  NE        28.6710   14.6060   44.9410 N.pl3 190  ARG190     -0.0865
    114  CZ        27.8280   15.4710   45.4940 C.cat 190  ARG190      0.5346
    115  NH1       27.3130   15.2140   46.6880 N.pl3 190  ARG190      0.1354
    116  NH2       27.4920   16.5890   44.8530 N.pl3 190  ARG190      0.1354
    117  N         36.3480   11.1960   29.4600 N.3   223  LEU223     -0.1245
    118  CA        34.8720   11.2390   29.4090 C.3   223  LEU223      0.1561
    119  C         34.2880   11.1470   27.9920 C.2   223  LEU223      0.2260
    120  O         33.2290   10.5380   27.7900 O.2   223  LEU223     -0.2867
    121  CB        34.3590   12.4890   30.1010 C.3   223  LEU223      0.0270
    122  CG        34.3870   12.4830   31.6180 C.3   223  LEU223      0.0019
    123  CD1       34.1270   13.8710   32.1680 C.3   223  LEU223      0.0001
    124  CD2       33.3960   11.4790   32.1650 C.3   223  LEU223      0.0001
    125  N         32.7690    7.8260   26.4590 N.3   226  ARG226     -0.1245
    126  CA        31.4020    7.3140   26.7200 C.3   226  ARG226      0.1563
    127  C         30.6290    7.3070   25.4020 C.2   226  ARG226      0.2260
    128  O         30.1520    6.2680   24.9360 O.2   226  ARG226     -0.2867
    129  CB        30.7060    8.2280   27.7190 C.3   226  ARG226      0.0307
    130  CG        31.2260    8.1270   29.1300 C.3   226  ARG226      0.0489
    131  CD        30.7670    9.2240   30.0840 C.3   226  ARG226      0.2205
    132  NE        30.8980   10.5780   29.5760 N.pl3 226  ARG226     -0.0865
    133  CZ        30.4350   11.6430   30.2220 C.cat 226  ARG226      0.5346
    134  NH1       30.6620   12.8660   29.7640 N.pl3 226  ARG226      0.1354
    135  NH2       29.7360   11.4980   31.3350 N.pl3 226  ARG226      0.1354
@<TRIPOS>BOND
     1   128   127    2
     2   127   126    1
     3    45    44    1
     4   125   126    1
     5   126   129    1
     6    44    42   ar
     7    44    43   ar
     8   129   130    1
     9   120   119    2
    10    42    40   ar
    11   119   118    1
    12    67    68    1
    13    43    41   ar
    14    82    80    1
    15    40    39   ar
    16   130   131    1
    17    68    69    1
    18    68    71    1
    19    41    39   ar
    20   118   117    1
    21   118   121    1
    22   132   131    1
    23   132   133    2
    24    69    76   am
    25    69    70    2
    26   134   133    1
    27    76    77    1
    28    80    81    1
    29    80    77    1
    30    39    38    1
    31   121   122    1
    32    34    35    1
    33   133   135    1
    34    77    78    1
    35    71    72    1
    36    35    38    1
    37    35    36    1
    38    73    72    1
    39    73    74    1
    40   122   124    1
    41   122   123    1
    42    78    83   am
    43    78    79    2
    44    75    74    1
    45    36    46   am
    46    36    37    2
    47    83    84    1
    48    46    47    1
    49    86    85    2
    50    50    47    1
    51    50    51    1
    52    47    48    1
    53    84    85    1
    54    85    87   am
    55    18    16    1
    56    48    49    2
    57    20    21    1
    58     9     8    2
    59    87    88    1
    60    91    92    1
    61    91    88    1
    62    26    28   ar
    63    26    25   ar
    64     8     7    1
    65    10     7    1
    66    10    11    1
    67    28    29   ar
    68    14    13    1
    69    14    15    2
    70    92    94   ar
    71    92    93   ar
    72    88    89    1
    73    94    96   ar
    74    16    13    1
    75    16    17    1
    76    93    95   ar
    77    21    22    1
    78    21    24    1
    79    13    12    1
    80    96    97   ar
    81    95    97   ar
    82    19    17    1
    83    97    98    1
    84     7     6    1
    85    22    23    2
    86    25    24    1
    87    25    27   ar
    88    29    31   ar
    89    29    27   ar
    90     6     3   am
    91    89    90    2
    92    31    33   ar
    93    27    30   ar
    94     3     4    2
    95     3     2    1
    96    52    53    1
    97     5     2    1
    98    33    32   ar
    99    30    32   ar
   100     2     1    1
   101    58    56    1
   102   105   103    1
   103    53    56    1
   104    53    54    1
   105    56    57    1
   106    54    55    2
   107    99   100    1
   108   103   100    1
   109   103   104    1
   110   100   101    1
   111    66    64    1
   112   101   102    2
   113   101   106   am
   114    64    65    1
   115    64    63    1
   116   106   107    1
   117    60    59    1
   118    60    63    1
   119    60    61    1
   120   111   110    1
   121   111   112    1
   122    62    61    2
   123   116   114    1
   124   107   110    1
   125   107   108    1
   126   113   114    2
   127   113   112    1
   128   114   115    1
   129   108   109    2
