@<TRIPOS>MOLECULE
tmp/5fatA00.pdb
 143 137 0 0 0
SMALL
GASTEIGER

@<TRIPOS>ATOM
      1  N          2.9370   25.1710   -0.4710 N.3    47  ALA47      -0.1231
      2  CA         3.2940   23.7900   -0.8270 C.3    47  ALA47       0.1694
      3  C          3.5970   23.0000    0.4270 C.2    47  ALA47       0.2592
      4  O          2.8510   23.1130    1.4080 O.2    47  ALA47      -0.2718
      5  CB         4.4810   23.7680   -1.7810 C.3    47  ALA47       0.0304
      6  N          4.7010   22.2510    0.4320 N.am   48  SER48      -0.1952
      7  CA         4.9140   21.2910    1.5430 C.3    48  SER48       0.1924
      8  C          5.1230   21.9000    2.9190 C.2    48  SER48       0.2314
      9  O          4.9750   21.2040    3.9250 O.2    48  SER48      -0.2863
     10  CB         6.0240   20.2870    1.2760 C.3    48  SER48       0.2116
     11  OG         5.8480   19.6340    0.0360 O.3    48  SER48      -0.2180
     12  N          6.6460    9.0750   -8.1300 N.3    79  ASP79      -0.1225
     13  CA         7.9750    9.4060   -8.6260 C.3    79  ASP79       0.1805
     14  C          9.0450    9.3130   -7.5450 C.2    79  ASP79       0.2597
     15  O         10.2020    9.0240   -7.8440 O.2    79  ASP79      -0.2718
     16  CB         8.0210   10.8450   -9.1440 C.3    79  ASP79       0.1424
     17  CG         7.3490   11.0250  -10.4860 C.2    79  ASP79       0.3668
     18  OD1        6.9160   10.0190  -11.0900 O.co2  79  ASP79      -0.2456
     19  OD2        7.2770   12.1970  -10.9330 O.co2  79  ASP79      -0.2456
     20  N          8.7000    9.7230   -6.3260 N.am   80  ILE80      -0.1980
     21  CA         9.6720    9.8420   -5.2310 C.3    80  ILE80       0.1595
     22  C          9.5970    8.5400   -4.4360 C.2    80  ILE80       0.2287
     23  O          8.6180    8.2400   -3.7410 O.2    80  ILE80      -0.2864
     24  CB         9.3490   11.0740   -4.3490 C.3    80  ILE80       0.0276
     25  CG1        9.5130   12.3410   -5.1820 C.3    80  ILE80       0.0022
     26  CG2       10.1860   11.1020   -3.0750 C.3    80  ILE80       0.0022
     27  CD1        8.8130   13.5400   -4.5670 C.3    80  ILE80       0.0001
     28  N          8.1900    7.6990   -0.9220 N.3    83  TRP83      -0.1241
     29  CA         6.7520    7.7310   -0.6880 C.3    83  TRP83       0.1605
     30  C          6.0780    6.3830   -0.8220 C.2    83  TRP83       0.2264
     31  O          4.9010    6.2600   -0.5120 O.2    83  TRP83      -0.2867
     32  CB         6.0770    8.6650   -1.6830 C.3    83  TRP83       0.0550
     33  CG         6.4470   10.0750   -1.5440 C.ar   83  TRP83       0.0003
     34  CD1        7.3780   10.5990   -0.7230 C.ar   83  TRP83       0.0946
     35  CD2        5.8380   11.1760   -2.2380 C.ar   83  TRP83       0.0152
     36  NE1        7.4270   11.9730   -0.8850 N.ar   83  TRP83      -0.2442
     37  CE2        6.4960   12.3440   -1.8210 C.ar   83  TRP83       0.0810
     38  CE3        4.7880   11.2790   -3.1640 C.ar   83  TRP83       0.0012
     39  CZ2        6.1090   13.6150   -2.2510 C.ar   83  TRP83       0.0191
     40  CZ3        4.4470   12.5390   -3.6560 C.ar   83  TRP83       0.0001
     41  CH2        5.1180   13.6940   -3.2020 C.ar   83  TRP83       0.0015
     42  N         10.1370   12.8310    4.8280 N.3    95  TYR95      -0.1227
     43  CA        10.2160   12.5900    3.3880 C.3    95  TYR95       0.1736
     44  C          9.1490   13.3390    2.6300 C.2    95  TYR95       0.2596
     45  O          8.9840   13.1190    1.4330 O.2    95  TYR95      -0.2718
     46  CB        10.1330   11.0980    3.0950 C.3    95  TYR95       0.0548
     47  CG        11.2860   10.3950    3.7170 C.ar   95  TYR95      -0.0200
     48  CD1       12.5670   10.5750    3.2130 C.ar   95  TYR95      -0.0009
     49  CD2       11.1160    9.5820    4.8210 C.ar   95  TYR95      -0.0009
     50  CE1       13.6570    9.9400    3.7780 C.ar   95  TYR95       0.0417
     51  CE2       12.1990    8.9310    5.3750 C.ar   95  TYR95       0.0417
     52  CZ        13.4500    9.1150    4.8430 C.ar   95  TYR95       0.1957
     53  OH        14.5330    8.5050    5.4190 O.3    95  TYR95      -0.2866
     54  N          8.4240   14.2160    3.3300 N.am   96  SER96      -0.1952
     55  CA         7.3970   15.0960    2.7150 C.3    96  SER96       0.1924
     56  C          6.3860   14.3740    1.8390 C.2    96  SER96       0.2314
     57  O          6.1830   14.7340    0.6780 O.2    96  SER96      -0.2863
     58  CB         8.0740   16.2200    1.9190 C.3    96  SER96       0.2116
     59  OG         7.3900   17.4680    2.0130 O.3    96  SER96      -0.2180
     60  N          3.3540   13.7400    0.4580 N.3    98  VAL98      -0.1245
     61  CA         2.0830   14.3490    0.0720 C.3    98  VAL98       0.1561
     62  C          0.8310   13.4670    0.2030 C.2    98  VAL98       0.2260
     63  O         -0.1570   13.9070    0.7620 O.2    98  VAL98      -0.2867
     64  CB         2.1460   14.9320   -1.3730 C.3    98  VAL98       0.0252
     65  CG1        0.8390   15.6210   -1.7340 C.3    98  VAL98       0.0019
     66  CG2        3.2220   16.0070   -1.4620 C.3    98  VAL98       0.0019
     67  N         -1.2210   23.2910   -2.7450 N.3   136  LEU136     -0.1245
     68  CA        -0.3460   23.0440   -3.9150 C.3   136  LEU136      0.1561
     69  C         -0.8060   23.7840   -5.1790 C.2   136  LEU136      0.2260
     70  O          0.0390   24.2840   -5.9200 O.2   136  LEU136     -0.2867
     71  CB        -0.3240   21.5570   -4.2530 C.3   136  LEU136      0.0270
     72  CG         0.1490   20.7060   -3.0660 C.3   136  LEU136      0.0019
     73  CD1       -0.1870   19.2370   -3.2430 C.3   136  LEU136      0.0001
     74  CD2        1.6370   20.9160   -2.8290 C.3   136  LEU136      0.0001
     75  N         10.6680   23.0580    8.0890 N.3   186  LYS186     -0.1231
     76  CA        10.0660   22.3070    6.9970 C.3   186  LYS186      0.1693
     77  C         10.3870   22.9230    5.6400 C.2   186  LYS186      0.2593
     78  O         10.2170   24.1080    5.4540 O.2   186  LYS186     -0.2718
     79  CB         8.5490   22.1940    7.1580 C.3   186  LYS186      0.0285
     80  CG         7.8990   21.3400    6.0770 C.3   186  LYS186      0.0035
     81  CD         8.1400   19.8680    6.3090 C.3   186  LYS186      0.0206
     82  CE         7.5460   18.9620    5.2340 C.3   186  LYS186      0.1093
     83  NZ         8.3610   19.0730    3.9990 N.3   186  LYS186     -0.1314
     84  N         10.8010   22.0790    4.6930 N.am  187  THR187     -0.1939
     85  CA        11.0490   22.4920    3.3150 C.3   187  THR187      0.2028
     86  C          9.7600   22.4410    2.5270 C.2   187  THR187      0.2643
     87  O          8.8030   21.7450    2.8790 O.2   187  THR187     -0.2714
     88  CB        12.0040   21.5030    2.6390 C.3   187  THR187      0.1808
     89  OG1       11.5810   20.2000    3.0290 O.3   187  THR187     -0.2208
     90  CG2       13.4400   21.6820    3.1020 C.3   187  THR187      0.0379
     91  N          9.7570   23.1630    1.4190 N.am  188  GLY188     -0.1939
     92  CA         8.7260   23.0010    0.4040 C.3   188  GLY188      0.2014
     93  C          9.2210   23.3960   -0.9820 C.2   188  GLY188      0.2638
     94  O         10.2360   24.0730   -1.1320 O.2   188  GLY188     -0.2714
     95  N          8.5220   22.9010   -2.0000 N.am  189  TYR189     -0.1973
     96  CA         8.8120   23.2220   -3.3830 C.3   189  TYR189      0.1639
     97  C          7.4860   23.3530   -4.1330 C.2   189  TYR189      0.2290
     98  O          6.7770   22.3750   -4.3560 O.2   189  TYR189     -0.2864
     99  CB         9.6720   22.1130   -3.9710 C.3   189  TYR189      0.0560
    100  CG        10.1980   22.3140   -5.3970 C.ar  189  TYR189     -0.0198
    101  CD1       10.1950   23.5590   -5.9920 C.ar  189  TYR189     -0.0009
    102  CD2       10.7150   21.2430   -6.1310 C.ar  189  TYR189     -0.0009
    103  CE1       10.6670   23.7460   -7.2720 C.ar  189  TYR189      0.0417
    104  CE2       11.2510   21.4340   -7.4010 C.ar  189  TYR189      0.0417
    105  CZ        11.2120   22.6890   -7.9650 C.ar  189  TYR189      0.1957
    106  OH        11.7060   22.9510   -9.2320 O.3   189  TYR189     -0.2866
    107  N          5.7170   23.9210   -7.4210 N.3   191  THR191     -0.1203
    108  CA         5.9870   23.6770   -8.8270 C.3   191  THR191      0.1994
    109  C          4.7510   23.7740   -9.7360 C.2   191  THR191      0.2617
    110  O          4.9160   23.9690  -10.9230 O.2   191  THR191     -0.2717
    111  CB         6.5270   22.2600   -9.0150 C.3   191  THR191      0.1784
    112  OG1        5.5870   21.2960   -8.5250 O.3   191  THR191     -0.2211
    113  CG2        7.7930   22.0780   -8.2390 C.3   191  THR191      0.0376
    114  N          3.5340   23.5800   -9.2250 N.am  192  ARG192     -0.1979
    115  CA         2.3420   23.4750  -10.0880 C.3   192  ARG192      0.1597
    116  C          1.8080   24.7970  -10.5920 C.2   192  ARG192      0.2287
    117  O          1.0420   24.8190  -11.5310 O.2   192  ARG192     -0.2864
    118  CB         1.1950   22.7380   -9.4010 C.3   192  ARG192      0.0334
    119  CG         1.5370   21.3130   -8.9790 C.3   192  ARG192      0.0492
    120  CD         0.4350   20.7260   -8.1050 C.3   192  ARG192      0.2205
    121  NE         0.8390   19.5270   -7.3630 N.pl3 192  ARG192     -0.0865
    122  CZ        -0.0230   18.6350   -6.8660 C.cat 192  ARG192      0.5346
    123  NH1       -1.3390   18.8200   -6.9870 N.pl3 192  ARG192      0.1354
    124  NH2        0.4210   17.5410   -6.2530 N.pl3 192  ARG192      0.1354
    125  N         17.6690   22.4430   -5.1350 N.3   225  LEU225     -0.1245
    126  CA        16.9230   22.3770   -3.8850 C.3   225  LEU225      0.1561
    127  C         17.8000   22.5100   -2.6240 C.2   225  LEU225      0.2260
    128  O         17.4010   23.1370   -1.6310 O.2   225  LEU225     -0.2867
    129  CB        16.1000   21.1030   -3.8390 C.3   225  LEU225      0.0270
    130  CG        14.8260   21.1120   -4.7020 C.3   225  LEU225      0.0019
    131  CD1       14.2330   19.7190   -4.7080 C.3   225  LEU225      0.0001
    132  CD2       13.7790   22.1150   -4.2590 C.3   225  LEU225      0.0001
    133  N         18.3970   25.8570   -0.7160 N.3   228  ARG228     -0.1245
    134  CA        17.4740   26.3740    0.2780 C.3   228  ARG228      0.1563
    135  C         18.1610   26.4010    1.6250 C.2   228  ARG228      0.2260
    136  O         18.2180   27.4360    2.3000 O.2   228  ARG228     -0.2867
    137  CB        16.2200   25.5120    0.3180 C.3   228  ARG228      0.0307
    138  CG        15.3510   25.6970   -0.8900 C.3   228  ARG228      0.0489
    139  CD        14.2360   24.6790   -0.9600 C.3   228  ARG228      0.2205
    140  NE        14.6810   23.2970   -0.8040 N.pl3 228  ARG228     -0.0865
    141  CZ        13.8480   22.2620   -0.7420 C.cat 228  ARG228      0.5346
    142  NH1       14.3420   21.0530   -0.5970 N.pl3 228  ARG228      0.1354
    143  NH2       12.5280   22.4220   -0.8190 N.pl3 228  ARG228      0.1354
@<TRIPOS>BOND
     1   117   116    2
     2    18    17   ar
     3    19    17   ar
     4   110   109    2
     5   116   115    1
     6    17    16    1
     7   115   118    1
     8   115   114    1
     9   109   114   am
    10   109   108    1
    11   118   119    1
    12   106   105    1
    13    16    13    1
    14   111   108    1
    15   111   112    1
    16   111   113    1
    17   119   120    1
    18   108   107    1
    19    13    12    1
    20    13    14    1
    21   120   121    1
    22   105   104   ar
    23   105   103   ar
    24    15    14    2
    25    14    20   am
    26   104   102   ar
    27   121   122    2
    28   103   101   ar
    29   123   122    1
    30   122   124    1
    31    20    21    1
    32   102   100   ar
    33   101   100   ar
    34    70    69    2
    35   100    99    1
    36    21    22    1
    37    21    24    1
    38    25    27    1
    39    25    24    1
    40    69    68    1
    41   125   126    1
    42   131   130    1
    43   130   132    1
    44   130   129    1
    45    22    23    2
    46    98    97    2
    47    24    26    1
    48    71    68    1
    49    71    72    1
    50    97    96    1
    51    99    96    1
    52    68    67    1
    53   126   129    1
    54   126   127    1
    55    40    41   ar
    56    40    38   ar
    57    96    95    1
    58    73    72    1
    59    41    39   ar
    60    38    35   ar
    61    72    74    1
    62   127   128    2
    63    39    37   ar
    64    35    37   ar
    65    35    33   ar
    66    95    93   am
    67    37    36   ar
    68     5     2    1
    69    65    64    1
    70    32    33    1
    71    32    29    1
    72    33    34   ar
    73    66    64    1
    74    64    61    1
    75    94    93    2
    76    93    92    1
    77   139   138    1
    78   139   140    1
    79    28    29    1
    80   138   137    1
    81    36    34   ar
    82     2     1    1
    83     2     3    1
    84    30    29    1
    85    30    31    2
    86   143   141    1
    87   140   141    2
    88   141   142    1
    89   133   134    1
    90    11    10    1
    91    61    62    1
    92    61    60    1
    93    62    63    2
    94   134   137    1
    95   134   135    1
    96    92    91    1
    97     3     6   am
    98     3     4    2
    99     6     7    1
   100    57    56    2
   101    10     7    1
   102    91    86   am
   103    45    44    2
   104     7     8    1
   105   135   136    2
   106    56    55    1
   107    58    59    1
   108    58    55    1
   109    86    87    2
   110    86    85    1
   111    44    54   am
   112    44    43    1
   113    88    89    1
   114    88    90    1
   115    88    85    1
   116    55    54    1
   117     8     9    2
   118    46    43    1
   119    46    47    1
   120    48    47   ar
   121    48    50   ar
   122    85    84    1
   123    43    42    1
   124    47    49   ar
   125    50    52   ar
   126    83    82    1
   127    84    77   am
   128    49    51   ar
   129    52    51   ar
   130    52    53    1
   131    82    81    1
   132    78    77    2
   133    77    76    1
   134    80    81    1
   135    80    79    1
   136    76    79    1
   137    76    75    1
