@<TRIPOS>MOLECULE
tmp/5fb0A00.pdb
 184 185 0 0 0
SMALL
GASTEIGER

@<TRIPOS>ATOM
      1  N         23.0720  -12.8330  -16.6100 N.3     2  ASP2       -0.1225
      2  CA        22.5590  -12.1540  -15.4240 C.3     2  ASP2        0.1790
      3  C         21.5560  -13.0460  -14.7020 C.2     2  ASP2        0.2440
      4  O         20.4610  -13.2940  -15.2210 O.2     2  ASP2       -0.2733
      5  CB        21.9150  -10.8220  -15.8130 C.3     2  ASP2        0.1423
      6  CG        21.6320   -9.9300  -14.6170 C.2     2  ASP2        0.3668
      7  OD1       21.6100  -10.4350  -13.4750 O.co2   2  ASP2       -0.2456
      8  OD2       21.4320   -8.7140  -14.8240 O.co2   2  ASP2       -0.2456
      9  N         21.8970  -13.5520  -13.5120 N.am    3  PRO3       -0.2718
     10  CA        20.9260  -14.3690  -12.7640 C.3     3  PRO3        0.1535
     11  C         19.6280  -13.6380  -12.4630 C.2     3  PRO3        0.2599
     12  O         18.5600  -14.2630  -12.4360 O.2     3  PRO3       -0.2715
     13  CB        21.6890  -14.7360  -11.4810 C.3     3  PRO3        0.0310
     14  CG        23.1380  -14.4970  -11.7980 C.3     3  PRO3        0.0237
     15  CD        23.1490  -13.3540  -12.7640 C.3     3  PRO3        0.0939
     16  N         19.6920  -12.3330  -12.2030 N.am    4  CYS4       -0.1955
     17  CA        18.5340  -11.5510  -11.7710 C.3     4  CYS4        0.1828
     18  C         18.4130  -10.3110  -12.6420 C.2     4  CYS4        0.2467
     19  O         18.8380   -9.2170  -12.2490 O.2     4  CYS4       -0.2730
     20  CB        18.6600  -11.1770  -10.2960 C.3     4  CYS4        0.0996
     21  SG        19.2540  -12.5460   -9.3060 S.3     4  CYS4       -0.0797
     22  N         17.8230  -10.4400  -13.8300 N.am    5  PRO5       -0.2726
     23  CA        17.8270   -9.3080  -14.7680 C.3     5  PRO5        0.1402
     24  C         16.9030   -8.1760  -14.3530 C.2     5  PRO5        0.2269
     25  O         17.1360   -7.0330  -14.7650 O.2     5  PRO5       -0.2865
     26  CB        17.3680   -9.9410  -16.0920 C.3     5  PRO5        0.0296
     27  CG        17.6040  -11.4210  -15.9240 C.3     5  PRO5        0.0237
     28  CD        17.3670  -11.6880  -14.4660 C.3     5  PRO5        0.0939
     29  N         16.6690   -6.9650  -11.3270 N.3     7  ASN7       -0.1225
     30  CA        17.1560   -6.4910  -10.0400 C.3     7  ASN7        0.1785
     31  C         18.3620   -5.5820  -10.2400 C.2     7  ASN7        0.2598
     32  O         19.0490   -5.6360  -11.2640 O.2     7  ASN7       -0.2718
     33  CB        17.5100   -7.6610   -9.1130 C.3     7  ASN7        0.1169
     34  CG        16.2840   -8.2800   -8.4630 C.2     7  ASN7        0.2627
     35  OD1       15.6690   -9.1970   -9.0090 O.2     7  ASN7       -0.2716
     36  ND2       15.9280   -7.7830   -7.2800 N.am    7  ASN7       -0.0877
     37  N         18.6130   -4.7510   -9.2310 N.am    8  SER8       -0.1938
     38  CA        19.5880   -3.6750   -9.3490 C.3     8  SER8        0.2055
     39  C         21.0000   -4.2120   -9.5570 C.2     8  SER8        0.2643
     40  O         21.3570   -5.2980   -9.0910 O.2     8  SER8       -0.2714
     41  CB        19.5550   -2.7940   -8.1020 C.3     8  SER8        0.2130
     42  OG        20.4320   -1.6920   -8.2350 O.3     8  SER8       -0.2179
     43  N         21.8090   -3.4250  -10.2610 N.am    9  ASN9       -0.1971
     44  CA        23.2280   -3.6950  -10.4390 C.3     9  ASN9        0.1688
     45  C         24.1050   -3.0480   -9.3750 C.2     9  ASN9        0.2292
     46  O         25.3260   -3.2300   -9.4120 O.2     9  ASN9       -0.2864
     47  CB        23.6810   -3.2400  -11.8280 C.3     9  ASN9        0.1181
     48  CG        23.0940   -4.0930  -12.9380 C.2     9  ASN9        0.2629
     49  OD1       22.7040   -5.2390  -12.7110 O.2     9  ASN9       -0.2716
     50  ND2       23.0250   -3.5370  -14.1420 N.am    9  ASN9       -0.0877
     51  N         28.8370   -1.4660   -6.7800 N.3    17  TRP17      -0.1227
     52  CA        28.7290   -2.7600   -7.4390 C.3    17  TRP17       0.1737
     53  C         29.2810   -3.8620   -6.5340 C.2    17  TRP17       0.2596
     54  O         29.6130   -3.6420   -5.3660 O.2    17  TRP17      -0.2718
     55  CB        29.4460   -2.7060   -8.7850 C.3    17  TRP17       0.0564
     56  CG        28.8490   -1.7090   -9.7490 C.ar   17  TRP17       0.0003
     57  CD1       27.9330   -1.9630  -10.7260 C.ar   17  TRP17       0.0946
     58  CD2       29.1150   -0.3010   -9.8050 C.ar   17  TRP17       0.0152
     59  NE1       27.6210   -0.8050  -11.3980 N.ar   17  TRP17      -0.2442
     60  CE2       28.3330    0.2300  -10.8510 C.ar   17  TRP17       0.0810
     61  CE3       29.9400    0.5590   -9.0760 C.ar   17  TRP17       0.0012
     62  CZ2       28.3500    1.5830  -11.1850 C.ar   17  TRP17       0.0191
     63  CZ3       29.9570    1.9010   -9.4100 C.ar   17  TRP17       0.0001
     64  CH2       29.1670    2.4000  -10.4560 C.ar   17  TRP17       0.0015
     65  N         29.3870   -5.0780   -7.0700 N.am   18  GLY18      -0.1942
     66  CA        30.0350   -6.1790   -6.3920 C.3    18  GLY18       0.2014
     67  C         29.1300   -7.3910   -6.3390 C.2    18  GLY18       0.2639
     68  O         28.2130   -7.5430   -7.1520 O.2    18  GLY18      -0.2714
     69  N         29.3930   -8.2670   -5.3720 N.am   19  ARG19      -0.1963
     70  CA        28.5480   -9.4400   -5.1630 C.3    19  ARG19       0.1729
     71  C         27.2460   -9.0190   -4.4980 C.2    19  ARG19       0.2616
     72  O         27.2230   -8.6880   -3.3080 O.2    19  ARG19      -0.2715
     73  CB        29.2700  -10.4950   -4.3300 C.3    19  ARG19       0.0348
     74  CG        28.4120  -11.7270   -4.0730 C.3    19  ARG19       0.0492
     75  CD        29.1630  -12.8120   -3.3250 C.3    19  ARG19       0.2205
     76  NE        28.3120  -13.9680   -3.0600 N.pl3  19  ARG19      -0.0865
     77  CZ        27.8150  -14.2650   -1.8650 C.cat  19  ARG19       0.5346
     78  NH1       27.0360  -15.3260   -1.7090 N.pl3  19  ARG19       0.1354
     79  NH2       28.1040  -13.5020   -0.8220 N.pl3  19  ARG19       0.1354
     80  N         26.1590   -9.0320   -5.2610 N.am   20  LEU20      -0.1963
     81  CA        24.8840   -8.4930   -4.8170 C.3    20  LEU20       0.1728
     82  C         23.8800   -9.6110   -4.5740 C.2    20  LEU20       0.2616
     83  O         23.8770  -10.6240   -5.2760 O.2    20  LEU20      -0.2715
     84  CB        24.3160   -7.5100   -5.8460 C.3    20  LEU20       0.0311
     85  CG        24.6580   -6.0270   -5.7000 C.3    20  LEU20       0.0022
     86  CD1       26.1300   -5.7980   -5.4000 C.3    20  LEU20       0.0001
     87  CD2       24.2580   -5.3110   -6.9640 C.3    20  LEU20       0.0001
     88  N         23.0540   -9.4230   -3.5560 N.am   21  PHE21      -0.1960
     89  CA        21.9410  -10.3000   -3.2410 C.3    21  PHE21       0.1771
     90  C         20.6650   -9.6240   -3.7170 C.2    21  PHE21       0.2620
     91  O         20.4680   -8.4260   -3.4900 O.2    21  PHE21      -0.2715
     92  CB        21.8650  -10.5730   -1.7360 C.3    21  PHE21       0.0574
     93  CG        22.7580  -11.6850   -1.2760 C.ar   21  PHE21      -0.0200
     94  CD1       22.2720  -12.9760   -1.1480 C.ar   21  PHE21      -0.0042
     95  CD2       24.0830  -11.4380   -0.9620 C.ar   21  PHE21      -0.0042
     96  CE1       23.0970  -14.0010   -0.7200 C.ar   21  PHE21      -0.0003
     97  CE2       24.9100  -12.4550   -0.5370 C.ar   21  PHE21      -0.0003
     98  CZ        24.4180  -13.7380   -0.4160 C.ar   21  PHE21      -0.0000
     99  N         19.8010  -10.3860   -4.3770 N.am   22  CYS22      -0.1954
    100  CA        18.6590   -9.8230   -5.0790 C.3    22  CYS22       0.1843
    101  C         17.3690  -10.2300   -4.3880 C.2    22  CYS22       0.2626
    102  O         17.1670  -11.4090   -4.0840 O.2    22  CYS22      -0.2714
    103  CB        18.6400  -10.2820   -6.5350 C.3    22  CYS22       0.0997
    104  SG        20.1310   -9.8290   -7.4130 S.3    22  CYS22      -0.0797
    105  N         16.4950   -9.2580   -4.1660 N.am   23  CYS23      -0.1954
    106  CA        15.2170   -9.5300   -3.5380 C.3    23  CYS23       0.1843
    107  C         14.2780  -10.1810   -4.5430 C.2    23  CYS23       0.2625
    108  O         14.4130  -10.0080   -5.7570 O.2    23  CYS23      -0.2714
    109  CB        14.6060   -8.2370   -2.9930 C.3    23  CYS23       0.0997
    110  SG        13.0070   -8.4370   -2.2000 S.3    23  CYS23      -0.0797
    111  N         13.3120  -10.9340   -4.0240 N.am   24  ASP24      -0.1971
    112  CA        12.4390  -11.7620   -4.8440 C.3    24  ASP24       0.1709
    113  C         11.0220  -11.2130   -4.8800 C.2    24  ASP24       0.2293
    114  O         10.1290  -11.8460   -5.4530 O.2    24  ASP24      -0.2864
    115  CB        12.4400  -13.2020   -4.3210 C.3    24  ASP24       0.1436
    116  CG        13.7430  -13.9290   -4.6120 C.2    24  ASP24       0.3671
    117  OD1       14.1190  -14.0460   -5.7980 O.co2  24  ASP24      -0.2456
    118  OD2       14.3990  -14.3730   -3.6470 O.co2  24  ASP24      -0.2456
    119  N         18.8010   -4.6510   -4.5740 N.3    29  SER29      -0.1217
    120  CA        19.9680   -5.5080   -4.4170 C.3    29  SER29       0.1889
    121  C         20.8330   -4.9650   -3.2900 C.2    29  SER29       0.2288
    122  O         20.9860   -3.7490   -3.1510 O.2    29  SER29      -0.2866
    123  CB        20.7850   -5.5900   -5.7120 C.3    29  SER29       0.2089
    124  OG        20.0860   -6.3120   -6.7100 O.3    29  SER29      -0.2183
    125  N         21.9030  -10.8910    4.9600 N.3    39  VAL39      -0.1231
    126  CA        21.0610  -11.7090    4.0950 C.3    39  VAL39       0.1692
    127  C         21.2220  -13.1840    4.4310 C.2    39  VAL39       0.2592
    128  O         22.3400  -13.7120    4.5080 O.2    39  VAL39      -0.2718
    129  CB        21.3780  -11.4380    2.6160 C.3    39  VAL39       0.0266
    130  CG1       20.3910  -12.1790    1.7210 C.3    39  VAL39       0.0020
    131  CG2       21.3430   -9.9470    2.3270 C.3    39  VAL39       0.0020
    132  N         20.0920  -13.8540    4.6310 N.am   40  GLU40      -0.1966
    133  CA        20.0050  -15.3060    4.7570 C.3    40  GLU40       0.1733
    134  C         20.1780  -15.9060    3.3650 C.2    40  GLU40       0.2616
    135  O         19.2210  -16.0930    2.6100 O.2    40  GLU40      -0.2715
    136  CB        18.6830  -15.6650    5.4200 C.3    40  GLU40       0.0429
    137  CG        18.4660  -14.7660    6.6470 C.3    40  GLU40       0.1163
    138  CD        17.4300  -15.2840    7.6270 C.2    40  GLU40       0.3649
    139  OE1       16.5190  -16.0310    7.2150 O.co2  40  GLU40      -0.2457
    140  OE2       17.5810  -15.0080    8.8350 O.co2  40  GLU40      -0.2457
    141  N         21.4310  -16.2310    3.0310 N.am   41  ALA41      -0.1963
    142  CA        21.7860  -16.5520    1.6510 C.3    41  ALA41       0.1728
    143  C         21.0430  -17.7580    1.0940 C.2    41  ALA41       0.2616
    144  O         21.0430  -17.9410   -0.1270 O.2    41  ALA41      -0.2715
    145  CB        23.2950  -16.7780    1.5240 C.3    41  ALA41       0.0334
    146  N         20.3940  -18.5680    1.9330 N.am   42  ASN42      -0.1958
    147  CA        19.7900  -19.8180    1.4820 C.3    42  ASN42       0.1819
    148  C         18.2790  -19.8340    1.6930 C.2    42  ASN42       0.2621
    149  O         17.6830  -20.8970    1.8820 O.2    42  ASN42      -0.2715
    150  CB        20.4340  -21.0070    2.1930 C.3    42  ASN42       0.1195
    151  CG        21.9010  -21.1710    1.8460 C.2    42  ASN42       0.2630
    152  OD1       22.2490  -21.7850    0.8380 O.2    42  ASN42      -0.2716
    153  ND2       22.7720  -20.6160    2.6830 N.am   42  ASN42      -0.0877
    154  N         17.6470  -18.6650    1.6590 N.am   43  LYS43      -0.1963
    155  CA        16.2140  -18.5340    1.8860 C.3    43  LYS43       0.1728
    156  C         15.5260  -18.2100    0.5640 C.2    43  LYS43       0.2616
    157  O         15.8760  -17.2260   -0.0970 O.2    43  LYS43      -0.2715
    158  CB        15.9410  -17.4570    2.9370 C.3    43  LYS43       0.0311
    159  CG        14.5050  -17.3790    3.4200 C.3    43  LYS43       0.0038
    160  CD        14.4590  -16.8060    4.8290 C.3    43  LYS43       0.0206
    161  CE        13.0370  -16.6570    5.3350 C.3    43  LYS43       0.1093
    162  NZ        12.2720  -15.6530    4.5500 N.3    43  LYS43      -0.1314
    163  N         14.5630  -19.0430    0.1780 N.am   44  ASN44      -0.1972
    164  CA        13.8490  -18.8670   -1.0840 C.3    44  ASN44       0.1688
    165  C         12.3380  -18.9940   -0.8910 C.2    44  ASN44       0.2292
    166  O         11.8540  -20.0330   -0.4420 O.2    44  ASN44      -0.2864
    167  CB        14.3180  -19.8940   -2.1220 C.3    44  ASN44       0.1181
    168  CG        15.8090  -19.8090   -2.3990 C.2    44  ASN44       0.2629
    169  OD1       16.2330  -19.2570   -3.4170 O.2    44  ASN44      -0.2716
    170  ND2       16.6130  -20.3710   -1.5010 N.am   44  ASN44      -0.0877
    171  N         13.5750  -14.9500   -0.9720 N.3    46  TRP46      -0.1241
    172  CA        14.0730  -13.9990    0.0110 C.3    46  TRP46       0.1605
    173  C         13.5010  -12.6140   -0.2610 C.2    46  TRP46       0.2264
    174  O         13.6090  -12.0970   -1.3780 O.2    46  TRP46      -0.2867
    175  CB        15.6000  -13.9410    0.0050 C.3    46  TRP46       0.0550
    176  CG        16.1370  -12.9110    0.9520 C.ar   46  TRP46       0.0003
    177  CD1       16.1820  -12.9970    2.3140 C.ar   46  TRP46       0.0946
    178  CD2       16.6910  -11.6330    0.6140 C.ar   46  TRP46       0.0152
    179  NE1       16.7330  -11.8570    2.8440 N.ar   46  TRP46      -0.2442
    180  CE2       17.0540  -11.0030    1.8230 C.ar   46  TRP46       0.0810
    181  CE3       16.9180  -10.9610   -0.5920 C.ar   46  TRP46       0.0012
    182  CZ2       17.6310   -9.7360    1.8620 C.ar   46  TRP46       0.0191
    183  CZ3       17.4920   -9.7020   -0.5510 C.ar   46  TRP46       0.0001
    184  CH2       17.8420   -9.1030    0.6680 C.ar   46  TRP46       0.0015
@<TRIPOS>BOND
     1     1     2    1
     2    26    27    1
     3    26    23    1
     4    27    28    1
     5     5     2    1
     6     5     6    1
     7     2     3    1
     8     4     3    2
     9     8     6   ar
    10    23    24    1
    11    23    22    1
    12    25    24    2
    13     3     9   am
    14     6     7   ar
    15    28    22    1
    16    50    48   am
    17    22    18   am
    18     9    15    1
    19     9    10    1
    20    48    49    2
    21    48    47    1
    22    15    14    1
    23    10    11    1
    24    10    13    1
    25    18    19    2
    26    18    17    1
    27    11    12    2
    28    11    16   am
    29    16    17    1
    30    47    44    1
    31    14    13    1
    32    17    20    1
    33    59    60   ar
    34    59    57   ar
    35    29    30    1
    36    32    31    2
    37    62    60   ar
    38    62    64   ar
    39    60    58   ar
    40    57    56   ar
    41    64    63   ar
    42    44    43    1
    43    44    45    1
    44    20    21    1
    45    43    39   am
    46    31    30    1
    47    31    37   am
    48    30    33    1
    49    58    56   ar
    50    58    61   ar
    51    56    55    1
    52    39    38    1
    53    39    40    2
    54    46    45    2
    55    63    61   ar
    56    38    37    1
    57    38    41    1
    58    33    34    1
    59    35    34    2
    60    55    52    1
    61    34    36   am
    62    42    41    1
    63    52    51    1
    64    52    53    1
    65   104   103    1
    66    68    67    2
    67    65    53   am
    68    65    66    1
    69    87    85    1
    70   124   123    1
    71   103   100    1
    72    53    54    2
    73    66    67    1
    74    67    69   am
    75    84    85    1
    76    84    81    1
    77   117   116   ar
    78   108   107    2
    79   123   120    1
    80    85    86    1
    81   114   113    2
    82    69    70    1
    83    83    82    2
    84    80    81    1
    85    80    71   am
    86    70    71    1
    87    70    73    1
    88   100   101    1
    89   100    99    1
    90   113   112    1
    91   112   115    1
    92   112   111    1
    93    81    82    1
    94   116   115    1
    95   116   118   ar
    96    82    88   am
    97   119   120    1
    98   107   111   am
    99   107   106    1
   100    71    72    2
   101   120   121    1
   102   101   105   am
   103   101   102    2
   104    99    90   am
   105    73    74    1
   106   105   106    1
   107    74    75    1
   108    90    91    2
   109    90    89    1
   110    88    89    1
   111   106   109    1
   112   169   168    2
   113    75    76    1
   114   121   122    2
   115    89    92    1
   116    76    77    2
   117   109   110    1
   118   168   167    1
   119   168   170   am
   120   167   164    1
   121    77    78    1
   122    77    79    1
   123    92    93    1
   124   174   173    2
   125    93    94   ar
   126    93    95   ar
   127    94    96   ar
   128   164   165    1
   129   164   163    1
   130   171   172    1
   131    95    97   ar
   132   165   166    2
   133    96    98   ar
   134   181   183   ar
   135   181   178   ar
   136   183   184   ar
   137    97    98   ar
   138   173   172    1
   139   144   143    2
   140   157   156    2
   141   175   172    1
   142   175   176    1
   143   163   156   am
   144   156   155    1
   145   178   176   ar
   146   178   180   ar
   147   184   182   ar
   148   152   151    2
   149   176   177   ar
   150   143   142    1
   151   143   146   am
   152   147   148    1
   153   147   146    1
   154   147   150    1
   155   145   142    1
   156   142   141    1
   157   154   148   am
   158   154   155    1
   159   148   149    2
   160   130   129    1
   161   180   182   ar
   162   180   179   ar
   163   151   150    1
   164   151   153   am
   165   155   158    1
   166   177   179   ar
   167   131   129    1
   168   135   134    2
   169   129   126    1
   170   158   159    1
   171   141   134   am
   172   134   133    1
   173   159   160    1
   174   126   127    1
   175   126   125    1
   176   127   128    2
   177   127   132   am
   178   162   161    1
   179   132   133    1
   180   133   136    1
   181   160   161    1
   182   136   137    1
   183   137   138    1
   184   139   138   ar
   185   138   140   ar
