@<TRIPOS>MOLECULE
tmp/5fb1A00.pdb
 170 171 0 0 0
SMALL
GASTEIGER

@<TRIPOS>ATOM
      1  N        -13.1450    8.7450  -17.1110 N.3     2  ASP2       -0.1225
      2  CA       -11.7890    9.1910  -16.8220 C.3     2  ASP2        0.1790
      3  C        -11.2490    8.3430  -15.6850 C.2     2  ASP2        0.2440
      4  O        -11.6630    8.5340  -14.5320 O.2     2  ASP2       -0.2733
      5  CB       -11.7520   10.6770  -16.4550 C.3     2  ASP2        0.1423
      6  CG       -10.3280   11.2480  -16.4230 C.2     2  ASP2        0.3668
      7  OD1       -9.4010   10.5260  -16.0070 O.co2   2  ASP2       -0.2456
      8  OD2      -10.1350   12.4280  -16.8030 O.co2   2  ASP2       -0.2456
      9  N        -10.3470    7.3950  -15.9560 N.am    3  PRO3       -0.2718
     10  CA        -9.7580    6.5940  -14.8680 C.3     3  PRO3        0.1535
     11  C         -8.9750    7.4090  -13.8490 C.2     3  PRO3        0.2599
     12  O         -8.9030    7.0220  -12.6750 O.2     3  PRO3       -0.2715
     13  CB        -8.8360    5.6210  -15.6150 C.3     3  PRO3        0.0310
     14  CG        -9.3320    5.6070  -17.0210 C.3     3  PRO3        0.0237
     15  CD        -9.9010    6.9540  -17.2870 C.3     3  PRO3        0.0939
     16  N         -8.3710    8.5200  -14.2550 N.am    4  CYS4       -0.1955
     17  CA        -7.5110    9.3170  -13.3800 C.3     4  CYS4        0.1828
     18  C         -8.0210   10.7490  -13.3690 C.2     4  CYS4        0.2467
     19  O         -7.3560   11.6610  -13.8710 O.2     4  CYS4       -0.2730
     20  CB        -6.0540    9.2490  -13.8390 C.3     4  CYS4        0.0996
     21  SG        -5.3810    7.5540  -13.8260 S.3     4  CYS4       -0.0797
     22  N         -9.2000   10.9790  -12.7740 N.am    5  PRO5       -0.2726
     23  CA        -9.8970   12.2580  -12.9760 C.3     5  PRO5        0.1402
     24  C         -9.2210   13.4410  -12.3230 C.2     5  PRO5        0.2269
     25  O         -9.5660   14.5760  -12.6650 O.2     5  PRO5       -0.2865
     26  CB       -11.2820   12.0140  -12.3430 C.3     5  PRO5        0.0296
     27  CG       -11.3640   10.5550  -12.0800 C.3     5  PRO5        0.0237
     28  CD        -9.9710   10.0580  -11.9210 C.3     5  PRO5        0.0939
     29  N         -5.9280   13.9460  -12.5580 N.3     7  ASN7       -0.1225
     30  CA        -4.6760   14.1960  -13.2500 C.3     7  ASN7        0.1785
     31  C         -4.9610   14.7500  -14.6310 C.2     7  ASN7        0.2598
     32  O         -6.0120   14.4920  -15.2210 O.2     7  ASN7       -0.2718
     33  CB        -3.8070   12.9260  -13.3710 C.3     7  ASN7        0.1169
     34  CG        -3.2380   12.4950  -12.0420 C.2     7  ASN7        0.2627
     35  OD1       -3.9240   11.8630  -11.2430 O.2     7  ASN7       -0.2716
     36  ND2       -1.9720   12.8400  -11.7920 N.am    7  ASN7       -0.0877
     37  N         -3.9850   15.4900  -15.1380 N.am    8  SER8       -0.1938
     38  CA        -4.0930   16.1710  -16.4190 C.3     8  SER8        0.2055
     39  C         -4.4330   15.2080  -17.5530 C.2     8  SER8        0.2643
     40  O         -3.9890   14.0550  -17.5700 O.2     8  SER8       -0.2714
     41  CB        -2.7610   16.8790  -16.7010 C.3     8  SER8        0.2130
     42  OG        -2.7790   17.5200  -17.9550 O.3     8  SER8       -0.2179
     43  N         -5.2280   15.6880  -18.5120 N.am    9  ASN9       -0.1971
     44  CA        -5.5090   14.9360  -19.7350 C.3     9  ASN9        0.1688
     45  C         -4.4370   15.1200  -20.7890 C.2     9  ASN9        0.2292
     46  O         -4.5520   14.5510  -21.8800 O.2     9  ASN9       -0.2864
     47  CB        -6.8580   15.3540  -20.3300 C.3     9  ASN9        0.1181
     48  CG        -8.0280   14.7020  -19.6110 C.2     9  ASN9        0.2629
     49  OD1       -7.8740   13.6350  -19.0170 O.2     9  ASN9       -0.2716
     50  ND2       -9.1990   15.3400  -19.6590 N.am    9  ASN9       -0.0877
     51  N         -2.1400   14.8850  -25.9870 N.3    17  TRP17      -0.1227
     52  CA        -2.9240   13.7820  -25.4620 C.3    17  TRP17       0.1737
     53  C         -2.2270   12.4570  -25.7480 C.2    17  TRP17       0.2596
     54  O         -1.1830   12.4040  -26.3990 O.2    17  TRP17      -0.2718
     55  CB        -4.3180   13.7760  -26.0880 C.3    17  TRP17       0.0564
     56  CG        -5.0910   15.0410  -25.8700 C.ar   17  TRP17       0.0003
     57  CD1       -6.0570   15.2600  -24.9310 C.ar   17  TRP17       0.0946
     58  CD2       -4.9560   16.2610  -26.6020 C.ar   17  TRP17       0.0152
     59  NE1       -6.5370   16.5460  -25.0380 N.ar   17  TRP17      -0.2442
     60  CE2       -5.8770   17.1820  -26.0550 C.ar   17  TRP17       0.0810
     61  CE3       -4.1590   16.6620  -27.6780 C.ar   17  TRP17       0.0012
     62  CZ2       -6.0130   18.4860  -26.5440 C.ar   17  TRP17       0.0191
     63  CZ3       -4.2890   17.9650  -28.1530 C.ar   17  TRP17       0.0001
     64  CH2       -5.2120   18.8550  -27.5880 C.ar   17  TRP17       0.0015
     65  N         -2.8340   11.3700  -25.2730 N.am   18  GLY18      -0.1942
     66  CA        -2.4100   10.0350  -25.6450 C.3    18  GLY18       0.2014
     67  C         -2.3640    9.0660  -24.4820 C.2    18  GLY18       0.2639
     68  O         -3.1840    9.1480  -23.5620 O.2    18  GLY18      -0.2714
     69  N         -1.3970    8.1450  -24.5190 N.am   19  ARG19      -0.1963
     70  CA        -1.1540    7.1930  -23.4380 C.3    19  ARG19       0.1729
     71  C         -0.3190    7.8900  -22.3690 C.2    19  ARG19       0.2616
     72  O          0.8750    8.1450  -22.5700 O.2    19  ARG19      -0.2715
     73  CB        -0.4330    5.9540  -23.9750 C.3    19  ARG19       0.0348
     74  CG        -0.3070    4.7980  -22.9870 C.3    19  ARG19       0.0492
     75  CD         0.3890    3.5770  -23.6240 C.3    19  ARG19       0.2205
     76  NE         1.7540    3.8650  -24.0900 N.pl3  19  ARG19      -0.0865
     77  CZ         2.8550    3.6790  -23.3620 C.cat  19  ARG19       0.5346
     78  NH1        2.7700    3.2100  -22.1210 N.pl3  19  ARG19       0.1354
     79  NH2        4.0440    3.9550  -23.8750 N.pl3  19  ARG19       0.1354
     80  N         -0.9360    8.1870  -21.2320 N.am   20  LEU20      -0.1963
     81  CA        -0.3240    9.0100  -20.2020 C.3    20  LEU20       0.1728
     82  C         -0.1880    8.2250  -18.9150 C.2    20  LEU20       0.2616
     83  O         -0.9800    7.3300  -18.6300 O.2    20  LEU20      -0.2715
     84  CB        -1.1490   10.2620  -19.9180 C.3    20  LEU20       0.0311
     85  CG        -1.4200   11.1680  -21.1080 C.3    20  LEU20       0.0022
     86  CD1       -2.3680   12.2820  -20.6910 C.3    20  LEU20       0.0001
     87  CD2       -0.1140   11.7320  -21.6200 C.3    20  LEU20       0.0001
     88  N          0.8330    8.5700  -18.1480 N.am   21  PHE21      -0.1960
     89  CA         1.0180    8.0780  -16.7940 C.3    21  PHE21       0.1771
     90  C          0.7470    9.2290  -15.8390 C.2    21  PHE21       0.2620
     91  O          1.1310   10.3670  -16.1160 O.2    21  PHE21      -0.2715
     92  CB         2.4330    7.5390  -16.5960 C.3    21  PHE21       0.0574
     93  CG         2.6630    6.2260  -17.2570 C.ar   21  PHE21      -0.0200
     94  CD1        2.2690    5.0510  -16.6330 C.ar   21  PHE21      -0.0042
     95  CD2        3.2260    6.1570  -18.5100 C.ar   21  PHE21      -0.0042
     96  CE1        2.4660    3.8320  -17.2350 C.ar   21  PHE21      -0.0003
     97  CE2        3.4160    4.9210  -19.1290 C.ar   21  PHE21      -0.0003
     98  CZ         3.0480    3.7660  -18.4860 C.ar   21  PHE21      -0.0000
     99  N          0.1060    8.9320  -14.7090 N.am   22  CYS22      -0.1954
    100  CA        -0.4990    9.9530  -13.8640 C.3    22  CYS22       0.1843
    101  C          0.1470    9.9430  -12.4850 C.2    22  CYS22       0.2626
    102  O          0.0350    8.9570  -11.7520 O.2    22  CYS22      -0.2714
    103  CB        -2.0080    9.7260  -13.7730 C.3    22  CYS22       0.0997
    104  SG        -2.7700    9.7940  -15.4060 S.3    22  CYS22      -0.0797
    105  N          0.8110   11.0480  -12.1360 N.am   23  CYS23      -0.1954
    106  CA         1.5170   11.1530  -10.8630 C.3    23  CYS23       0.1843
    107  C          0.5720   10.9500   -9.6800 C.2    23  CYS23       0.2625
    108  O         -0.5600   11.4370   -9.6760 O.2    23  CYS23      -0.2714
    109  CB         2.1930   12.5180  -10.7550 C.3    23  CYS23       0.0997
    110  SG         3.2360   12.7020   -9.2940 S.3    23  CYS23      -0.0797
    111  N          1.0560   10.2370   -8.6580 N.am   24  ASP24      -0.1971
    112  CA         0.2660    9.9860   -7.4610 C.3    24  ASP24       0.1709
    113  C          0.3800   11.0920   -6.4210 C.2    24  ASP24       0.2293
    114  O         -0.3730   11.0770   -5.4450 O.2    24  ASP24      -0.2864
    115  CB         0.6690    8.6390   -6.8260 C.3    24  ASP24       0.1436
    116  CG         0.2220    7.4510   -7.6580 C.2    24  ASP24       0.3671
    117  OD1       -0.9400    7.4540   -8.1040 O.co2  24  ASP24      -0.2456
    118  OD2        1.0240    6.5230   -7.8990 O.co2  24  ASP24      -0.2456
    119  N          9.0550    6.6410  -17.3680 N.3    39  VAL39      -0.1231
    120  CA         8.1610    6.2000  -16.3040 C.3    39  VAL39       0.1692
    121  C          8.3580    4.7110  -16.0720 C.2    39  VAL39       0.2592
    122  O          8.4120    3.9230  -17.0240 O.2    39  VAL39      -0.2718
    123  CB         6.7000    6.5080  -16.6520 C.3    39  VAL39       0.0266
    124  CG1        5.7990    6.0470  -15.5120 C.3    39  VAL39       0.0020
    125  CG2        6.5130    7.9900  -16.9240 C.3    39  VAL39       0.0020
    126  N          8.4800    4.3210  -14.8020 N.am   40  GLU40      -0.1966
    127  CA         8.4870    2.9120  -14.4100 C.3    40  GLU40       0.1733
    128  C          7.0410    2.4410  -14.2900 C.2    40  GLU40       0.2616
    129  O          6.3670    2.7200  -13.2980 O.2    40  GLU40      -0.2715
    130  CB         9.2310    2.7270  -13.0950 C.3    40  GLU40       0.0429
    131  CG        10.0570    3.9310  -12.6930 C.3    40  GLU40       0.1163
    132  CD        10.9840    3.6360  -11.5300 C.2    40  GLU40       0.3649
    133  OE1       11.2490    2.4380  -11.2580 O.co2  40  GLU40      -0.2457
    134  OE2       11.4430    4.6060  -10.8890 O.co2  40  GLU40      -0.2457
    135  N          6.5690    1.6980  -15.2940 N.am   41  ALA41      -0.1977
    136  CA         5.1540    1.3450  -15.3610 C.3    41  ALA41       0.1597
    137  C          4.6550    0.6620  -14.0920 C.2    41  ALA41       0.2287
    138  O          3.4980    0.8460  -13.7040 O.2    41  ALA41      -0.2864
    139  CB         4.9010    0.4450  -16.5720 C.3    41  ALA41       0.0319
    140  N          5.9160    0.8980  -10.8850 N.3    43  LYS43      -0.1231
    141  CA         6.1650    1.5160   -9.5890 C.3    43  LYS43       0.1693
    142  C          4.8630    2.0850   -9.0470 C.2    43  LYS43       0.2592
    143  O          4.2360    2.9180   -9.7020 O.2    43  LYS43      -0.2718
    144  CB         7.2150    2.6180   -9.6940 C.3    43  LYS43       0.0285
    145  CG         7.6760    3.0760   -8.3320 C.3    43  LYS43       0.0035
    146  CD         8.9450    3.8960   -8.4060 C.3    43  LYS43       0.0206
    147  CE         9.5020    4.0980   -7.0160 C.3    43  LYS43       0.1093
    148  NZ         8.4010    4.3990   -6.0590 N.3    43  LYS43      -0.1314
    149  N          4.4540    1.6340   -7.8630 N.am   44  ASN44      -0.1974
    150  CA         3.2670    2.1520   -7.1900 C.3    44  ASN44       0.1688
    151  C          3.5710    2.3140   -5.7070 C.2    44  ASN44       0.2292
    152  O          4.0010    1.3650   -5.0620 O.2    44  ASN44      -0.2864
    153  CB         2.0520    1.2290   -7.3750 C.3    44  ASN44       0.1181
    154  CG         1.6250    1.0930   -8.8330 C.2    44  ASN44       0.2629
    155  OD1        0.9960    1.9930   -9.4090 O.2    44  ASN44      -0.2716
    156  ND2        1.9450   -0.0520   -9.4320 N.am   44  ASN44      -0.0877
    157  N          3.8300    6.1610   -7.6580 N.3    46  TRP46      -0.1241
    158  CA         4.8360    6.7820   -8.5010 C.3    46  TRP46       0.1605
    159  C          4.7190    8.2920   -8.3590 C.2    46  TRP46       0.2264
    160  O          3.6160    8.8430   -8.4730 O.2    46  TRP46      -0.2867
    161  CB         4.6680    6.3390   -9.9640 C.3    46  TRP46       0.0550
    162  CG         5.5920    7.0460  -10.9040 C.ar   46  TRP46       0.0003
    163  CD1        6.9390    6.8580  -11.0280 C.ar   46  TRP46       0.0946
    164  CD2        5.2400    8.0680  -11.8450 C.ar   46  TRP46       0.0152
    165  NE1        7.4500    7.7150  -11.9750 N.ar   46  TRP46      -0.2442
    166  CE2        6.4270    8.4590  -12.5000 C.ar   46  TRP46       0.0810
    167  CE3        4.0360    8.6950  -12.1950 C.ar   46  TRP46       0.0012
    168  CZ2        6.4470    9.4430  -13.4870 C.ar   46  TRP46       0.0191
    169  CZ3        4.0550    9.6750  -13.1790 C.ar   46  TRP46       0.0001
    170  CH2        5.2570   10.0420  -13.8130 C.ar   46  TRP46       0.0015
@<TRIPOS>BOND
     1    63    61   ar
     2    63    64   ar
     3    61    58   ar
     4    64    62   ar
     5    58    60   ar
     6    58    56   ar
     7    62    60   ar
     8    54    53    2
     9    55    56    1
    10    55    52    1
    11    60    59   ar
    12    51    52    1
    13    56    57   ar
    14    53    52    1
    15    53    65   am
    16    66    65    1
    17    66    67    1
    18    59    57   ar
    19    69    67   am
    20    69    70    1
    21    67    68    2
    22    76    75    1
    23    76    77    2
    24    73    70    1
    25    73    74    1
    26    79    77    1
    27    75    74    1
    28    70    71    1
    29    77    78    1
    30    72    71    2
    31    71    80   am
    32    46    45    2
    33    87    85    1
    34    80    81    1
    35    85    86    1
    36    85    84    1
    37    45    44    1
    38    47    44    1
    39    47    48    1
    40    81    84    1
    41    81    82    1
    42    44    43    1
    43    50    48   am
    44    48    49    2
    45    97    95   ar
    46    97    98   ar
    47    82    83    2
    48    82    88   am
    49    43    39   am
    50    95    93   ar
    51    98    96   ar
    52    88    89    1
    53    42    41    1
    54    40    39    2
    55    39    38    1
    56   119   120    1
    57    15    14    1
    58    15     9    1
    59    93    94   ar
    60    93    92    1
    61    96    94   ar
    62     1     2    1
    63   122   121    2
    64    14    13    1
    65   125   123    1
    66     2     5    1
    67     2     3    1
    68     8     6   ar
    69    89    92    1
    70    89    90    1
    71    41    38    1
    72   123   120    1
    73   123   124    1
    74   139   136    1
    75     5     6    1
    76     6     7   ar
    77    38    37    1
    78   120   121    1
    79    91    90    2
    80   121   126   am
    81     9     3   am
    82     9    10    1
    83    90    99   am
    84     3     4    2
    85    13    10    1
    86   104   103    1
    87   136   135    1
    88   136   137    1
    89   135   128   am
    90    32    31    2
    91    37    31   am
    92    10    11    1
    93   126   127    1
    94    99   100    1
    95    31    30    1
    96   127   128    1
    97   127   130    1
    98   128   129    2
    99    16    11   am
   100    16    17    1
   101   137   138    2
   102    19    18    2
   103   100   103    1
   104   100   101    1
   105    11    12    2
   106    20    21    1
   107    20    17    1
   108   170   168   ar
   109   170   169   ar
   110   168   166   ar
   111    17    18    1
   112    33    30    1
   113    33    34    1
   114    18    22   am
   115    30    29    1
   116   169   167   ar
   117   130   131    1
   118    23    22    1
   119    23    26    1
   120    23    24    1
   121    22    28    1
   122   131   132    1
   123    25    24    2
   124   166   165   ar
   125   166   164   ar
   126   101   105   am
   127   101   102    2
   128    26    27    1
   129   167   164   ar
   130   105   106    1
   131    27    28    1
   132    34    36   am
   133    34    35    2
   134   165   163   ar
   135   164   162   ar
   136   132   133   ar
   137   132   134   ar
   138   163   162   ar
   139   162   161    1
   140   140   141    1
   141   106   109    1
   142   106   107    1
   143   109   110    1
   144   161   158    1
   145   143   142    2
   146   144   141    1
   147   144   145    1
   148   107   108    2
   149   107   111   am
   150   141   142    1
   151   156   154   am
   152   155   154    2
   153   142   149   am
   154   154   153    1
   155   111   112    1
   156   158   159    1
   157   158   157    1
   158   160   159    2
   159   146   145    1
   160   146   147    1
   161   117   116   ar
   162   118   116   ar
   163   149   150    1
   164   116   115    1
   165   112   115    1
   166   112   113    1
   167   153   150    1
   168   150   151    1
   169   147   148    1
   170   113   114    2
   171   151   152    2
