@<TRIPOS>MOLECULE
tmp/5fb2A00.pdb
 169 164 0 0 0
SMALL
GASTEIGER

@<TRIPOS>ATOM
      1  N          4.7330  -40.9240   19.9710 N.3    15  MET15      -0.1230
      2  CA         3.6560  -40.6950   19.0190 C.3    15  MET15       0.1702
      3  C          3.5510  -39.2120   18.6780 C.2    15  MET15       0.2592
      4  O          3.3830  -38.8380   17.5130 O.2    15  MET15      -0.2718
      5  CB         2.3360  -41.2480   19.5530 C.3    15  MET15       0.0401
      6  CG         2.3500  -42.7750   19.6680 C.3    15  MET15       0.0596
      7  SD         0.7480  -43.5070   20.0600 S.3    15  MET15      -0.1393
      8  CE         0.3540  -44.1790   18.4510 C.3    15  MET15       0.0692
      9  N          3.6750  -38.3710   19.6970 N.am   16  LYS16      -0.1980
     10  CA         3.7360  -36.9210   19.5030 C.3    16  LYS16       0.1596
     11  C          4.9560  -36.5270   18.6780 C.2    16  LYS16       0.2287
     12  O          4.8650  -35.6940   17.7730 O.2    16  LYS16      -0.2864
     13  CB         3.7790  -36.2040   20.8590 C.3    16  LYS16       0.0298
     14  CG         3.7650  -34.6780   20.7680 C.3    16  LYS16       0.0038
     15  CD         2.4300  -34.1200   20.3090 C.3    16  LYS16       0.0206
     16  CE         2.4330  -32.6080   20.3130 C.3    16  LYS16       0.1093
     17  NZ         1.1160  -32.0270   19.9350 N.3    16  LYS16      -0.1314
     18  N          4.5020  -37.1150   15.0520 N.3    19  ALA19      -0.1231
     19  CA         3.6780  -36.0560   14.4610 C.3    19  ALA19       0.1694
     20  C          4.5030  -34.7920   14.1780 C.2    19  ALA19       0.2592
     21  O          4.4860  -34.2570   13.0620 O.2    19  ALA19      -0.2718
     22  CB         2.4960  -35.7410   15.3530 C.3    19  ALA19       0.0304
     23  N          5.2290  -34.3310   15.1920 N.am   20  ASP20      -0.1974
     24  CA         6.1770  -33.2360   15.0410 C.3    20  ASP20       0.1709
     25  C          7.0990  -33.4520   13.8460 C.2    20  ASP20       0.2293
     26  O          7.3240  -32.5520   13.0400 O.2    20  ASP20      -0.2864
     27  CB         7.0450  -33.1250   16.2900 C.3    20  ASP20       0.1436
     28  CG         6.3010  -32.5490   17.4720 C.2    20  ASP20       0.3671
     29  OD1        5.1900  -32.0180   17.2870 O.co2  20  ASP20      -0.2456
     30  OD2        6.8470  -32.6260   18.5920 O.co2  20  ASP20      -0.2456
     31  N          5.3190  -32.9420   10.5370 N.3    23  LEU23      -0.1245
     32  CA         5.2220  -31.5070   10.2930 C.3    23  LEU23       0.1561
     33  C          6.5470  -30.9620    9.7440 C.2    23  LEU23       0.2260
     34  O          6.5470  -30.2210    8.7530 O.2    23  LEU23      -0.2867
     35  CB         4.7770  -30.7470   11.5620 C.3    23  LEU23       0.0270
     36  CG         3.3730  -31.0900   12.0940 C.3    23  LEU23       0.0019
     37  CD1        3.1830  -30.6200   13.5280 C.3    23  LEU23       0.0001
     38  CD2        2.2740  -30.5330   11.2050 C.3    23  LEU23       0.0001
     39  N          4.3850  -26.5090   14.2540 N.3    30  ASN30      -0.1225
     40  CA         3.2430  -27.0900   14.9640 C.3    30  ASN30       0.1785
     41  C          2.0480  -26.1760   14.8800 C.2    30  ASN30       0.2597
     42  O          0.9430  -26.6110   14.5700 O.2    30  ASN30      -0.2718
     43  CB         3.5820  -27.3400   16.4280 C.3    30  ASN30       0.1169
     44  CG         4.2350  -28.6680   16.6420 C.2    30  ASN30       0.2627
     45  OD1        3.6420  -29.5700   17.2290 O.2    30  ASN30      -0.2716
     46  ND2        5.4550  -28.8140   16.1480 N.am   30  ASN30      -0.0877
     47  N          2.2850  -24.8980   15.1530 N.am   31  GLU31      -0.1979
     48  CA         1.2310  -23.8950   15.1390 C.3    31  GLU31       0.1602
     49  C          0.6210  -23.7210   13.7460 C.2    31  GLU31       0.2287
     50  O         -0.5920  -23.5460   13.6010 O.2    31  GLU31      -0.2864
     51  CB         1.7850  -22.5630   15.6320 C.3    31  GLU31       0.0415
     52  CG         0.7290  -21.6310   16.1960 C.3    31  GLU31       0.1163
     53  CD         0.1370  -22.1630   17.4900 C.2    31  GLU31       0.3649
     54  OE1        0.9170  -22.6500   18.3340 O.co2  31  GLU31      -0.2457
     55  OE2       -1.0970  -22.0830   17.6630 O.co2  31  GLU31      -0.2457
     56  N          0.5880  -26.0920   11.5560 N.3    33  GLY33      -0.1210
     57  CA        -0.1910  -27.3080   11.4350 C.3    33  GLY33       0.1956
     58  C         -1.5520  -27.1610   12.0870 C.2    33  GLY33       0.2611
     59  O         -2.5680  -27.5520   11.5070 O.2    33  GLY33      -0.2717
     60  N         -1.5870  -26.5960   13.2930 N.am   34  HIS34      -0.1975
     61  CA        -2.8610  -26.4400   14.0040 C.3    34  HIS34       0.1656
     62  C         -3.7920  -25.5300   13.2250 C.2    34  HIS34       0.2291
     63  O         -4.9730  -25.7980   13.1250 O.2    34  HIS34      -0.2864
     64  CB        -2.6640  -25.9150   15.4330 C.3    34  HIS34       0.0771
     65  CG        -2.0620  -26.9270   16.3610 C.ar   34  HIS34       0.0820
     66  ND1       -2.5290  -28.2170   16.4570 N.ar   34  HIS34      -0.2267
     67  CD2       -1.0280  -26.8320   17.2350 C.ar   34  HIS34       0.1154
     68  CE1       -1.8090  -28.8810   17.3490 C.ar   34  HIS34       0.1986
     69  NE2       -0.8970  -28.0600   17.8350 N.ar   34  HIS34      -0.2212
     70  N         -5.1240  -27.3910   10.1790 N.3    37  GLY37      -0.1210
     71  CA        -6.0450  -28.4230   10.6250 C.3    37  GLY37       0.1956
     72  C         -7.3980  -27.8500   11.0070 C.2    37  GLY37       0.2611
     73  O         -8.4480  -28.4420   10.7400 O.2    37  GLY37      -0.2717
     74  N         -7.3900  -26.6810   11.6410 N.am   38  TYR38      -0.1976
     75  CA        -8.6450  -26.0490   12.0180 C.3    38  TYR38       0.1639
     76  C         -9.4020  -25.5660   10.7770 C.2    38  TYR38       0.2290
     77  O        -10.6290  -25.6940   10.6900 O.2    38  TYR38      -0.2864
     78  CB        -8.4060  -24.9040   12.9980 C.3    38  TYR38       0.0560
     79  CG        -9.6930  -24.4080   13.6230 C.ar   38  TYR38      -0.0198
     80  CD1      -10.3440  -25.1580   14.6060 C.ar   38  TYR38      -0.0009
     81  CD2      -10.2700  -23.2150   13.2230 C.ar   38  TYR38      -0.0009
     82  CE1      -11.5220  -24.7250   15.1740 C.ar   38  TYR38       0.0417
     83  CE2      -11.4610  -22.7660   13.7930 C.ar   38  TYR38       0.0417
     84  CZ       -12.0800  -23.5280   14.7660 C.ar   38  TYR38       0.1957
     85  OH       -13.2580  -23.0990   15.3390 O.3    38  TYR38      -0.2866
     86  N         -9.1540  -26.9160    7.8360 N.3    40  TYR40      -0.1227
     87  CA        -9.6270  -28.1600    7.2220 C.3    40  TYR40       0.1736
     88  C        -10.9730  -28.5660    7.8160 C.2    40  TYR40       0.2595
     89  O        -11.9130  -28.8880    7.0850 O.2    40  TYR40      -0.2718
     90  CB        -8.5850  -29.2590    7.4230 C.3    40  TYR40       0.0548
     91  CG        -8.8770  -30.5380    6.6710 C.ar   40  TYR40      -0.0200
     92  CD1       -8.3820  -30.7400    5.3800 C.ar   40  TYR40      -0.0009
     93  CD2       -9.6300  -31.5530    7.2550 C.ar   40  TYR40      -0.0009
     94  CE1       -8.6410  -31.9320    4.6760 C.ar   40  TYR40       0.0417
     95  CE2       -9.9080  -32.7430    6.5590 C.ar   40  TYR40       0.0417
     96  CZ        -9.4060  -32.9260    5.2760 C.ar   40  TYR40       0.1957
     97  OH        -9.6670  -34.1030    4.5890 O.3    40  TYR40      -0.2866
     98  N        -11.0630  -28.5350    9.1430 N.am   41  ALA41      -0.1966
     99  CA       -12.2790  -28.9360    9.8560 C.3    41  ALA41       0.1728
    100  C        -13.4200  -27.9400    9.6550 C.2    41  ALA41       0.2616
    101  O        -14.5850  -28.2630    9.8920 O.2    41  ALA41      -0.2715
    102  CB       -11.9860  -29.1160   11.3490 C.3    41  ALA41       0.0334
    103  N        -13.0910  -26.7290    9.2090 N.am   42  HIS42      -0.1973
    104  CA       -14.1250  -25.7080    9.0420 C.3    42  HIS42       0.1656
    105  C        -14.0980  -25.0570    7.6570 C.2    42  HIS42       0.2291
    106  O        -14.4510  -23.8960    7.5010 O.2    42  HIS42      -0.2864
    107  CB       -13.9900  -24.6670   10.1540 C.3    42  HIS42       0.0771
    108  CG       -14.1560  -25.2470   11.5190 C.ar   42  HIS42       0.0820
    109  ND1      -15.3940  -25.4630   12.0900 N.ar   42  HIS42      -0.2267
    110  CD2      -13.2460  -25.7050   12.4100 C.ar   42  HIS42       0.1154
    111  CE1      -15.2340  -26.0080   13.2830 C.ar   42  HIS42       0.1986
    112  NE2      -13.9420  -26.1630   13.5000 N.ar   42  HIS42      -0.2212
    113  N        -10.1940  -19.7190   18.3870 N.3    55  ALA55      -0.1231
    114  CA       -10.0670  -21.1710   18.4250 C.3    55  ALA55       0.1694
    115  C         -8.6900  -21.6180   18.9040 C.2    55  ALA55       0.2591
    116  O         -8.5850  -22.4970   19.7510 O.2    55  ALA55      -0.2718
    117  CB       -10.3750  -21.7660   17.0560 C.3    55  ALA55       0.0304
    118  N         -7.6360  -21.0220   18.3530 N.am   56  LEU56      -0.1980
    119  CA        -6.2710  -21.3880   18.7310 C.3    56  LEU56       0.1596
    120  C         -5.8200  -20.7520   20.0480 C.2    56  LEU56       0.2287
    121  O         -4.7580  -21.0890   20.5710 O.2    56  LEU56      -0.2864
    122  CB        -5.2870  -21.0150   17.6230 C.3    56  LEU56       0.0297
    123  CG        -5.1060  -22.0000   16.4630 C.3    56  LEU56       0.0022
    124  CD1       -6.4480  -22.4600   15.9230 C.3    56  LEU56       0.0001
    125  CD2       -4.2700  -21.3680   15.3610 C.3    56  LEU56       0.0001
    126  N         -2.5680  -31.2180    4.7100 N.3   100  VAL100     -0.1245
    127  CA        -3.2380  -31.6220    5.9410 C.3   100  VAL100      0.1561
    128  C         -3.4670  -33.1330    5.9040 C.2   100  VAL100      0.2260
    129  O         -3.2100  -33.8330    6.8850 O.2   100  VAL100     -0.2867
    130  CB        -4.5800  -30.8760    6.1840 C.3   100  VAL100      0.0252
    131  CG1       -5.3250  -31.5080    7.3290 C.3   100  VAL100      0.0019
    132  CG2       -4.3360  -29.3880    6.5000 C.3   100  VAL100      0.0019
    133  N         -0.3610  -34.9450    6.5160 N.3   103  PHE103     -0.1227
    134  CA        -0.0570  -34.9510    7.9440 C.3   103  PHE103      0.1736
    135  C         -0.8790  -35.9780    8.7160 C.2   103  PHE103      0.2596
    136  O         -0.3300  -36.7900    9.4650 O.2   103  PHE103     -0.2718
    137  CB        -0.2090  -33.5920    8.6150 C.3   103  PHE103      0.0547
    138  CG        -0.1290  -33.6820   10.1280 C.ar  103  PHE103     -0.0202
    139  CD1        1.1000  -33.8790   10.7610 C.ar  103  PHE103     -0.0042
    140  CD2       -1.2840  -33.6480   10.9000 C.ar  103  PHE103     -0.0042
    141  CE1        1.1780  -33.9940   12.1410 C.ar  103  PHE103     -0.0003
    142  CE2       -1.2200  -33.7670   12.2870 C.ar  103  PHE103     -0.0003
    143  CZ         0.0000  -33.9450   12.9080 C.ar  103  PHE103     -0.0000
    144  N         -2.1890  -35.9610    8.5240 N.am  104  THR104     -0.1953
    145  CA        -3.0450  -36.8280    9.3240 C.3   104  THR104      0.1897
    146  C         -2.8860  -38.2970    8.9580 C.2   104  THR104      0.2313
    147  O         -3.3160  -39.1720    9.7090 O.2   104  THR104     -0.2863
    148  CB        -4.5240  -36.4000    9.2650 C.3   104  THR104      0.1794
    149  OG1       -5.0060  -36.5060    7.9200 O.3   104  THR104     -0.2208
    150  CG2       -4.6590  -34.9630    9.7390 C.3   104  THR104      0.0378
    151  N         -1.3040  -40.9070   11.5960 N.3   107  PHE107     -0.1227
    152  CA        -2.0220  -41.5870   12.6800 C.3   107  PHE107      0.1736
    153  C         -2.2370  -43.0550   12.3300 C.2   107  PHE107      0.2595
    154  O         -1.9050  -43.9420   13.1200 O.2   107  PHE107     -0.2718
    155  CB        -3.3710  -40.9190   12.9840 C.3   107  PHE107      0.0547
    156  CG        -3.2560  -39.4760   13.4030 C.ar  107  PHE107     -0.0202
    157  CD1       -2.1180  -39.0170   14.0390 C.ar  107  PHE107     -0.0042
    158  CD2       -4.2860  -38.5780   13.1450 C.ar  107  PHE107     -0.0042
    159  CE1       -1.9980  -37.6820   14.4170 C.ar  107  PHE107     -0.0003
    160  CE2       -4.1770  -37.2450   13.5260 C.ar  107  PHE107     -0.0003
    161  CZ        -3.0310  -36.7990   14.1560 C.ar  107  PHE107     -0.0000
    162  N         -2.7690  -43.3250   11.1400 N.am  108  ASP108     -0.1974
    163  CA        -2.9470  -44.7140   10.7320 C.3   108  ASP108      0.1709
    164  C         -1.6110  -45.3950   10.4710 C.2   108  ASP108      0.2293
    165  O         -1.4750  -46.5780   10.7190 O.2   108  ASP108     -0.2864
    166  CB        -3.8550  -44.8620    9.5130 C.3   108  ASP108      0.1436
    167  CG        -4.1580  -46.3190    9.1940 C.2   108  ASP108      0.3671
    168  OD1       -4.4950  -47.0850   10.1290 O.co2 108  ASP108     -0.2456
    169  OD2       -4.0370  -46.7060    8.0130 O.co2 108  ASP108     -0.2456
@<TRIPOS>BOND
     1    97    96    1
     2    94    96   ar
     3    94    92   ar
     4   126   127    1
     5    96    95   ar
     6    92    91   ar
     7   128   127    1
     8   128   129    2
     9   127   130    1
    10   130   132    1
    11   130   131    1
    12   133   134    1
    13    95    93   ar
    14    91    93   ar
    15    91    90    1
    16    89    88    2
    17    87    90    1
    18    87    88    1
    19    87    86    1
    20   106   105    2
    21   105   104    1
    22    88    98   am
    23   149   148    1
    24   134   137    1
    25   134   135    1
    26   169   167   ar
    27   144   135   am
    28   144   145    1
    29   137   138    1
    30   135   136    2
    31    34    33    2
    32   146   145    1
    33   146   147    2
    34   104   103    1
    35   104   107    1
    36    98    99    1
    37   167   166    1
    38   167   168   ar
    39   103   100   am
    40   148   145    1
    41   148   150    1
    42   166   163    1
    43   100    99    1
    44   100   101    2
    45    33    32    1
    46    99   102    1
    47   138   139   ar
    48   138   140   ar
    49   107   108    1
    50    70    71    1
    51    32    31    1
    52    32    35    1
    53   164   165    2
    54   164   163    1
    55    71    72    1
    56    77    76    2
    57   163   162    1
    58    73    72    2
    59   139   141   ar
    60    76    75    1
    61   140   142   ar
    62    72    74   am
    63   162   153   am
    64    38    36    1
    65    57    56    1
    66    57    58    1
    67    59    58    2
    68   108   109   ar
    69   108   110   ar
    70    35    36    1
    71   151   152    1
    72    74    75    1
    73    75    78    1
    74    58    60   am
    75   109   111   ar
    76    36    37    1
    77   141   143   ar
    78   142   143   ar
    79   153   152    1
    80   153   154    2
    81   110   112   ar
    82   152   155    1
    83   155   156    1
    84    78    79    1
    85    26    25    2
    86    21    20    2
    87    63    62    2
    88   158   156   ar
    89   158   160   ar
    90    81    79   ar
    91    81    83   ar
    92    62    61    1
    93   111   112   ar
    94    60    61    1
    95   156   157   ar
    96   160   161   ar
    97    50    49    2
    98    79    80   ar
    99    49    48    1
   100    83    84   ar
   101    25    24    1
   102    61    64    1
   103   157   159   ar
   104   161   159   ar
   105    20    19    1
   106    20    23   am
   107    39    40    1
   108    19    18    1
   109    19    22    1
   110    42    41    2
   111    80    82   ar
   112    84    82   ar
   113    84    85    1
   114    41    40    1
   115    41    47   am
   116    40    43    1
   117    24    23    1
   118    24    27    1
   119    48    47    1
   120    48    51    1
   121   125   123    1
   122    64    65    1
   123    51    52    1
   124   124   123    1
   125    46    44   am
   126    52    53    1
   127    27    28    1
   128    65    66   ar
   129    65    67   ar
   130    43    44    1
   131    66    68   ar
   132   123   122    1
   133    44    45    2
   134   117   114    1
   135    67    69   ar
   136    29    28   ar
   137    68    69   ar
   138    28    30   ar
   139    53    55   ar
   140    53    54   ar
   141     4     3    2
   142   122   119    1
   143    12    11    2
   144   118   119    1
   145   118   115   am
   146   113   114    1
   147   114   115    1
   148     8     7    1
   149    11    10    1
   150     3     2    1
   151     3     9   am
   152   119   120    1
   153   115   116    2
   154     2     5    1
   155     2     1    1
   156    10     9    1
   157    10    13    1
   158     5     6    1
   159     6     7    1
   160    17    16    1
   161   120   121    2
   162    15    16    1
   163    15    14    1
   164    14    13    1
