@<TRIPOS>MOLECULE
tmp/5fb3B00.pdb
 81 78 0 0 0
SMALL
GASTEIGER

@<TRIPOS>ATOM
      1  N         18.6220   34.8900   21.9390 N.3    34  SER34      -0.1217
      2  CA        17.5340   35.3200   21.0640 C.3    34  SER34       0.1889
      3  C         16.3530   35.8630   21.8920 C.2    34  SER34       0.2288
      4  O         16.5200   36.2470   23.0530 O.2    34  SER34      -0.2866
      5  CB        17.0960   34.1250   20.2020 C.3    34  SER34       0.2089
      6  OG        16.1960   34.5210   19.1860 O.3    34  SER34      -0.2183
      7  N         23.6010   28.7440   25.0870 N.3    56  TYR56      -0.1241
      8  CA        24.3660   27.6080   24.4970 C.3    56  TYR56       0.1605
      9  C         25.7660   27.9500   23.9680 C.2    56  TYR56       0.2264
     10  O         26.6730   27.1180   24.0530 O.2    56  TYR56      -0.2867
     11  CB        23.5680   26.8390   23.4130 C.3    56  TYR56       0.0534
     12  CG        22.7740   27.6820   22.4320 C.ar   56  TYR56      -0.0201
     13  CD1       23.3670   28.2380   21.2960 C.ar   56  TYR56      -0.0009
     14  CD2       21.4170   27.9030   22.6310 C.ar   56  TYR56      -0.0009
     15  CE1       22.6220   29.0080   20.4010 C.ar   56  TYR56       0.0417
     16  CE2       20.6680   28.6670   21.7490 C.ar   56  TYR56       0.0417
     17  CZ        21.2640   29.2190   20.6400 C.ar   56  TYR56       0.1957
     18  OH        20.4770   29.9700   19.7940 O.3    56  TYR56      -0.2866
     19  N         14.8540   26.7990   21.9940 N.3    74  GLY74      -0.1210
     20  CA        14.7130   25.9860   20.7950 C.3    74  GLY74       0.1956
     21  C         15.3490   24.6200   20.9200 C.2    74  GLY74       0.2612
     22  O         15.7070   24.1870   22.0180 O.2    74  GLY74      -0.2717
     23  N         15.4990   23.9450   19.7840 N.am   75  GLY75      -0.1942
     24  CA        16.0330   22.5840   19.7460 C.3    75  GLY75       0.2014
     25  C         17.4590   22.4640   20.2540 C.2    75  GLY75       0.2639
     26  O         17.8600   21.4140   20.7620 O.2    75  GLY75      -0.2714
     27  N         18.2210   23.5480   20.1160 N.am   76  ARG76      -0.1963
     28  CA        19.6600   23.5530   20.4080 C.3    76  ARG76       0.1714
     29  C         19.9900   23.7660   21.9050 C.2    76  ARG76       0.2458
     30  O         20.8300   23.0450   22.4530 O.2    76  ARG76      -0.2730
     31  CB        20.3830   24.5760   19.4930 C.3    76  ARG76       0.0347
     32  CG        21.5770   24.0220   18.6950 C.3    76  ARG76       0.0492
     33  CD        21.2460   22.8510   17.7500 C.3    76  ARG76       0.2205
     34  NE        20.0710   23.0950   16.9070 N.pl3  76  ARG76      -0.0865
     35  CZ        18.9750   22.3290   16.8390 C.cat  76  ARG76       0.5346
     36  NH1       18.8610   21.1980   17.5350 N.pl3  76  ARG76       0.1354
     37  NH2       17.9790   22.7010   16.0430 N.pl3  76  ARG76       0.1354
     38  N         19.3350   24.7410   22.5770 N.am   77  PRO77      -0.2727
     39  CA        19.5140   24.7940   24.0360 C.3    77  PRO77       0.1402
     40  C         19.0780   23.5040   24.7180 C.2    77  PRO77       0.2269
     41  O         19.6870   23.0850   25.7110 O.2    77  PRO77      -0.2865
     42  CB        18.6040   25.9520   24.4760 C.3    77  PRO77       0.0296
     43  CG        17.7540   26.2920   23.3020 C.3    77  PRO77       0.0237
     44  CD        18.5190   25.8690   22.0870 C.3    77  PRO77       0.0939
     45  N          9.4230   26.2620   21.6490 N.3    98  SER98      -0.1217
     46  CA         9.0860   26.1170   20.2270 C.3    98  SER98       0.1889
     47  C          8.8970   24.6350   19.8630 C.2    98  SER98       0.2288
     48  O          9.3890   23.7490   20.5640 O.2    98  SER98      -0.2866
     49  CB        10.1720   26.7570   19.3490 C.3    98  SER98       0.2089
     50  OG        11.4740   26.3510   19.7490 O.3    98  SER98      -0.2183
     51  N          9.5190   22.7960   16.6330 N.3   100  SER100     -0.1202
     52  CA        10.0640   22.5200   15.3010 C.3   100  SER100      0.2020
     53  C         10.6100   21.0910   15.1830 C.2   100  SER100      0.2618
     54  O         10.5590   20.4900   14.1180 O.2   100  SER100     -0.2717
     55  CB        11.1750   23.5250   14.9730 C.3   100  SER100      0.2103
     56  OG        12.3240   23.3080   15.7800 O.3   100  SER100     -0.2182
     57  N         11.1090   20.5570   16.2940 N.am  101  HIS101     -0.1975
     58  CA        11.8980   19.3410   16.2920 C.3   101  HIS101      0.1656
     59  C         11.1920   18.1490   16.9360 C.2   101  HIS101      0.2291
     60  O         10.4630   18.2740   17.9140 O.2   101  HIS101     -0.2864
     61  CB        13.2240   19.5870   17.0250 C.3   101  HIS101      0.0771
     62  CG        14.3750   19.8560   16.1110 C.ar  101  HIS101      0.0820
     63  ND1       15.5450   19.1300   16.1580 N.ar  101  HIS101     -0.2267
     64  CD2       14.5300   20.7590   15.1150 C.ar  101  HIS101      0.1154
     65  CE1       16.3760   19.5790   15.2340 C.ar  101  HIS101      0.1986
     66  NE2       15.7830   20.5660   14.5860 N.ar  101  HIS101     -0.2212
     67  N          8.5090   31.5160   16.1910 N.3   141  PRO141     -0.2116
     68  CA         8.4190   31.8390   14.7540 C.3   141  PRO141      0.1372
     69  C          7.4510   30.9060   14.0320 C.2   141  PRO141      0.2244
     70  O          7.5530   29.6870   14.1850 O.2   141  PRO141     -0.2868
     71  CB         9.8570   31.6360   14.2550 C.3   141  PRO141      0.0268
     72  CG        10.7120   31.8540   15.4630 C.3   141  PRO141      0.0207
     73  CD         9.9150   31.3600   16.6320 C.3   141  PRO141      0.0892
     74  N          8.4880   27.8800   11.5380 N.3   144  LEU144     -0.1245
     75  CA         9.1730   26.8350   12.3210 C.3   144  LEU144      0.1561
     76  C          8.1970   25.8080   12.9370 C.2   144  LEU144      0.2260
     77  O          8.5210   24.6220   13.0690 O.2   144  LEU144     -0.2867
     78  CB        10.0670   27.4520   13.4170 C.3   144  LEU144      0.0270
     79  CG        11.4390   28.0420   13.0370 C.3   144  LEU144      0.0019
     80  CD1       12.1620   28.5830   14.2590 C.3   144  LEU144      0.0001
     81  CD2       12.3270   27.0220   12.3450 C.3   144  LEU144      0.0001
@<TRIPOS>BOND
     1    74    75    1
     2    75    76    1
     3    75    78    1
     4    81    79    1
     5    76    77    2
     6    79    78    1
     7    79    80    1
     8    69    70    2
     9    69    68    1
    10    54    53    2
    11    71    68    1
    12    71    72    1
    13    66    64   ar
    14    66    65   ar
    15    68    67    1
    16    55    52    1
    17    55    56    1
    18    64    62   ar
    19    53    52    1
    20    53    57   am
    21    65    63   ar
    22    52    51    1
    23    72    73    1
    24    37    35    1
    25    62    63   ar
    26    62    61    1
    27    67    73    1
    28    58    57    1
    29    58    59    1
    30    58    61    1
    31    35    34    2
    32    35    36    1
    33    34    33    1
    34    59    60    2
    35    33    32    1
    36    32    31    1
    37     6     5    1
    38    49    50    1
    39    49    46    1
    40    31    28    1
    41    24    23    1
    42    24    25    1
    43    23    21   am
    44    18    17    1
    45    47    46    1
    46    47    48    2
    47    27    25   am
    48    27    28    1
    49     5     2    1
    50    46    45    1
    51    25    26    2
    52    15    17   ar
    53    15    13   ar
    54    28    29    1
    55    17    16   ar
    56    20    21    1
    57    20    19    1
    58    21    22    2
    59     2     3    1
    60     2     1    1
    61    13    12   ar
    62    16    14   ar
    63     3     4    2
    64    29    30    2
    65    29    38   am
    66    44    38    1
    67    44    43    1
    68    12    14   ar
    69    12    11    1
    70    38    39    1
    71    43    42    1
    72    11     8    1
    73     9    10    2
    74     9     8    1
    75    39    42    1
    76    39    40    1
    77     8     7    1
    78    40    41    2
