@<TRIPOS>MOLECULE
tmp/5fb7A00.pdb
 178 159 0 0 0
SMALL
GASTEIGER

@<TRIPOS>ATOM
      1  N        -26.9520   11.0990   -6.4460 N.3    12  ILE12      -0.1245
      2  CA       -26.7800   12.3340   -7.2050 C.3    12  ILE12       0.1561
      3  C        -27.6070   13.4700   -6.5490 C.2    12  ILE12       0.2260
      4  O        -27.0870   14.5560   -6.3590 O.2    12  ILE12      -0.2867
      5  CB       -27.1330   12.1750   -8.6980 C.3    12  ILE12       0.0252
      6  CG1      -26.1290   11.1790   -9.3480 C.3    12  ILE12       0.0019
      7  CG2      -27.1050   13.5080   -9.4230 C.3    12  ILE12       0.0019
      8  CD1      -26.5200   10.7850  -10.7210 C.3    12  ILE12       0.0001
      9  N        -26.2330   17.0380   -5.3490 N.3    16  VAL16      -0.1245
     10  CA       -26.8150   18.2740   -5.9160 C.3    16  VAL16       0.1561
     11  C        -27.3710   19.1790   -4.8050 C.2    16  VAL16       0.2260
     12  O        -27.1120   20.4070   -4.7880 O.2    16  VAL16      -0.2867
     13  CB       -28.0030   17.9780   -6.8710 C.3    16  VAL16       0.0252
     14  CG1      -28.6390   19.2770   -7.3520 C.3    16  VAL16       0.0019
     15  CG2      -27.5360   17.2050   -8.0830 C.3    16  VAL16       0.0019
     16  N        -24.6270   20.8600   -2.7280 N.3    19  PHE19      -0.1241
     17  CA       -24.1260   21.9780   -3.4570 C.3    19  PHE19       0.1605
     18  C        -25.0700   23.1780   -3.4070 C.2    19  PHE19       0.2264
     19  O        -24.6410   24.3050   -3.1500 O.2    19  PHE19      -0.2867
     20  CB       -23.8380   21.6050   -4.9420 C.3    19  PHE19       0.0534
     21  CG       -23.4320   22.8050   -5.7880 C.ar   19  PHE19      -0.0203
     22  CD1      -22.1430   23.3500   -5.6660 C.ar   19  PHE19      -0.0042
     23  CD2      -24.3730   23.4770   -6.5350 C.ar   19  PHE19      -0.0042
     24  CE1      -21.7770   24.4370   -6.4050 C.ar   19  PHE19      -0.0003
     25  CE2      -24.0360   24.6730   -7.2150 C.ar   19  PHE19      -0.0003
     26  CZ       -22.7390   25.1450   -7.1320 C.ar   19  PHE19      -0.0000
     27  N        -17.0310   24.6540   -2.3160 N.3    34  LEU34      -0.1231
     28  CA       -17.9040   24.5570   -3.4920 C.3    34  LEU34       0.1693
     29  C        -17.3420   23.6570   -4.5840 C.2    34  LEU34       0.2591
     30  O        -18.0640   22.8260   -5.1420 O.2    34  LEU34      -0.2718
     31  CB       -18.2800   25.9240   -4.0190 C.3    34  LEU34       0.0284
     32  CG       -19.0190   26.8190   -3.0600 C.3    34  LEU34       0.0019
     33  CD1      -19.0510   28.2440   -3.5660 C.3    34  LEU34       0.0001
     34  CD2      -20.4010   26.3040   -2.7750 C.3    34  LEU34       0.0001
     35  N        -16.0570   23.7580   -4.8120 N.am   35  LEU35      -0.1980
     36  CA       -15.3880   22.8320   -5.7100 C.3    35  LEU35       0.1596
     37  C        -15.4210   21.3840   -5.2080 C.2    35  LEU35       0.2287
     38  O        -15.7090   20.4820   -5.9500 O.2    35  LEU35      -0.2864
     39  CB       -13.9180   23.2390   -5.9230 C.3    35  LEU35       0.0297
     40  CG       -13.6360   24.4510   -6.7640 C.3    35  LEU35       0.0022
     41  CD1      -12.1350   24.6590   -6.6890 C.3    35  LEU35       0.0001
     42  CD2      -14.1190   24.3370   -8.2090 C.3    35  LEU35       0.0001
     43  N        -18.7460   20.0680   -5.9290 N.3    38  GLY38      -0.1225
     44  CA       -18.8060   19.6940   -7.3510 C.3    38  GLY38       0.1811
     45  C        -18.0720   18.3830   -7.6180 C.2    38  GLY38       0.2280
     46  O        -18.5430   17.5810   -8.4230 O.2    38  GLY38      -0.2866
     47  N        -20.2430   15.5140   -6.6630 N.3    41  LEU41      -0.1245
     48  CA       -21.2270   15.3690   -7.6940 C.3    41  LEU41       0.1561
     49  C        -20.7300   14.6530   -8.9540 C.2    41  LEU41       0.2260
     50  O        -21.3750   13.7390   -9.4410 O.2    41  LEU41      -0.2867
     51  CB       -21.8520   16.7140   -8.0130 C.3    41  LEU41       0.0270
     52  CG       -22.9020   16.7060   -9.1050 C.3    41  LEU41       0.0019
     53  CD1      -24.0490   15.7410   -8.8380 C.3    41  LEU41       0.0001
     54  CD2      -23.4460   18.1240   -9.3160 C.3    41  LEU41       0.0001
     55  N        -21.9270   10.9180  -10.2870 N.3    45  THR45      -0.1218
     56  CA       -22.3100   10.7730  -11.6560 C.3    45  THR45       0.1862
     57  C        -21.5630    9.5840  -12.2860 C.2    45  THR45       0.2287
     58  O        -22.1980    8.6800  -12.8690 O.2    45  THR45      -0.2866
     59  CB       -22.1000   12.0540  -12.4250 C.3    45  THR45       0.1770
     60  OG1      -22.8350   13.1230  -11.7770 O.3    45  THR45      -0.2211
     61  CG2      -22.5980   11.9040  -13.8760 C.3    45  THR45       0.0375
     62  N        -35.0890   15.5660   -9.3640 N.3    73  LEU73      -0.1245
     63  CA       -33.6550   15.7100   -9.5560 C.3    73  LEU73       0.1561
     64  C        -33.3230   16.6860  -10.7100 C.2    73  LEU73       0.2260
     65  O        -32.4500   17.5340  -10.5760 O.2    73  LEU73      -0.2867
     66  CB       -33.0070   14.3210   -9.7870 C.3    73  LEU73       0.0270
     67  CG       -31.5140   14.3420  -10.0290 C.3    73  LEU73       0.0019
     68  CD1      -30.8110   15.0100   -8.8930 C.3    73  LEU73       0.0001
     69  CD2      -31.0100   12.9170  -10.2130 C.3    73  LEU73       0.0001
     70  N        -31.0490   20.0900  -10.3360 N.3    77  ILE77      -0.1245
     71  CA       -29.8320   20.3200  -11.1580 C.3    77  ILE77       0.1561
     72  C        -29.9120   21.6360  -11.9100 C.2    77  ILE77       0.2260
     73  O        -28.9870   22.4260  -11.8760 O.2    77  ILE77      -0.2867
     74  CB       -29.6510   19.1930  -12.1490 C.3    77  ILE77       0.0252
     75  CG1      -29.3160   17.8970  -11.4310 C.3    77  ILE77       0.0019
     76  CG2      -28.5580   19.5580  -13.1560 C.3    77  ILE77       0.0019
     77  CD1      -29.4930   16.6190  -12.2290 C.3    77  ILE77       0.0001
     78  N        -29.2240   24.2770   -9.4360 N.3    80  ALA80      -0.1231
     79  CA       -27.8160   24.3670   -9.1310 C.3    80  ALA80       0.1694
     80  C        -27.0290   25.1480  -10.1750 C.2    80  ALA80       0.2591
     81  O        -26.1850   25.9680   -9.8430 O.2    80  ALA80      -0.2718
     82  CB       -27.2290   22.9870   -8.9240 C.3    80  ALA80       0.0304
     83  N        -27.3400   24.8960  -11.4190 N.am   81  ILE81      -0.1980
     84  CA       -26.6520   25.5930  -12.4900 C.3    81  ILE81       0.1595
     85  C        -26.9390   27.1100  -12.4550 C.2    81  ILE81       0.2287
     86  O        -26.0230   27.9560  -12.4580 O.2    81  ILE81      -0.2864
     87  CB       -27.0710   25.0020  -13.8370 C.3    81  ILE81       0.0276
     88  CG1      -26.5830   23.5530  -13.9900 C.3    81  ILE81       0.0022
     89  CG2      -26.5580   25.8840  -14.9510 C.3    81  ILE81       0.0022
     90  CD1      -27.2660   22.7980  -15.1140 C.3    81  ILE81       0.0001
     91  N        -25.2080   28.7630   -9.4620 N.3    84  LEU84      -0.1245
     92  CA       -23.7910   28.9350   -9.7210 C.3    84  LEU84       0.1561
     93  C        -23.5090   30.1730  -10.5950 C.2    84  LEU84       0.2260
     94  O        -22.7090   31.0420  -10.2160 O.2    84  LEU84      -0.2867
     95  CB       -23.2480   27.6800  -10.3440 C.3    84  LEU84       0.0270
     96  CG       -21.7530   27.7620  -10.7110 C.3    84  LEU84       0.0019
     97  CD1      -20.8530   27.7830   -9.4880 C.3    84  LEU84       0.0001
     98  CD2      -21.4150   26.6260  -11.6270 C.3    84  LEU84       0.0001
     99  N        -13.7840   26.7940  -11.5130 N.3   100  VAL100     -0.1245
    100  CA       -15.2050   26.4810  -11.7280 C.3   100  VAL100      0.1561
    101  C        -15.4220   26.0660  -13.1830 C.2   100  VAL100      0.2260
    102  O        -16.0650   25.0570  -13.4530 O.2   100  VAL100     -0.2867
    103  CB       -16.0710   27.6740  -11.3520 C.3   100  VAL100      0.0252
    104  CG1      -17.4710   27.4820  -11.8480 C.3   100  VAL100      0.0019
    105  CG2      -16.0480   27.8980   -9.8100 C.3   100  VAL100      0.0019
    106  N        -14.1020   22.5110  -13.4820 N.3   103  ASN103     -0.1225
    107  CA       -14.9500   21.5650  -12.8970 C.3   103  ASN103      0.1785
    108  C        -16.2310   21.3500  -13.7670 C.2   103  ASN103      0.2597
    109  O        -16.6810   20.2450  -13.9430 O.2   103  ASN103     -0.2718
    110  CB       -15.3090   22.0810  -11.5120 C.3   103  ASN103      0.1169
    111  CG       -16.0060   21.0620  -10.6840 C.2   103  ASN103      0.2627
    112  OD1      -17.2150   20.8990  -10.8090 O.2   103  ASN103     -0.2716
    113  ND2      -15.2890   20.5120   -9.6850 N.am  103  ASN103     -0.0877
    114  N        -16.8050   22.4280  -14.2630 N.am  104  LEU104     -0.1980
    115  CA       -17.9770   22.3030  -15.1550 C.3   104  LEU104      0.1596
    116  C        -17.7090   21.5040  -16.4430 C.2   104  LEU104      0.2287
    117  O        -18.5420   20.7280  -16.8750 O.2   104  LEU104     -0.2864
    118  CB       -18.5140   23.7030  -15.5570 C.3   104  LEU104      0.0297
    119  CG       -19.2250   24.4690  -14.4550 C.3   104  LEU104      0.0022
    120  CD1      -19.4030   25.9270  -14.9040 C.3   104  LEU104      0.0001
    121  CD2      -20.5360   23.8370  -14.0660 C.3   104  LEU104      0.0001
    122  N        -17.9580   18.0560  -15.2610 N.3   107  GLN107     -0.1245
    123  CA       -19.4020   17.7640  -15.0080 C.3   107  GLN107      0.1566
    124  C        -20.0770   17.4150  -16.3410 C.2   107  GLN107      0.2260
    125  O        -20.8530   16.4700  -16.4210 O.2   107  GLN107     -0.2867
    126  CB       -20.1260   18.9730  -14.3990 C.3   107  GLN107      0.0367
    127  CG       -19.6050   19.4930  -13.0680 C.3   107  GLN107      0.0905
    128  CD       -20.1110   18.7060  -11.8480 C.2   107  GLN107      0.2608
    129  OE1      -20.9270   17.7760  -11.9810 O.2   107  GLN107     -0.2717
    130  NE2      -19.6140   19.0600  -10.6490 N.am  107  GLN107     -0.0878
    131  N        -21.7740   13.8770  -17.1130 N.3   111  ALA111     -0.1245
    132  CA       -23.2210   13.9060  -17.3520 C.3   111  ALA111      0.1562
    133  C        -23.5270   13.3190  -18.7050 C.2   111  ALA111      0.2260
    134  O        -24.5170   12.6340  -18.8620 O.2   111  ALA111     -0.2867
    135  CB       -23.7790   15.3160  -17.2360 C.3   111  ALA111      0.0290
    136  N        -23.4730    9.5770  -18.5510 N.3   114  LEU114     -0.1231
    137  CA       -24.6150    9.0220  -17.8530 C.3   114  LEU114      0.1693
    138  C        -25.8970    9.1770  -18.6920 C.2   114  LEU114      0.2592
    139  O        -26.6990    8.2790  -18.7190 O.2   114  LEU114     -0.2718
    140  CB       -24.7770    9.6670  -16.4540 C.3   114  LEU114      0.0284
    141  CG       -25.8810    9.0850  -15.5980 C.3   114  LEU114      0.0019
    142  CD1      -25.7980    7.5730  -15.4750 C.3   114  LEU114      0.0001
    143  CD2      -25.9190    9.7780  -14.2120 C.3   114  LEU114      0.0001
    144  N        -26.0440   10.3080  -19.3900 N.am  115  SER115     -0.1952
    145  CA       -27.2410   10.5420  -20.1980 C.3   115  SER115      0.1924
    146  C        -27.3360    9.5310  -21.3040 C.2   115  SER115      0.2314
    147  O        -28.4210    9.0630  -21.6250 O.2   115  SER115     -0.2863
    148  CB       -27.2000   11.9370  -20.7970 C.3   115  SER115      0.2116
    149  OG       -27.2870   12.8950  -19.7740 O.3   115  SER115     -0.2180
    150  N        -28.3870    6.2580  -19.8160 N.3   118  VAL118     -0.1245
    151  CA       -29.8340    6.3200  -19.4780 C.3   118  VAL118      0.1561
    152  C        -30.7100    6.1030  -20.7060 C.2   118  VAL118      0.2260
    153  O        -31.7560    5.4310  -20.6310 O.2   118  VAL118     -0.2867
    154  CB       -30.2090    7.6400  -18.7760 C.3   118  VAL118      0.0252
    155  CG1      -31.7360    7.8240  -18.7020 C.3   118  VAL118      0.0019
    156  CG2      -29.5910    7.6660  -17.3850 C.3   118  VAL118      0.0019
    157  N        -32.7180   15.4100  -20.2390 N.3   134  SER134     -0.1217
    158  CA       -31.2680   15.2810  -20.3940 C.3   134  SER134      0.1889
    159  C        -30.6960   16.4320  -21.1880 C.2   134  SER134      0.2288
    160  O        -29.6560   16.9990  -20.8220 O.2   134  SER134     -0.2866
    161  CB       -30.9040   13.9300  -21.0450 C.3   134  SER134      0.2089
    162  OG       -31.3940   12.8780  -20.2250 O.3   134  SER134     -0.2183
    163  N        -30.4690   19.6610  -19.0750 N.3   137  ILE137     -0.1245
    164  CA       -29.3460   19.6300  -18.1600 C.3   137  ILE137      0.1561
    165  C        -28.0600   19.9060  -18.9560 C.2   137  ILE137      0.2260
    166  O        -27.2310   20.7230  -18.5290 O.2   137  ILE137     -0.2867
    167  CB       -29.2760   18.3140  -17.3600 C.3   137  ILE137      0.0252
    168  CG1      -30.4210   18.2490  -16.3310 C.3   137  ILE137      0.0019
    169  CG2      -27.9060   18.1450  -16.6810 C.3   137  ILE137      0.0019
    170  CD1      -30.7710   16.8630  -15.8880 C.3   137  ILE137      0.0001
    171  N        -25.5260   23.0400  -18.2710 N.3   141  ILE141     -0.1245
    172  CA       -24.1170   22.9380  -17.9390 C.3   141  ILE141      0.1561
    173  C        -23.3140   23.7920  -18.8770 C.2   141  ILE141      0.2260
    174  O        -22.3810   24.4910  -18.4990 O.2   141  ILE141     -0.2867
    175  CB       -23.6180   21.4740  -17.9780 C.3   141  ILE141      0.0252
    176  CG1      -24.3110   20.6380  -16.8880 C.3   141  ILE141      0.0019
    177  CG2      -22.0800   21.4370  -17.7410 C.3   141  ILE141      0.0019
    178  CD1      -24.0730   19.1390  -17.0260 C.3   141  ILE141      0.0001
@<TRIPOS>BOND
     1   147   146    2
     2   146   145    1
     3   159   160    2
     4   159   158    1
     5   161   158    1
     6   161   162    1
     7   148   145    1
     8   148   149    1
     9   152   153    2
    10   152   151    1
    11   158   157    1
    12   145   144    1
    13   150   151    1
    14   151   154    1
    15   144   138   am
    16   163   164    1
    17   165   166    2
    18   165   164    1
    19   173   174    2
    20   173   172    1
    21   134   133    2
    22   154   155    1
    23   154   156    1
    24   139   138    2
    25   133   132    1
    26   138   137    1
    27   136   137    1
    28   171   172    1
    29   164   167    1
    30   175   172    1
    31   175   177    1
    32   175   176    1
    33   137   140    1
    34   167   169    1
    35   167   168    1
    36   132   135    1
    37   132   131    1
    38   178   176    1
    39   117   116    2
    40   140   141    1
    41   116   115    1
    42   125   124    2
    43   124   123    1
    44   168   170    1
    45   141   142    1
    46   141   143    1
    47   118   115    1
    48   118   119    1
    49   122   123    1
    50   115   114    1
    51    90    88    1
    52   123   126    1
    53    89    87    1
    54   120   119    1
    55   119   121    1
    56   126   127    1
    57   114   108   am
    58    88    87    1
    59   109   108    2
    60    61    59    1
    61    87    84    1
    62   108   107    1
    63   106   107    1
    64   102   101    2
    65   101   100    1
    66    76    74    1
    67   127   128    1
    68   107   110    1
    69    58    57    2
    70    84    85    1
    71    84    83    1
    72    86    85    2
    73    59    60    1
    74    59    56    1
    75    57    56    1
    76    77    75    1
    77    74    75    1
    78    74    71    1
    79   129   128    2
    80    72    73    2
    81    72    71    1
    82   104   103    1
    83   128   130   am
    84   100    99    1
    85   100   103    1
    86    56    55    1
    87    98    96    1
    88   110   111    1
    89    83    80   am
    90   103   105    1
    91    71    70    1
    92   112   111    2
    93     8     6    1
    94    96    95    1
    95    96    97    1
    96    64    65    2
    97    64    63    1
    98   111   113   am
    99    93    94    2
   100    93    92    1
   101    95    92    1
   102    69    67    1
   103    80    81    2
   104    80    79    1
   105    67    66    1
   106    67    68    1
   107    66    63    1
   108    92    91    1
   109    63    62    1
   110    50    49    2
   111    78    79    1
   112     7     5    1
   113     6     5    1
   114    54    52    1
   115    79    82    1
   116    52    53    1
   117    52    51    1
   118    49    48    1
   119     5     2    1
   120    46    45    2
   121    42    40    1
   122    15    13    1
   123    51    48    1
   124    48    47    1
   125    45    44    1
   126    14    13    1
   127    44    43    1
   128    25    26   ar
   129    25    23   ar
   130     2     3    1
   131     2     1    1
   132    26    24   ar
   133    13    10    1
   134    40    41    1
   135    40    39    1
   136     3     4    2
   137    23    21   ar
   138    24    22   ar
   139    38    37    2
   140    39    36    1
   141    10     9    1
   142    10    11    1
   143    21    22   ar
   144    21    20    1
   145    36    37    1
   146    36    35    1
   147    30    29    2
   148    20    17    1
   149    35    29   am
   150    11    12    2
   151    29    28    1
   152    31    28    1
   153    31    32    1
   154    33    32    1
   155    28    27    1
   156    17    18    1
   157    17    16    1
   158    18    19    2
   159    32    34    1
