@<TRIPOS>MOLECULE
tmp/5fbbA04.pdb
 79 77 0 0 0
SMALL
GASTEIGER

@<TRIPOS>ATOM
      1  N         17.9810   12.5720    4.7050 N.3    24  PHE24      -0.1241
      2  CA        16.8540   13.4580    4.9160 C.3    24  PHE24       0.1605
      3  C         15.8450   12.7860    5.8570 C.2    24  PHE24       0.2264
      4  O         15.3740   13.3740    6.8490 O.2    24  PHE24      -0.2867
      5  CB        16.2400   13.7650    3.5590 C.3    24  PHE24       0.0534
      6  CG        14.9640   14.5920    3.6050 C.ar   24  PHE24      -0.0203
      7  CD1       15.0450   15.9790    3.5390 C.ar   24  PHE24      -0.0042
      8  CD2       13.7310   13.9980    3.5390 C.ar   24  PHE24      -0.0042
      9  CE1       13.8830   16.7870    3.4980 C.ar   24  PHE24      -0.0003
     10  CE2       12.5610   14.7710    3.5300 C.ar   24  PHE24      -0.0003
     11  CZ        12.6370   16.1860    3.5080 C.ar   24  PHE24      -0.0000
     12  N          6.0130   18.1020    3.9240 N.3    97  LEU97      -0.1231
     13  CA         7.4290   17.7210    3.8130 C.3    97  LEU97       0.1693
     14  C          8.2170   18.5490    2.7650 C.2    97  LEU97       0.2592
     15  O          9.4360   18.7930    2.9290 O.2    97  LEU97      -0.2718
     16  CB         7.5320   16.2390    3.4870 C.3    97  LEU97       0.0284
     17  CG         7.0470   15.2780    4.5690 C.3    97  LEU97       0.0019
     18  CD1        6.8160   13.8930    3.9850 C.3    97  LEU97       0.0001
     19  CD2        8.0520   15.2050    5.7010 C.3    97  LEU97       0.0001
     20  N          7.5300   19.0010    1.7210 N.am   98  LEU98      -0.1966
     21  CA         8.1500   19.8320    0.6780 C.3    98  LEU98       0.1728
     22  C          8.4460   21.1870    1.2190 C.2    98  LEU98       0.2616
     23  O          9.5630   21.6630    0.9920 O.2    98  LEU98      -0.2715
     24  CB         7.2970   19.9840   -0.5670 C.3    98  LEU98       0.0311
     25  CG         7.2750   18.7350   -1.4020 C.3    98  LEU98       0.0022
     26  CD1        6.1850   18.8580   -2.4450 C.3    98  LEU98       0.0001
     27  CD2        8.6120   18.4800   -2.0910 C.3    98  LEU98       0.0001
     28  N          7.5300   21.7590    1.9910 N.am   99  GLU99      -0.1977
     29  CA         7.6380   23.1710    2.3650 C.3    99  GLU99       0.1602
     30  C          8.1230   23.3780    3.7940 C.2    99  GLU99       0.2287
     31  O          8.7760   24.3890    4.0690 O.2    99  GLU99      -0.2864
     32  CB         6.3270   23.9070    2.0870 C.3    99  GLU99       0.0415
     33  CG         5.9660   23.8960    0.6200 C.3    99  GLU99       0.1163
     34  CD         4.6510   24.5770    0.3170 C.2    99  GLU99       0.3649
     35  OE1        4.5750   25.2380   -0.7330 O.co2  99  GLU99      -0.2457
     36  OE2        3.7010   24.4490    1.1200 O.co2  99  GLU99      -0.2457
     37  N          9.8200   20.7070    6.0700 N.3   101  PRO101     -0.2102
     38  CA        10.4780   19.4790    6.5630 C.3   101  PRO101      0.1504
     39  C         11.1270   19.5820    7.9640 C.2   101  PRO101      0.2575
     40  O         11.5080   18.5570    8.5570 O.2   101  PRO101     -0.2718
     41  CB        11.5580   19.2090    5.4980 C.3   101  PRO101      0.0282
     42  CG        11.8710   20.5500    4.9460 C.3   101  PRO101      0.0208
     43  CD        10.5640   21.3090    4.9450 C.3   101  PRO101      0.0893
     44  N         11.3430   20.8020    8.4320 N.am  102  ASN102     -0.1975
     45  CA        11.8310   21.0390    9.8240 C.3   102  ASN102      0.1688
     46  C         10.7750   21.5880   10.8050 C.2   102  ASN102      0.2292
     47  O         11.1100   21.9570   11.9190 O.2   102  ASN102     -0.2864
     48  CB        13.0470   21.9700    9.7770 C.3   102  ASN102      0.1181
     49  CG        14.0710   21.5260    8.7520 C.2   102  ASN102      0.2629
     50  OD1       14.3640   22.2580    7.8160 O.2   102  ASN102     -0.2716
     51  ND2       14.5740   20.3000    8.8820 N.am  102  ASN102     -0.0877
     52  N         10.7340   14.3370   -2.7680 N.3   262  ILE262     -0.1231
     53  CA        10.5430   15.2120   -1.6140 C.3   262  ILE262      0.1692
     54  C         11.8740   15.7900   -1.1400 C.2   262  ILE262      0.2592
     55  O         11.9950   16.9850   -0.8420 O.2   262  ILE262     -0.2718
     56  CB         9.8000   14.4420   -0.4520 C.3   262  ILE262      0.0266
     57  CG1        8.3300   14.2150   -0.8710 C.3   262  ILE262      0.0019
     58  CG2        9.8640   15.2000    0.8590 C.3   262  ILE262      0.0020
     59  CD1        7.5390   13.2870    0.0150 C.3   262  ILE262      0.0001
     60  N         12.8760   14.9360   -1.0820 N.am  263  ALA263     -0.1966
     61  CA        14.1840   15.3020   -0.5560 C.3   263  ALA263      0.1728
     62  C         14.9950   16.1390   -1.5270 C.2   263  ALA263      0.2617
     63  O         16.0400   16.6520   -1.1470 O.2   263  ALA263     -0.2715
     64  CB        14.9610   14.0350   -0.1670 C.3   263  ALA263      0.0334
     65  N         14.5410   16.2690   -2.7810 N.am  264  SER264     -0.1936
     66  CA        15.2400   17.0610   -3.8210 C.3   264  SER264      0.2055
     67  C         14.5350   18.1600   -4.6920 C.2   264  SER264      0.2642
     68  O         15.2400   19.0410   -5.2140 O.2   264  SER264     -0.2714
     69  CB        15.8720   16.0540   -4.7540 C.3   264  SER264      0.2130
     70  OG        14.8680   15.4700   -5.6240 O.3   264  SER264     -0.2179
     71  N         13.1940   18.1690   -4.8190 N.am  265  GLN265     -0.1976
     72  CA        12.4800   19.0870   -5.7850 C.3   265  GLN265      0.1601
     73  C         11.8180   20.3180   -5.1850 C.2   265  GLN265      0.2287
     74  O         11.2970   20.2320   -4.0730 O.2   265  GLN265     -0.2864
     75  CB        11.3750   18.3470   -6.5500 C.3   265  GLN265      0.0394
     76  CG        11.8750   17.0180   -7.0950 C.3   265  GLN265      0.0908
     77  CD        12.8400   17.1910   -8.2670 C.2   265  GLN265      0.2608
     78  OE1       12.4460   17.5820   -9.3670 O.2   265  GLN265     -0.2717
     79  NE2       14.1090   16.8630   -8.0390 N.am  265  GLN265     -0.0878
@<TRIPOS>BOND
     1    78    77    2
     2    77    79   am
     3    77    76    1
     4    76    75    1
     5    75    72    1
     6    72    73    1
     7    72    71    1
     8    70    69    1
     9    68    67    2
    10    73    74    2
    11    71    67   am
    12    69    66    1
    13    67    66    1
    14    66    65    1
    15    65    62   am
    16    52    53    1
    17    26    25    1
    18    27    25    1
    19    53    54    1
    20    53    56    1
    21    62    63    2
    22    62    61    1
    23    25    24    1
    24    54    60   am
    25    54    55    2
    26    60    61    1
    27    57    56    1
    28    57    59    1
    29    35    34   ar
    30    24    21    1
    31    61    64    1
    32    56    58    1
    33    34    33    1
    34    34    36   ar
    35    33    32    1
    36    21    22    1
    37    21    20    1
    38    23    22    2
    39    22    28   am
    40    20    14   am
    41    28    29    1
    42    32    29    1
    43    29    30    1
    44    14    15    2
    45    14    13    1
    46    16    13    1
    47    16    17    1
    48     9    11   ar
    49     9     7   ar
    50    11    10   ar
    51    10     8   ar
    52     7     6   ar
    53     8     6   ar
    54     5     6    1
    55     5     2    1
    56    30    31    2
    57    13    12    1
    58    18    17    1
    59    17    19    1
    60     1     2    1
    61     2     3    1
    62    43    42    1
    63    43    37    1
    64    42    41    1
    65    41    38    1
    66     3     4    2
    67    37    38    1
    68    38    39    1
    69    50    49    2
    70    39    44   am
    71    39    40    2
    72    44    45    1
    73    49    51   am
    74    49    48    1
    75    48    45    1
    76    45    46    1
    77    46    47    2
