@<TRIPOS>MOLECULE
tmp/5fbbB00.pdb
 108 105 0 0 0
SMALL
GASTEIGER

@<TRIPOS>ATOM
      1  N          0.5540    3.3160  -24.1290 N.3    57  LYS57      -0.1245
      2  CA         1.0780    4.6520  -23.8200 C.3    57  LYS57       0.1561
      3  C          1.4030    5.5040  -25.0480 C.2    57  LYS57       0.2260
      4  O          1.0350    6.6720  -25.0520 O.2    57  LYS57      -0.2867
      5  CB         2.2930    4.4910  -22.8940 C.3    57  LYS57       0.0271
      6  CG         2.8530    5.7510  -22.3210 C.3    57  LYS57       0.0035
      7  CD         4.0800    5.3860  -21.4760 C.3    57  LYS57       0.0206
      8  CE         3.6840    4.2970  -20.5410 C.3    57  LYS57       0.1093
      9  NZ         2.9520    4.8940  -19.3830 N.3    57  LYS57      -0.1314
     10  N         -1.3230    7.9350  -27.2740 N.3    60  HIS60      -0.1226
     11  CA        -1.8370    9.2530  -26.8630 C.3    60  HIS60       0.1752
     12  C         -1.2870   10.4100  -27.6280 C.2    60  HIS60       0.2596
     13  O         -1.7630   11.5490  -27.4490 O.2    60  HIS60      -0.2718
     14  CB        -1.6990    9.4500  -25.3080 C.3    60  HIS60       0.0759
     15  CG        -2.4720    8.4100  -24.5380 C.ar   60  HIS60       0.0818
     16  ND1       -3.5620    8.6930  -23.7400 N.ar   60  HIS60      -0.2268
     17  CD2       -2.3310    7.0630  -24.5000 C.ar   60  HIS60       0.1154
     18  CE1       -4.0940    7.5810  -23.2750 C.ar   60  HIS60       0.1986
     19  NE2       -3.3400    6.5710  -23.6890 N.ar   60  HIS60      -0.2212
     20  N         -0.2570   10.1740  -28.4490 N.am   61  PHE61      -0.1962
     21  CA         0.4210   11.2820  -29.0790 C.3    61  PHE61       0.1771
     22  C          1.0740   10.8840  -30.3770 C.2    61  PHE61       0.2619
     23  O          1.1640    9.7190  -30.7280 O.2    61  PHE61      -0.2715
     24  CB         1.4140   11.9340  -28.0920 C.3    61  PHE61       0.0574
     25  CG         2.4190   10.9820  -27.5730 C.ar   61  PHE61      -0.0200
     26  CD1        3.5310   10.6790  -28.2820 C.ar   61  PHE61      -0.0042
     27  CD2        2.2160   10.3880  -26.3490 C.ar   61  PHE61      -0.0042
     28  CE1        4.4790    9.7480  -27.7780 C.ar   61  PHE61      -0.0003
     29  CE2        3.0880    9.4540  -25.8570 C.ar   61  PHE61      -0.0003
     30  CZ         4.2360    9.1270  -26.5620 C.ar   61  PHE61      -0.0000
     31  N          1.5160   11.8820  -31.1170 N.am   62  ILE62      -0.1963
     32  CA         2.4180   11.6480  -32.2640 C.3    62  ILE62       0.1727
     33  C          3.5750   12.6530  -32.0790 C.2    62  ILE62       0.2616
     34  O          3.3590   13.8610  -32.0260 O.2    62  ILE62      -0.2715
     35  CB         1.7380   11.6670  -33.6400 C.3    62  ILE62       0.0290
     36  CG1        2.7940   11.3650  -34.7510 C.3    62  ILE62       0.0022
     37  CG2        0.9820   12.9890  -33.8670 C.3    62  ILE62       0.0023
     38  CD1        2.2530   10.9890  -36.1000 C.3    62  ILE62       0.0001
     39  N          4.8030   12.1300  -31.9800 N.am   63  ASP63      -0.1971
     40  CA         5.9300   12.9870  -31.6630 C.3    63  ASP63       0.1709
     41  C          6.4490   13.6780  -32.9580 C.2    63  ASP63       0.2293
     42  O          7.4420   13.2350  -33.5580 O.2    63  ASP63      -0.2864
     43  CB         7.0310   12.1590  -31.0310 C.3    63  ASP63       0.1436
     44  CG         6.9120   12.0790  -29.5490 C.2    63  ASP63       0.3671
     45  OD1        6.2740   12.9430  -28.9050 O.co2  63  ASP63      -0.2456
     46  OD2        7.5700   11.1770  -28.9970 O.co2  63  ASP63      -0.2456
     47  N          0.4320   19.9720  -27.8560 N.3   124  LEU124     -0.1231
     48  CA         1.6590   19.3030  -27.3780 C.3   124  LEU124      0.1693
     49  C          1.6290   17.7550  -27.4080 C.2   124  LEU124      0.2592
     50  O          2.7070   17.1320  -27.2700 O.2   124  LEU124     -0.2718
     51  CB         2.0720   19.8090  -26.0280 C.3   124  LEU124      0.0284
     52  CG         2.6340   21.2120  -26.0310 C.3   124  LEU124      0.0019
     53  CD1        2.7250   21.7370  -24.5920 C.3   124  LEU124      0.0001
     54  CD2        3.9710   21.3190  -26.7650 C.3   124  LEU124      0.0001
     55  N          0.4460   17.1450  -27.6600 N.am  125  HIS125     -0.1976
     56  CA         0.3450   15.7350  -28.0530 C.3   125  HIS125      0.1656
     57  C          0.7150   15.5220  -29.5320 C.2   125  HIS125      0.2291
     58  O          0.6690   14.3770  -30.0370 O.2   125  HIS125     -0.2864
     59  CB        -1.0590   15.2290  -27.7560 C.3   125  HIS125      0.0771
     60  CG        -1.2640   14.8970  -26.3130 C.ar  125  HIS125      0.0820
     61  ND1       -1.5150   13.6200  -25.8750 N.ar  125  HIS125     -0.2267
     62  CD2       -1.2560   15.6860  -25.2020 C.ar  125  HIS125      0.1154
     63  CE1       -1.6090   13.6110  -24.5580 C.ar  125  HIS125      0.1986
     64  NE2       -1.4500   14.8610  -24.1280 N.ar  125  HIS125     -0.2212
     65  N          3.7470   16.9020  -30.8680 N.3   127  GLU127     -0.1231
     66  CA         5.0640   17.5340  -30.8530 C.3   127  GLU127      0.1699
     67  C          6.0830   16.7070  -30.0870 C.2   127  GLU127      0.2592
     68  O          5.8790   16.3420  -28.9540 O.2   127  GLU127     -0.2718
     69  CB         4.9270   18.9280  -30.2250 C.3   127  GLU127      0.0402
     70  CG         6.2360   19.7080  -30.0520 C.3   127  GLU127      0.1161
     71  CD         7.0150   19.8370  -31.3450 C.2   127  GLU127      0.3649
     72  OE1        6.3650   20.2390  -32.3560 O.co2 127  GLU127     -0.2457
     73  OE2        8.2700   19.4880  -31.3580 O.co2 127  GLU127     -0.2457
     74  N          7.2220   16.4730  -30.6920 N.am  128  ASN128     -0.1974
     75  CA         8.3000   15.6900  -30.0750 C.3   128  ASN128      0.1688
     76  C          9.0850   16.4590  -29.0250 C.2   128  ASN128      0.2292
     77  O          9.4760   15.8600  -28.0180 O.2   128  ASN128     -0.2864
     78  CB         9.2950   15.2170  -31.1330 C.3   128  ASN128      0.1181
     79  CG        10.2970   14.2260  -30.5720 C.2   128  ASN128      0.2629
     80  OD1        9.9140   13.2290  -30.0230 O.2   128  ASN128     -0.2716
     81  ND2       11.5700   14.5320  -30.7010 N.am  128  ASN128     -0.0877
     82  N          9.7460   15.7660  -25.0250 N.3   131  ALA131     -0.1231
     83  CA         8.5970   14.8960  -24.7860 C.3   131  ALA131      0.1694
     84  C          7.2270   15.6300  -24.6700 C.2   131  ALA131      0.2592
     85  O          6.5430   15.5210  -23.6720 O.2   131  ALA131     -0.2718
     86  CB         8.8350   14.0510  -23.5660 C.3   131  ALA131      0.0304
     87  N          6.8760   16.3120  -25.7510 N.am  132  GLY132     -0.1957
     88  CA         5.6830   17.1230  -25.8360 C.3   132  GLY132      0.1869
     89  C          5.6710   18.2050  -24.7800 C.2   132  GLY132      0.2309
     90  O          4.6010   18.5490  -24.2520 O.2   132  GLY132     -0.2863
     91  N          6.8260   18.0200  -21.7640 N.3   134  ASN134     -0.1240
     92  CA         6.9580   17.4870  -20.3980 C.3   134  ASN134      0.1653
     93  C          8.3050   17.8700  -19.7410 C.2   134  ASN134      0.2266
     94  O          8.3740   18.1000  -18.5290 O.2   134  ASN134     -0.2867
     95  CB         6.7640   15.9800  -20.3860 C.3   134  ASN134      0.1155
     96  CG         5.3030   15.6010  -20.3430 C.2   134  ASN134      0.2627
     97  OD1        4.6210   15.8190  -19.3480 O.2   134  ASN134     -0.2716
     98  ND2        4.8100   15.0000  -21.4120 N.am  134  ASN134     -0.0877
     99  N          3.7570   20.9620  -20.6430 N.3   148  HIS148     -0.1241
    100  CA         2.7460   19.9510  -21.0470 C.3   148  HIS148      0.1621
    101  C          1.5710   19.9670  -20.0990 C.2   148  HIS148      0.2264
    102  O          0.3950   20.0100  -20.4890 O.2   148  HIS148     -0.2867
    103  CB         3.3550   18.5700  -21.1410 C.3   148  HIS148      0.0745
    104  CG         2.4470   17.5770  -21.7890 C.ar  148  HIS148      0.0817
    105  ND1        2.5290   17.2520  -23.1270 N.ar  148  HIS148     -0.2268
    106  CD2        1.3630   16.9190  -21.2980 C.ar  148  HIS148      0.1154
    107  CE1        1.5390   16.4070  -23.4270 C.ar  148  HIS148      0.1986
    108  NE2        0.8370   16.1670  -22.3210 N.ar  148  HIS148     -0.2212
@<TRIPOS>BOND
     1    38    36    1
     2    36    35    1
     3    37    35    1
     4    35    32    1
     5    42    41    2
     6    41    40    1
     7    72    71   ar
     8    32    33    1
     9    32    31    1
    10    33    34    2
    11    33    39   am
    12    39    40    1
    13    40    43    1
    14    73    71   ar
    15    71    70    1
    16    78    79    1
    17    78    75    1
    18    31    22   am
    19    43    44    1
    20    65    66    1
    21    66    69    1
    22    66    67    1
    23    23    22    2
    24    81    79   am
    25    74    67   am
    26    74    75    1
    27    79    80    2
    28    22    21    1
    29    69    70    1
    30    67    68    2
    31    75    76    1
    32    58    57    2
    33    44    46   ar
    34    44    45   ar
    35    57    56    1
    36    21    20    1
    37    21    24    1
    38    76    77    2
    39    20    12   am
    40    26    28   ar
    41    26    25   ar
    42    24    25    1
    43    56    59    1
    44    56    55    1
    45    47    48    1
    46    28    30   ar
    47    59    60    1
    48    55    49   am
    49    12    13    2
    50    12    11    1
    51    25    27   ar
    52    49    48    1
    53    49    50    2
    54    48    51    1
    55    10    11    1
    56    11    14    1
    57    54    52    1
    58    30    29   ar
    59    27    29   ar
    60    60    61   ar
    61    60    62   ar
    62    52    51    1
    63    52    53    1
    64    61    63   ar
    65    88    87    1
    66    88    89    1
    67    87    84   am
    68    14    15    1
    69    62    64   ar
    70     4     3    2
    71     3     2    1
    72    82    83    1
    73    83    84    1
    74    83    86    1
    75    89    90    2
    76    84    85    2
    77    63    64   ar
    78    15    17   ar
    79    15    16   ar
    80    17    19   ar
    81     1     2    1
    82     2     5    1
    83    16    18   ar
    84    19    18   ar
    85   107   105   ar
    86   107   108   ar
    87   105   104   ar
    88     5     6    1
    89   108   106   ar
    90     6     7    1
    91   104   106   ar
    92   104   103    1
    93    91    92    1
    94     7     8    1
    95    98    96   am
    96   103   100    1
    97   100    99    1
    98   100   101    1
    99     8     9    1
   100   102   101    2
   101    92    95    1
   102    92    93    1
   103    95    96    1
   104    96    97    2
   105    93    94    2
