@<TRIPOS>MOLECULE
tmp/5fbcA02.pdb
 134 130 0 0 0
SMALL
GASTEIGER

@<TRIPOS>ATOM
      1  N         -4.8580   -4.4330   18.5680 N.3     1  TRP1       -0.1241
      2  CA        -3.9240   -5.2470   17.7420 C.3     1  TRP1        0.1605
      3  C         -4.1170   -6.6960   18.1100 C.2     1  TRP1        0.2264
      4  O         -4.6360   -7.0460   19.1890 O.2     1  TRP1       -0.2867
      5  CB        -2.4790   -4.8530   18.0010 C.3     1  TRP1        0.0550
      6  CG        -2.2250   -3.3490   17.8270 C.ar    1  TRP1        0.0003
      7  CD1       -2.0860   -2.4080   18.8470 C.ar    1  TRP1        0.0946
      8  CD2       -2.1380   -2.6170   16.6010 C.ar    1  TRP1        0.0152
      9  NE1       -1.8800   -1.1550   18.3170 N.ar    1  TRP1       -0.2442
     10  CE2       -1.9180   -1.2510   16.9450 C.ar    1  TRP1        0.0810
     11  CE3       -2.2020   -2.9740   15.2420 C.ar    1  TRP1        0.0012
     12  CZ2       -1.8000   -0.2380   15.9720 C.ar    1  TRP1        0.0191
     13  CZ3       -2.0660   -1.9110   14.2440 C.ar    1  TRP1        0.0001
     14  CH2       -1.8830   -0.5760   14.6520 C.ar    1  TRP1        0.0015
     15  N         -6.1040  -10.0440   26.1040 N.3    45  ASP45      -0.1239
     16  CA        -6.8890  -10.6580   25.0690 C.3    45  ASP45       0.1674
     17  C         -7.2920  -12.1540   25.3480 C.2    45  ASP45       0.2266
     18  O         -8.2470  -12.6120   24.7570 O.2    45  ASP45      -0.2867
     19  CB        -6.2650  -10.5540   23.6710 C.3    45  ASP45       0.1410
     20  CG        -6.4530   -9.1660   23.0300 C.2    45  ASP45       0.3668
     21  OD1       -7.2960   -8.3350   23.4920 O.co2  45  ASP45      -0.2456
     22  OD2       -5.7650   -8.8840   22.0420 O.co2  45  ASP45      -0.2456
     23  N        -10.0880  -11.6160   28.7120 N.3    48  LYS48      -0.1231
     24  CA       -11.4240  -11.2330   28.3360 C.3    48  LYS48       0.1693
     25  C        -12.3690  -12.3590   27.9100 C.2    48  LYS48       0.2592
     26  O        -13.5690  -12.1630   27.9110 O.2    48  LYS48      -0.2718
     27  CB       -11.3720  -10.0990   27.2900 C.3    48  LYS48       0.0285
     28  CG       -11.0730  -10.5180   25.9020 C.3    48  LYS48       0.0035
     29  CD       -10.7030   -9.3400   25.0430 C.3    48  LYS48       0.0206
     30  CE       -10.5180   -9.7510   23.5730 C.3    48  LYS48       0.1093
     31  NZ       -10.0510   -8.5960   22.7450 N.3    48  LYS48      -0.1314
     32  N        -11.8170  -13.4960   27.4790 N.am   49  TYR49      -0.1976
     33  CA       -12.6320  -14.6490   27.1270 C.3    49  TYR49       0.1639
     34  C        -12.6940  -15.7010   28.2440 C.2    49  TYR49       0.2290
     35  O        -12.9580  -16.8610   27.9620 O.2    49  TYR49      -0.2864
     36  CB       -12.0450  -15.2740   25.8430 C.3    49  TYR49       0.0560
     37  CG       -12.2200  -14.4110   24.6310 C.ar   49  TYR49      -0.0198
     38  CD1      -13.4940  -14.1130   24.1830 C.ar   49  TYR49      -0.0009
     39  CD2      -11.1070  -13.9060   23.9120 C.ar   49  TYR49      -0.0009
     40  CE1      -13.6810  -13.3110   23.0510 C.ar   49  TYR49       0.0417
     41  CE2      -11.2870  -13.1020   22.7690 C.ar   49  TYR49       0.0417
     42  CZ       -12.5610  -12.8090   22.3720 C.ar   49  TYR49       0.1957
     43  OH       -12.8050  -12.0430   21.2690 O.3    49  TYR49      -0.2866
     44  N        -11.3050   -0.7980   23.8990 N.3    61  PHE61      -0.1241
     45  CA       -11.9070    0.1230   22.9330 C.3    61  PHE61       0.1605
     46  C        -12.3890    1.4500   23.5460 C.2    61  PHE61       0.2264
     47  O        -12.7240    1.5150   24.7280 O.2    61  PHE61      -0.2867
     48  CB       -13.2120   -0.4790   22.3390 C.3    61  PHE61       0.0534
     49  CG       -13.0760   -1.8870   21.8780 C.ar   61  PHE61      -0.0203
     50  CD1      -12.1330   -2.2200   20.9360 C.ar   61  PHE61      -0.0042
     51  CD2      -13.8470   -2.8990   22.4670 C.ar   61  PHE61      -0.0042
     52  CE1      -11.9950   -3.5290   20.5290 C.ar   61  PHE61      -0.0003
     53  CE2      -13.7060   -4.1970   22.0620 C.ar   61  PHE61      -0.0003
     54  CZ       -12.7730   -4.5120   21.0740 C.ar   61  PHE61      -0.0000
     55  N        -15.3380    3.6650   21.7130 N.3    63  ASP63      -0.1239
     56  CA       -16.1640    3.6020   20.5050 C.3    63  ASP63       0.1674
     57  C        -16.5630    5.0000   20.0800 C.2    63  ASP63       0.2266
     58  O        -17.7000    5.4340   20.3560 O.2    63  ASP63      -0.2867
     59  CB       -17.4270    2.7180   20.7970 C.3    63  ASP63       0.1410
     60  CG       -17.1410    1.2290   20.6030 C.2    63  ASP63       0.3668
     61  OD1      -16.0830    0.8870   19.9980 O.co2  63  ASP63      -0.2456
     62  OD2      -17.9690    0.4000   21.0450 O.co2  63  ASP63      -0.2456
     63  N         -8.9500    1.5690   14.7040 N.3   124  LEU124     -0.1231
     64  CA       -10.2530    0.9240   14.7900 C.3   124  LEU124      0.1693
     65  C        -10.6300    0.4020   16.1840 C.2   124  LEU124      0.2588
     66  O        -11.7940    0.0170   16.3860 O.2   124  LEU124     -0.2718
     67  CB       -10.4080   -0.1780   13.7600 C.3   124  LEU124      0.0284
     68  CG       -10.5760    0.2290   12.3190 C.3   124  LEU124      0.0019
     69  CD1      -10.5510   -0.9600   11.3690 C.3   124  LEU124      0.0001
     70  CD2      -11.8610    1.0440   12.1850 C.3   124  LEU124      0.0001
     71  N         -9.6850    0.4230   17.1460 N.am  125  HIS125     -0.2029
     72  CA       -10.0640    0.3290   18.5450 C.3   125  HIS125      0.1342
     73  C        -10.6260    1.6360   19.1110 C.3   125  HIS125      0.2040
     74  O        -11.0850    1.6870   20.3180 O.3   125  HIS125     -0.2185
     75  CB        -8.8740   -0.1700   19.3530 C.3   125  HIS125      0.0718
     76  CG        -8.6920   -1.6630   19.2920 C.ar  125  HIS125      0.0817
     77  ND1       -8.6930   -2.4380   20.4260 N.ar  125  HIS125     -0.2268
     78  CD2       -8.5030   -2.5140   18.2590 C.ar  125  HIS125      0.1154
     79  CE1       -8.5300   -3.7020   20.1080 C.ar  125  HIS125      0.1986
     80  NE2       -8.4250   -3.7710   18.7900 N.ar  125  HIS125     -0.2212
     81  N        -13.1260    3.5540   17.4050 N.3   127  GLU127     -0.1245
     82  CA       -14.1470    3.8610   16.4240 C.3   127  GLU127      0.1567
     83  C        -15.3460    2.9730   16.6070 C.2   127  GLU127      0.2260
     84  O        -15.1750    1.7710   16.6840 O.2   127  GLU127     -0.2867
     85  CB       -13.5630    3.5930   15.0380 C.3   127  GLU127      0.0388
     86  CG       -14.5140    3.7770   13.8480 C.3   127  GLU127      0.1160
     87  CD       -15.3050    5.0660   13.8890 C.2   127  GLU127      0.3649
     88  OE1      -14.6910    6.1710   14.0220 O.co2 127  GLU127     -0.2457
     89  OE2      -16.5450    4.9640   13.7880 O.co2 127  GLU127     -0.2457
     90  N        -18.8980   -2.0040   14.9500 N.3   131  ALA131     -0.1231
     91  CA       -18.0950   -2.6910   15.9750 C.3   131  ALA131      0.1694
     92  C        -16.5930   -2.6090   15.6510 C.2   131  ALA131      0.2592
     93  O        -15.8970   -3.6060   15.5310 O.2   131  ALA131     -0.2718
     94  CB       -18.5320   -4.1520   16.1670 C.3   131  ALA131      0.0304
     95  N        -16.1120   -1.3990   15.4750 N.am  132  GLY132     -0.1957
     96  CA       -14.7120   -1.1620   15.1320 C.3   132  GLY132      0.1869
     97  C        -14.3050   -1.7460   13.8090 C.2   132  GLY132      0.2309
     98  O        -13.1740   -2.2000   13.6540 O.2   132  GLY132     -0.2863
     99  N        -15.3230   -4.5840   12.7130 N.3   134  ASN134     -0.1240
    100  CA       -15.4540   -6.0320   12.7240 C.3   134  ASN134      0.1653
    101  C        -16.6180   -6.4930   11.8250 C.2   134  ASN134      0.2266
    102  O        -16.5650   -7.6040   11.2120 O.2   134  ASN134     -0.2867
    103  CB       -15.6460   -6.5470   14.1210 C.3   134  ASN134      0.1155
    104  CG       -15.2030   -7.9650   14.2430 C.2   134  ASN134      0.2627
    105  OD1      -13.9790   -8.2700   14.3130 O.2   134  ASN134     -0.2716
    106  ND2      -16.1630   -8.8530   14.2500 N.am  134  ASN134     -0.0877
    107  N        -11.4990   -4.8840   10.6890 N.3   148  HIS148     -0.1226
    108  CA       -10.8100   -4.8860   11.9730 C.3   148  HIS148      0.1752
    109  C         -9.6180   -5.8510   12.0270 C.2   148  HIS148      0.2596
    110  O         -8.5370   -5.5160   12.5470 O.2   148  HIS148     -0.2718
    111  CB       -11.7680   -5.1890   13.1010 C.3   148  HIS148      0.0759
    112  CG       -11.1900   -4.8980   14.4430 C.ar  148  HIS148      0.0818
    113  ND1      -11.4360   -3.7340   15.1290 N.ar  148  HIS148     -0.2268
    114  CD2      -10.3400   -5.6110   15.1990 C.ar  148  HIS148      0.1154
    115  CE1      -10.7600   -3.7440   16.2630 C.ar  148  HIS148      0.1986
    116  NE2      -10.0750   -4.8770   16.3190 N.ar  148  HIS148     -0.2212
    117  N         -9.8680   -7.0880   11.5570 N.am  149  HIS149     -0.1975
    118  CA        -8.9090   -8.1520   11.5820 C.3   149  HIS149      0.1656
    119  C         -7.6340   -7.7950   10.7830 C.2   149  HIS149      0.2291
    120  O         -6.4990   -8.0980   11.2460 O.2   149  HIS149     -0.2864
    121  CB        -9.5890   -9.4190   11.0210 C.3   149  HIS149      0.0771
    122  CG        -8.9200  -10.7040   11.3880 C.ar  149  HIS149      0.0820
    123  ND1       -7.7580  -11.1400   10.7890 N.ar  149  HIS149     -0.2267
    124  CD2       -9.3270  -11.7230   12.1910 C.ar  149  HIS149      0.1154
    125  CE1       -7.4350  -12.3350   11.2520 C.ar  149  HIS149      0.1986
    126  NE2       -8.3580  -12.7040   12.1290 N.ar  149  HIS149     -0.2212
    127  N         -5.6650   -5.2460   12.9570 N.3   152  ASP152     -0.1239
    128  CA        -5.0810   -5.9050   14.0960 C.3   152  ASP152      0.1674
    129  C         -3.9540   -6.8310   13.7570 C.2   152  ASP152      0.2266
    130  O         -2.9640   -6.8740   14.5190 O.2   152  ASP152     -0.2867
    131  CB        -6.1430   -6.7600   14.8680 C.3   152  ASP152      0.1410
    132  CG        -6.8220   -6.0100   15.9830 C.2   152  ASP152      0.3668
    133  OD1       -6.5820   -4.7980   16.1970 O.co2 152  ASP152     -0.2456
    134  OD2       -7.6340   -6.6480   16.6790 O.co2 152  ASP152     -0.2456
@<TRIPOS>BOND
     1   107   108    1
     2   119   120    2
     3   119   118    1
     4   123   125   ar
     5   123   122   ar
     6   121   122    1
     7   121   118    1
     8   102   101    2
     9   125   126   ar
    10    69    68    1
    11   122   124   ar
    12   117   118    1
    13   117   109   am
    14   101   100    1
    15   108   109    1
    16   108   111    1
    17   109   110    2
    18   126   124   ar
    19    70    68    1
    20    68    67    1
    21    99   100    1
    22   100   103    1
    23   127   128    1
    24   111   112    1
    25    98    97    2
    26   129   128    1
    27   129   130    2
    28    67    64    1
    29    89    87   ar
    30    97    96    1
    31    86    87    1
    32    86    85    1
    33    87    88   ar
    34   128   131    1
    35   103   104    1
    36   104   106   am
    37   104   105    2
    38    13    14   ar
    39    13    11   ar
    40   112   113   ar
    41   112   114   ar
    42    14    12   ar
    43    63    64    1
    44    64    65    1
    45   131   132    1
    46    90    91    1
    47    85    82    1
    48   113   115   ar
    49    96    95    1
    50   114   116   ar
    51    11     8   ar
    52    95    92   am
    53    93    92    2
    54    92    91    1
    55    12    10   ar
    56    91    94    1
    57   132   133   ar
    58   132   134   ar
    59    65    66    2
    60    65    71   am
    61   115   116   ar
    62    82    83    1
    63    82    81    1
    64     8    10   ar
    65     8     6   ar
    66    83    84    2
    67    10     9   ar
    68    71    72    1
    69     2     5    1
    70     2     3    1
    71     2     1    1
    72     6     5    1
    73     6     7   ar
    74     3     4    2
    75    78    80   ar
    76    78    76   ar
    77     9     7   ar
    78    72    73    1
    79    72    75    1
    80    80    79   ar
    81    73    74    1
    82    76    75    1
    83    76    77   ar
    84    61    60   ar
    85    57    58    2
    86    57    56    1
    87    79    77   ar
    88    56    59    1
    89    56    55    1
    90    52    50   ar
    91    52    54   ar
    92    60    59    1
    93    60    62   ar
    94    50    49   ar
    95    54    53   ar
    96    43    42    1
    97    49    48    1
    98    49    51   ar
    99    22    20   ar
   100    53    51   ar
   101    48    45    1
   102    42    41   ar
   103    42    40   ar
   104    31    30    1
   105    41    39   ar
   106    45    46    1
   107    45    44    1
   108    20    21   ar
   109    20    19    1
   110    40    38   ar
   111    46    47    2
   112    30    29    1
   113    19    16    1
   114    39    37   ar
   115    38    37   ar
   116    37    36    1
   117    18    17    2
   118    29    28    1
   119    16    17    1
   120    16    15    1
   121    36    33    1
   122    28    27    1
   123    33    32    1
   124    33    34    1
   125    27    24    1
   126    32    25   am
   127    25    26    2
   128    25    24    1
   129    35    34    2
   130    24    23    1
