@<TRIPOS>MOLECULE
tmp/5fbdA01.pdb
 120 115 0 0 0
SMALL
GASTEIGER

@<TRIPOS>ATOM
      1  N         -2.2260   16.4430   18.9930 N.3    45  ASP45      -0.1239
      2  CA        -1.6810   16.9230   20.2670 C.3    45  ASP45       0.1674
      3  C         -2.1090   18.3070   20.6260 C.2    45  ASP45       0.2266
      4  O         -2.1750   18.6290   21.7850 O.2    45  ASP45      -0.2867
      5  CB        -0.1470   16.8070   20.3200 C.3    45  ASP45       0.1410
      6  CG         0.3230   15.4470   20.7890 C.2    45  ASP45       0.3668
      7  OD1       -0.5220   14.6140   21.2770 O.co2  45  ASP45      -0.2456
      8  OD2        1.5330   15.1980   20.6540 O.co2  45  ASP45      -0.2456
      9  N         -6.4970   17.9820   21.0880 N.3    48  LYS48      -0.1231
     10  CA        -6.9940   17.4890   22.3650 C.3    48  LYS48       0.1693
     11  C         -7.1650   18.4990   23.4700 C.2    48  LYS48       0.2592
     12  O         -7.7870   18.1800   24.5030 O.2    48  LYS48      -0.2718
     13  CB        -6.1280   16.3380   22.8920 C.3    48  LYS48       0.0285
     14  CG        -4.7220   16.7490   23.3530 C.3    48  LYS48       0.0035
     15  CD        -3.8520   15.5340   23.4850 C.3    48  LYS48       0.0206
     16  CE        -2.4550   15.8110   24.0420 C.3    48  LYS48       0.1093
     17  NZ        -1.5570   14.6160   24.0040 N.3    48  LYS48      -0.1314
     18  N         -6.5130   19.6520   23.3150 N.am   49  TYR49      -0.1976
     19  CA        -6.6570   20.7810   24.2290 C.3    49  TYR49       0.1639
     20  C         -7.6690   21.8430   23.8300 C.2    49  TYR49       0.2290
     21  O         -7.7630   22.9090   24.4830 O.2    49  TYR49      -0.2864
     22  CB        -5.2610   21.3980   24.4640 C.3    49  TYR49       0.0560
     23  CG        -4.2930   20.4190   25.1480 C.ar   49  TYR49      -0.0198
     24  CD1       -4.6560   19.7550   26.3000 C.ar   49  TYR49      -0.0009
     25  CD2       -3.0000   20.1670   24.6400 C.ar   49  TYR49      -0.0009
     26  CE1       -3.7800   18.8610   26.9390 C.ar   49  TYR49       0.0417
     27  CE2       -2.1440   19.2780   25.2730 C.ar   49  TYR49       0.0417
     28  CZ        -2.5230   18.6250   26.4040 C.ar   49  TYR49       0.1957
     29  OH        -1.7020   17.7320   27.0750 O.3    49  TYR49      -0.2866
     30  N         -8.2690   13.3020   24.2950 N.3    57  LYS57      -0.1245
     31  CA        -7.0480   13.2460   25.1190 C.3    57  LYS57       0.1561
     32  C         -6.6530   11.8180   25.5110 C.2    57  LYS57       0.2260
     33  O         -5.4810   11.4880   25.4620 O.2    57  LYS57      -0.2867
     34  CB        -7.1890   14.1670   26.3320 C.3    57  LYS57       0.0271
     35  CG        -5.9050   14.3800   27.0750 C.3    57  LYS57       0.0035
     36  CD        -6.0940   15.4120   28.1860 C.3    57  LYS57       0.0206
     37  CE        -6.8580   16.6090   27.6670 C.3    57  LYS57       0.1093
     38  NZ        -6.9500   17.6260   28.7400 N.3    57  LYS57      -0.1314
     39  N         -4.2430    8.9150   23.4030 N.3    60  HIS60      -0.1226
     40  CA        -2.8030    8.9980   23.1310 C.3    60  HIS60       0.1752
     41  C         -1.9740    7.9100   23.7940 C.2    60  HIS60       0.2596
     42  O         -0.7480    7.8070   23.5320 O.2    60  HIS60      -0.2718
     43  CB        -2.2860   10.3940   23.4310 C.3    60  HIS60       0.0759
     44  CG        -2.8500   11.4270   22.5150 C.ar   60  HIS60       0.0818
     45  ND1       -2.0720   12.1300   21.6120 N.ar   60  HIS60      -0.2268
     46  CD2       -4.1290   11.8310   22.3080 C.ar   60  HIS60       0.1154
     47  CE1       -2.8260   12.9880   20.9720 C.ar   60  HIS60       0.1986
     48  NE2       -4.0930   12.7650   21.3150 N.ar   60  HIS60      -0.2212
     49  N         -2.5780    7.1550   24.6990 N.am   61  PHE61      -0.1976
     50  CA        -1.8200    6.2080   25.4910 C.3    61  PHE61       0.1639
     51  C         -2.7140    5.0660   25.9680 C.2    61  PHE61       0.2290
     52  O         -3.9530    5.0790   25.7930 O.2    61  PHE61      -0.2864
     53  CB        -1.1770    6.9180   26.6960 C.3    61  PHE61       0.0560
     54  CG        -2.1660    7.7350   27.4950 C.ar   61  PHE61      -0.0200
     55  CD1       -2.9370    7.1550   28.4680 C.ar   61  PHE61      -0.0042
     56  CD2       -2.3430    9.0740   27.2310 C.ar   61  PHE61      -0.0042
     57  CE1       -3.8490    7.9220   29.2170 C.ar   61  PHE61      -0.0003
     58  CE2       -3.2770    9.8340   27.9370 C.ar   61  PHE61      -0.0003
     59  CZ        -4.0230    9.2450   28.9360 C.ar   61  PHE61      -0.0000
     60  N         -2.7090    3.0600   29.6610 N.3    63  ASP63      -0.1239
     61  CA        -2.0740    3.1240   30.9600 C.3    63  ASP63       0.1674
     62  C         -1.8840    1.7030   31.5180 C.2    63  ASP63       0.2266
     63  O         -2.6750    1.2150   32.3750 O.2    63  ASP63      -0.2867
     64  CB        -2.8990    4.0320   31.8960 C.3    63  ASP63       0.1410
     65  CG        -2.5380    5.5160   31.8230 C.2    63  ASP63       0.3668
     66  OD1       -1.4140    5.8220   31.3760 O.co2  63  ASP63      -0.2456
     67  OD2       -3.3430    6.3890   32.2900 O.co2  63  ASP63      -0.2456
     68  N          6.5990    4.9370   27.3830 N.3   124  LEU124     -0.1231
     69  CA         5.8310    5.5160   28.4870 C.3   124  LEU124      0.1693
     70  C          4.4120    5.8840   28.1380 C.2   124  LEU124      0.2592
     71  O          3.6330    6.1810   29.0240 O.2   124  LEU124     -0.2718
     72  CB         6.5720    6.7240   29.0830 C.3   124  LEU124      0.0284
     73  CG         7.7360    6.3650   29.9730 C.3   124  LEU124      0.0019
     74  CD1        8.5500    7.6360   30.2750 C.3   124  LEU124      0.0001
     75  CD2        7.2880    5.7070   31.2770 C.3   124  LEU124      0.0001
     76  N          4.0420    5.8310   26.8650 N.am  125  HIS125     -0.1976
     77  CA         2.6190    5.8800   26.4360 C.3   125  HIS125      0.1656
     78  C          1.9230    4.5300   26.5710 C.2   125  HIS125      0.2291
     79  O          0.7370    4.3990   26.2000 O.2   125  HIS125     -0.2864
     80  CB         2.5510    6.3450   24.9760 C.3   125  HIS125      0.0771
     81  CG         2.6570    7.8290   24.8090 C.ar  125  HIS125      0.0820
     82  ND1        1.5950    8.6000   24.3930 N.ar  125  HIS125     -0.2267
     83  CD2        3.6800    8.6880   25.0280 C.ar  125  HIS125      0.1154
     84  CE1        1.9340    9.8740   24.4100 C.ar  125  HIS125      0.1986
     85  NE2        3.2090    9.9540   24.7510 N.ar  125  HIS125     -0.2212
     86  N          1.4110    8.6790   35.8320 N.3   131  ALA131     -0.1231
     87  CA         0.8190    9.2730   34.6490 C.3   131  ALA131      0.1694
     88  C          1.7450    9.0920   33.4300 C.2   131  ALA131      0.2592
     89  O          2.0280   10.0200   32.7280 O.2   131  ALA131     -0.2718
     90  CB         0.5000   10.7250   34.9160 C.3   131  ALA131      0.0304
     91  N          2.2090    7.8740   33.1700 N.am  132  GLY132     -0.1957
     92  CA         3.1140    7.6330   32.0580 C.3   132  GLY132      0.1869
     93  C          4.4520    8.3100   32.2670 C.2   132  GLY132      0.2309
     94  O          5.0710    8.7830   31.3210 O.2   132  GLY132     -0.2863
     95  N          4.9470   11.1620   33.7830 N.3   134  ASN134     -0.1240
     96  CA         4.8610   12.6310   33.8730 C.3   134  ASN134      0.1653
     97  C          5.1500   13.1170   35.3160 C.2   134  ASN134      0.2266
     98  O          5.6630   14.2280   35.5180 O.2   134  ASN134     -0.2867
     99  CB         3.4940   13.1420   33.4250 C.3   134  ASN134      0.1155
    100  CG         3.4150   13.2910   31.9130 C.2   134  ASN134      0.2627
    101  OD1        4.0710   14.1580   31.3450 O.2   134  ASN134     -0.2716
    102  ND2        2.6930   12.4000   31.2600 N.am  134  ASN134     -0.0877
    103  N          8.6650   11.4590   31.2980 N.3   148  HIS148     -0.1241
    104  CA         7.8860   11.4510   30.0730 C.3   148  HIS148      0.1621
    105  C          8.4190   12.4570   29.0200 C.2   148  HIS148      0.2264
    106  O          8.6210   12.1030   27.8290 O.2   148  HIS148     -0.2867
    107  CB         6.4260   11.6810   30.3780 C.3   148  HIS148      0.0745
    108  CG         5.5360   11.4070   29.2010 C.ar  148  HIS148      0.0817
    109  ND1        4.8370   10.2320   29.0540 N.ar  148  HIS148     -0.2268
    110  CD2        5.2980   12.1310   28.0840 C.ar  148  HIS148      0.1154
    111  CE1        4.1500   10.2760   27.9320 C.ar  148  HIS148      0.1986
    112  NE2        4.4150   11.4100   27.3200 N.ar  148  HIS148     -0.2212
    113  N          9.7050   11.8410   25.2180 N.3   152  ASP152     -0.1239
    114  CA         8.9660   12.4290   24.1220 C.3   152  ASP152      0.1674
    115  C          9.8080   13.3830   23.3340 C.2   152  ASP152      0.2266
    116  O          9.7350   13.4180   22.0840 O.2   152  ASP152     -0.2867
    117  CB         7.7220   13.2200   24.6360 C.3   152  ASP152      0.1410
    118  CG         6.4330   12.4020   24.6220 C.2   152  ASP152      0.3668
    119  OD1        6.3980   11.1690   24.3760 O.co2 152  ASP152     -0.2456
    120  OD2        5.4380   13.0710   24.8410 O.co2 152  ASP152     -0.2456
@<TRIPOS>BOND
     1     1     2    1
     2     2     5    1
     3     2     3    1
     4     5     6    1
     5     3     4    2
     6     8     6   ar
     7     6     7   ar
     8    47    48   ar
     9    47    45   ar
    10     9    10    1
    11    48    46   ar
    12    45    44   ar
    13   116   115    2
    14    46    44   ar
    15    10    13    1
    16    10    11    1
    17    44    43    1
    18    13    14    1
    19    40    39    1
    20    40    43    1
    21    40    41    1
    22    18    11   am
    23    18    19    1
    24   115   114    1
    25    14    15    1
    26    11    12    2
    27    15    16    1
    28    42    41    2
    29    41    49   am
    30    20    19    1
    31    20    21    2
    32    17    16    1
    33   114   117    1
    34   114   113    1
    35    19    22    1
    36    30    31    1
    37   119   118   ar
    38    82    84   ar
    39    82    81   ar
    40    84    85   ar
    41    22    23    1
    42   118   117    1
    43   118   120   ar
    44    25    23   ar
    45    25    27   ar
    46    49    50    1
    47    85    83   ar
    48    81    80    1
    49    81    83   ar
    50    80    77    1
    51    31    32    1
    52    31    34    1
    53    23    24   ar
    54    27    28   ar
    55    33    32    2
    56    50    51    1
    57    50    53    1
    58    52    51    2
    59    79    78    2
    60    24    26   ar
    61    34    35    1
    62    28    26   ar
    63    28    29    1
    64    77    78    1
    65    77    76    1
    66    53    54    1
    67    76    70   am
    68    35    36    1
    69    56    54   ar
    70    56    58   ar
    71   112   111   ar
    72   112   110   ar
    73    68    69    1
    74    54    55   ar
    75    37    36    1
    76    37    38    1
    77   106   105    2
    78   111   109   ar
    79    58    59   ar
    80   110   108   ar
    81    70    69    1
    82    70    71    2
    83    55    57   ar
    84    69    72    1
    85    59    57   ar
    86   105   104    1
    87   109   108   ar
    88    72    73    1
    89   108   107    1
    90    60    61    1
    91    73    74    1
    92    73    75    1
    93   104   107    1
    94   104   103    1
    95    61    62    1
    96    61    64    1
    97   102   100   am
    98    94    93    2
    99   101   100    2
   100    66    65   ar
   101    62    63    2
   102    65    64    1
   103    65    67   ar
   104   100    99    1
   105    92    93    1
   106    92    91    1
   107    89    88    2
   108    91    88   am
   109    99    96    1
   110    88    87    1
   111    95    96    1
   112    96    97    1
   113    87    90    1
   114    87    86    1
   115    97    98    2
