@<TRIPOS>MOLECULE
tmp/5fbdA00.pdb
 94 89 0 0 0
SMALL
GASTEIGER

@<TRIPOS>ATOM
      1  N        -12.4090   15.2880   24.1640 N.3    55  PHE55      -0.1241
      2  CA       -12.8310   13.8410   24.2150 C.3    55  PHE55       0.1605
      3  C        -11.6600   12.9100   23.8290 C.2    55  PHE55       0.2264
      4  O        -11.6120   11.7650   24.2310 O.2    55  PHE55      -0.2867
      5  CB       -14.0270   13.5650   23.3170 C.3    55  PHE55       0.0534
      6  CG       -13.7180   13.5530   21.8610 C.ar   55  PHE55      -0.0203
      7  CD1      -13.6830   14.7270   21.1130 C.ar   55  PHE55      -0.0042
      8  CD2      -13.4880   12.3590   21.1970 C.ar   55  PHE55      -0.0042
      9  CE1      -13.3720   14.7070   19.7590 C.ar   55  PHE55      -0.0003
     10  CE2      -13.1700   12.3370   19.8560 C.ar   55  PHE55      -0.0003
     11  CZ       -13.1060   13.5080   19.1270 C.ar   55  PHE55      -0.0000
     12  N         -6.9580    9.0490   24.0060 N.3    59  TYR59      -0.1241
     13  CA        -6.5260    8.2600   22.8800 C.3    59  TYR59       0.1605
     14  C         -5.0450    8.2240   22.6270 C.2    59  TYR59       0.2264
     15  O         -4.6280    7.5320   21.7100 O.2    59  TYR59      -0.2867
     16  CB        -7.1990    8.7190   21.5870 C.3    59  TYR59       0.0534
     17  CG        -8.7390    8.7480   21.5980 C.ar   59  TYR59      -0.0201
     18  CD1       -9.4940    8.1970   22.6250 C.ar   59  TYR59      -0.0009
     19  CD2       -9.4140    9.3910   20.5760 C.ar   59  TYR59      -0.0009
     20  CE1      -10.8580    8.2700   22.6300 C.ar   59  TYR59       0.0417
     21  CE2      -10.7890    9.4450   20.5360 C.ar   59  TYR59       0.0417
     22  CZ       -11.5070    8.8720   21.5620 C.ar   59  TYR59       0.1957
     23  OH       -12.9100    8.9140   21.5270 O.3    59  TYR59      -0.2866
     24  N        -11.7890    5.3050   26.4550 N.3    84  GLY84      -0.1225
     25  CA       -10.9110    5.0130   25.2790 C.3    84  GLY84       0.1811
     26  C         -9.4240    5.1290   25.5740 C.2    84  GLY84       0.2280
     27  O         -8.9890    5.5980   26.6500 O.2    84  GLY84      -0.2866
     28  N         -8.0820    1.5180   21.3360 N.3    88  SER88      -0.1202
     29  CA        -9.4940    1.7000   20.9250 C.3    88  SER88       0.2020
     30  C         -9.6060    2.7390   19.8000 C.2    88  SER88       0.2618
     31  O        -10.4580    2.6260   18.9240 O.2    88  SER88      -0.2717
     32  CB       -10.3510    2.0390   22.1750 C.3    88  SER88       0.2103
     33  OG       -10.1970    3.3630   22.6610 O.3    88  SER88      -0.2182
     34  N         -8.7870    3.7780   19.8650 N.am   89  ALA89      -0.1979
     35  CA        -8.7530    4.8200   18.8260 C.3    89  ALA89       0.1597
     36  C         -8.2300    4.2140   17.5070 C.2    89  ALA89       0.2287
     37  O         -8.7660    4.5000   16.4450 O.2    89  ALA89      -0.2864
     38  CB        -7.8590    5.9700   19.2710 C.3    89  ALA89       0.0319
     39  N        -11.1300    2.3690   16.0930 N.3    92  ASN92      -0.1225
     40  CA       -12.2200    3.2700   15.6320 C.3    92  ASN92       0.1785
     41  C        -11.8720    3.9570   14.3090 C.2    92  ASN92       0.2597
     42  O        -12.6330    3.9080   13.3440 O.2    92  ASN92      -0.2718
     43  CB       -12.5180    4.3560   16.6830 C.3    92  ASN92       0.1169
     44  CG       -13.7450    5.2320   16.3490 C.2    92  ASN92       0.2627
     45  OD1      -14.5880    4.8820   15.5600 O.2    92  ASN92      -0.2716
     46  ND2      -13.8270    6.3780   17.0050 N.am   92  ASN92      -0.0877
     47  N        -10.6990    4.5710   14.2940 N.am   93  TYR93      -0.1976
     48  CA       -10.2670    5.3830   13.1610 C.3    93  TYR93       0.1639
     49  C         -9.8310    4.5560   11.9620 C.2    93  TYR93       0.2290
     50  O        -10.1410    4.9210   10.8220 O.2    93  TYR93      -0.2864
     51  CB        -9.2390    6.4530   13.6240 C.3    93  TYR93       0.0560
     52  CG        -9.8960    7.4430   14.6040 C.ar   93  TYR93      -0.0198
     53  CD1      -10.9850    8.2120   14.2060 C.ar   93  TYR93      -0.0009
     54  CD2       -9.4980    7.5460   15.9440 C.ar   93  TYR93      -0.0009
     55  CE1      -11.6520    9.0540   15.0660 C.ar   93  TYR93       0.0417
     56  CE2      -10.1550    8.4100   16.8220 C.ar   93  TYR93       0.0417
     57  CZ       -11.2410    9.1450   16.3900 C.ar   93  TYR93       0.1957
     58  OH       -11.9250    9.9720   17.2190 O.3    93  TYR93      -0.2866
     59  N        -13.1730    3.5920   10.4250 N.3    96  ILE96      -0.1245
     60  CA       -13.7190    4.7060    9.6200 C.3    96  ILE96       0.1561
     61  C        -13.0610    4.7360    8.2380 C.2    96  ILE96       0.2260
     62  O        -13.7090    4.9130    7.2140 O.2    96  ILE96      -0.2867
     63  CB       -13.5400    6.0720   10.3510 C.3    96  ILE96       0.0252
     64  CG1      -14.5310    6.1340   11.5240 C.3    96  ILE96       0.0019
     65  CG2      -13.6360    7.2250    9.3790 C.3    96  ILE96       0.0019
     66  CD1      -14.3160    7.2830   12.4960 C.3    96  ILE96       0.0001
     67  N        -15.6140   12.1010    8.2170 N.3   105  GLU105     -0.1245
     68  CA       -14.7530   11.6590    9.3420 C.3   105  GLU105      0.1567
     69  C        -13.3690   11.1560    8.9270 C.2   105  GLU105      0.2260
     70  O        -12.4950   10.9920    9.7680 O.2   105  GLU105     -0.2867
     71  CB       -15.4540   10.5880   10.1510 C.3   105  GLU105      0.0388
     72  CG       -16.7700   11.0300   10.7500 C.3   105  GLU105      0.1160
     73  CD       -17.3570   10.0400   11.7380 C.2   105  GLU105      0.3649
     74  OE1      -17.0370    8.8450   11.6710 O.co2 105  GLU105     -0.2457
     75  OE2      -18.1700   10.4660   12.5840 O.co2 105  GLU105     -0.2457
     76  N         -9.9240   13.4360    9.8690 N.3   108  ASN108     -0.1240
     77  CA        -9.4590   13.3450   11.2850 C.3   108  ASN108      0.1653
     78  C         -9.0550   11.9300   11.6060 C.2   108  ASN108      0.2266
     79  O         -8.0000   11.7300   12.2720 O.2   108  ASN108     -0.2867
     80  CB       -10.5140   13.8670   12.2660 C.3   108  ASN108      0.1155
     81  CG       -10.6570   15.3820   12.2130 C.2   108  ASN108      0.2627
     82  OD1       -9.9640   16.0650   11.4660 O.2   108  ASN108     -0.2716
     83  ND2      -11.5460   15.9110   13.0180 N.am  108  ASN108     -0.0877
     84  N         -5.4590   10.9920   13.1060 N.3   112  PHE112     -0.1241
     85  CA        -5.3570   10.2110   14.2990 C.3   112  PHE112      0.1605
     86  C         -4.4650    8.9950   14.1590 C.2   112  PHE112      0.2264
     87  O         -3.6600    8.7500   15.0580 O.2   112  PHE112     -0.2867
     88  CB        -6.7480    9.7860   14.8250 C.3   112  PHE112      0.0534
     89  CG        -7.4710   10.8680   15.6340 C.ar  112  PHE112     -0.0203
     90  CD1       -6.8960   11.4270   16.7930 C.ar  112  PHE112     -0.0042
     91  CD2       -8.7730   11.2550   15.2830 C.ar  112  PHE112     -0.0042
     92  CE1       -7.5910   12.3850   17.5380 C.ar  112  PHE112     -0.0003
     93  CE2       -9.4530   12.2030   16.0360 C.ar  112  PHE112     -0.0003
     94  CZ        -8.8610   12.7620   17.1430 C.ar  112  PHE112     -0.0000
@<TRIPOS>BOND
     1    62    61    2
     2    67    68    1
     3    61    60    1
     4    69    68    1
     5    69    70    2
     6    68    71    1
     7    65    63    1
     8    60    63    1
     9    60    59    1
    10    76    77    1
    11    71    72    1
    12    63    64    1
    13    72    73    1
    14    50    49    2
    15    77    78    1
    16    77    80    1
    17    82    81    2
    18    64    66    1
    19    78    79    2
    20    74    73   ar
    21    73    75   ar
    22    49    48    1
    23    81    80    1
    24    81    83   am
    25    84    85    1
    26    48    51    1
    27    48    47    1
    28    42    41    2
    29    51    52    1
    30    86    85    1
    31    86    87    2
    32    53    52   ar
    33    53    55   ar
    34    47    41   am
    35    85    88    1
    36    41    40    1
    37    52    54   ar
    38    88    89    1
    39    55    57   ar
    40    91    89   ar
    41    91    93   ar
    42    45    44    2
    43    40    39    1
    44    40    43    1
    45    89    90   ar
    46    54    56   ar
    47    93    94   ar
    48    44    43    1
    49    44    46   am
    50    57    56   ar
    51    57    58    1
    52    37    36    2
    53    90    92   ar
    54    94    92   ar
    55    36    35    1
    56    35    38    1
    57    35    34    1
    58    31    30    2
    59    11     9   ar
    60    11    10   ar
    61     9     7   ar
    62    30    34   am
    63    30    29    1
    64    10     8   ar
    65    21    19   ar
    66    21    22   ar
    67    19    17   ar
    68    29    28    1
    69    29    32    1
    70     7     6   ar
    71     8     6   ar
    72    23    22    1
    73    22    20   ar
    74    16    17    1
    75    16    13    1
    76    17    18   ar
    77    15    14    2
    78     6     5    1
    79    32    33    1
    80    18    20   ar
    81    14    13    1
    82    13    12    1
    83     5     2    1
    84     3     2    1
    85     3     4    2
    86     1     2    1
    87    25    26    1
    88    25    24    1
    89    26    27    2
