@<TRIPOS>MOLECULE
tmp/5fbeA00.pdb
 167 163 0 0 0
SMALL
GASTEIGER

@<TRIPOS>ATOM
      1  N         14.5380   11.2820   11.3980 N.3    24  HIS24      -0.1226
      2  CA        14.2670   10.1220   10.5600 C.3    24  HIS24       0.1752
      3  C         13.4700   10.5830    9.3560 C.2    24  HIS24       0.2596
      4  O         12.4280   11.2660    9.4930 O.2    24  HIS24      -0.2718
      5  CB        13.4310    9.0870   11.3190 C.3    24  HIS24       0.0759
      6  CG        12.9920    7.9680   10.4330 C.ar   24  HIS24       0.0818
      7  ND1       13.8590    6.9260   10.0830 N.ar   24  HIS24      -0.2268
      8  CD2       11.8310    7.8090    9.7580 C.ar   24  HIS24       0.1154
      9  CE1       13.1800    6.1780    9.2200 C.ar   24  HIS24       0.1986
     10  NE2       11.9620    6.6550    9.0040 N.ar   24  HIS24      -0.2212
     11  N         13.9260   10.1690    8.1680 N.am   25  LEU25      -0.1966
     12  CA        13.2640   10.4890    6.9310 C.3    25  LEU25       0.1728
     13  C         12.7810    9.2210    6.2230 C.2    25  LEU25       0.2616
     14  O         11.6430    9.1530    5.7680 O.2    25  LEU25      -0.2715
     15  CB        14.2500   11.2610    6.0320 C.3    25  LEU25       0.0311
     16  CG        13.7850   11.5830    4.6160 C.3    25  LEU25       0.0022
     17  CD1       12.6800   12.6370    4.6170 C.3    25  LEU25       0.0001
     18  CD2       14.9690   12.0020    3.7580 C.3    25  LEU25       0.0001
     19  N         13.6760    8.2390    6.0670 N.am   26  CYS26      -0.1968
     20  CA        13.4020    7.0240    5.3010 C.3    26  CYS26       0.1712
     21  C         14.0600    5.8720    5.9570 C.2    26  CYS26       0.2296
     22  O         15.0280    6.0180    6.6850 O.2    26  CYS26      -0.2864
     23  CB        13.9770    7.1730    3.8910 C.3    26  CYS26       0.0983
     24  SG        12.8920    8.0650    2.7600 S.3    26  CYS26      -0.0798
     25  N         13.4890    8.8100   -4.1060 N.3    41  HIS41      -0.1226
     26  CA        12.6650    9.9930   -3.7820 C.3    41  HIS41       0.1752
     27  C         12.9810   10.5190   -2.3910 C.2    41  HIS41       0.2596
     28  O         12.6350   11.6670   -2.0820 O.2    41  HIS41      -0.2718
     29  CB        11.1480    9.7410   -3.8580 C.3    41  HIS41       0.0759
     30  CG        10.5600    9.3670   -5.1820 C.ar   41  HIS41       0.0818
     31  ND1       10.6850   10.1830   -6.2900 N.ar   41  HIS41      -0.2268
     32  CD2        9.7450    8.3290   -5.4930 C.ar   41  HIS41       0.1154
     33  CE1        9.9920    9.5940   -7.2550 C.ar   41  HIS41       0.1986
     34  NE2        9.4150    8.4650   -6.8230 N.ar   41  HIS41      -0.2212
     35  N         13.6480    9.6880   -1.5500 N.am   42  CYS42      -0.1970
     36  CA        14.0100   10.1380   -0.2050 C.3    42  CYS42       0.1712
     37  C         14.8400   11.3930   -0.2160 C.2    42  CYS42       0.2296
     38  O         14.5950   12.2780    0.6050 O.2    42  CYS42      -0.2864
     39  CB        14.7130    9.0270    0.5520 C.3    42  CYS42       0.0983
     40  SG        13.6320    7.6430    0.9340 S.3    42  CYS42      -0.0798
     41  N         10.4060    2.9180   10.7640 N.3   128  TRP128     -0.1227
     42  CA        10.0460    3.9290   11.7500 C.3   128  TRP128      0.1737
     43  C          8.9840    4.8730   11.1750 C.2   128  TRP128      0.2596
     44  O          8.8000    5.9850   11.6710 O.2   128  TRP128     -0.2718
     45  CB        11.2800    4.6870   12.2120 C.3   128  TRP128      0.0564
     46  CG        12.2400    3.9320   13.0600 C.ar  128  TRP128      0.0003
     47  CD1       12.2280    3.8470   14.4230 C.ar  128  TRP128      0.0946
     48  CD2       13.4320    3.2650   12.6280 C.ar  128  TRP128      0.0152
     49  NE1       13.3180    3.1400   14.8670 N.ar  128  TRP128     -0.2442
     50  CE2       14.0700    2.7520   13.7850 C.ar  128  TRP128      0.0810
     51  CE3       14.0330    3.0360   11.3650 C.ar  128  TRP128      0.0012
     52  CZ2       15.2930    2.0650   13.7310 C.ar  128  TRP128      0.0191
     53  CZ3       15.2330    2.3330   11.3250 C.ar  128  TRP128      0.0001
     54  CH2       15.8680    1.8980   12.4910 C.ar  128  TRP128      0.0015
     55  N          8.2660    4.4180   10.1450 N.am  129  GLY129     -0.1942
     56  CA         7.2190    5.2220    9.5370 C.3   129  GLY129      0.2014
     57  C          5.9860    5.3820   10.4100 C.2   129  GLY129      0.2638
     58  O          5.8780    4.7700   11.4850 O.2   129  GLY129     -0.2714
     59  N          5.0200    6.1870    9.9440 N.am  130  ILE130     -0.1977
     60  CA         3.8040    6.4410   10.7190 C.3   130  ILE130      0.1596
     61  C          3.0530    5.1670   11.0170 C.2   130  ILE130      0.2287
     62  O          3.0570    4.2290   10.2130 O.2   130  ILE130     -0.2864
     63  CB         2.9280    7.5160   10.0860 C.3   130  ILE130      0.0276
     64  CG1        2.2760    7.0460    8.7720 C.3   130  ILE130      0.0022
     65  CG2        3.7260    8.8340    9.9130 C.3   130  ILE130      0.0022
     66  CD1        1.2090    8.0500    8.1930 C.3   130  ILE130      0.0001
     67  N         -0.8810   10.2020   11.8110 N.3   135  GLY135     -0.1225
     68  CA         0.5320   10.4370   11.5590 C.3   135  GLY135      0.1811
     69  C          1.4550   10.2170   12.7440 C.2   135  GLY135      0.2280
     70  O          2.6020   10.6600   12.7110 O.2   135  GLY135     -0.2866
     71  N          4.3130    9.0060   14.9350 N.3   137  ARG137     -0.1245
     72  CA         5.6470    8.4690   14.6130 C.3   137  ARG137      0.1563
     73  C          6.1250    7.6800   15.8280 C.2   137  ARG137      0.2260
     74  O          6.0730    8.1720   16.9760 O.2   137  ARG137     -0.2867
     75  CB         6.6480    9.5990   14.3550 C.3   137  ARG137      0.0307
     76  CG         6.2340   10.6020   13.3000 C.3   137  ARG137      0.0489
     77  CD         7.3570   11.6050   13.1240 C.3   137  ARG137      0.2205
     78  NE         7.3430   12.6960   14.1040 N.pl3 137  ARG137     -0.0865
     79  CZ         8.1930   12.8150   15.1210 C.cat 137  ARG137      0.5346
     80  NH1        9.1290   11.8940   15.3270 N.pl3 137  ARG137      0.1354
     81  NH2        8.1080   13.8500   15.9470 N.pl3 137  ARG137      0.1354
     82  N          3.2110   -1.0530    4.8100 N.3   178  SER178     -0.1202
     83  CA         4.2510   -0.0660    4.9960 C.3   178  SER178      0.2020
     84  C          3.5770    1.2900    4.7540 C.2   178  SER178      0.2619
     85  O          2.5420    1.3720    4.0780 O.2   178  SER178     -0.2717
     86  CB         5.4100   -0.2960    4.0330 C.3   178  SER178      0.2103
     87  OG         4.9430   -0.4230    2.6990 O.3   178  SER178     -0.2182
     88  N          4.1160    2.3480    5.3220 N.am  179  CYS179     -0.1955
     89  CA         3.5120    3.6570    5.2020 C.3   179  CYS179      0.1843
     90  C          4.5560    4.7620    5.1260 C.2   179  CYS179      0.2625
     91  O          5.7330    4.4540    4.9420 O.2   179  CYS179     -0.2714
     92  CB         2.5420    3.8740    6.3610 C.3   179  CYS179      0.0997
     93  SG         1.2160    5.0500    5.9940 S.3   179  CYS179     -0.0797
     94  N          4.1340    6.0250    5.1710 N.am  180  LYS180     -0.1963
     95  CA         5.0150    7.1850    5.0990 C.3   180  LYS180      0.1728
     96  C          6.1560    7.0600    6.1040 C.2   180  LYS180      0.2616
     97  O          5.8880    6.8590    7.2990 O.2   180  LYS180     -0.2715
     98  CB         4.2450    8.4770    5.3560 C.3   180  LYS180      0.0311
     99  CG         5.1100    9.7390    5.1870 C.3   180  LYS180      0.0038
    100  CD         4.3380   10.9760    5.5970 C.3   180  LYS180      0.0206
    101  CE         5.1300   12.2600    5.5410 C.3   180  LYS180      0.1093
    102  NZ         5.3630   12.7310    4.1480 N.3   180  LYS180     -0.1314
    103  N          7.3880    7.1980    5.6370 N.am  181  GLY181     -0.1955
    104  CA         8.5400    7.0830    6.5230 C.3   181  GLY181      0.1869
    105  C          9.1640    5.7000    6.4850 C.2   181  GLY181      0.2309
    106  O         10.2570    5.4970    7.0270 O.2   181  GLY181     -0.2863
    107  N          9.4540    4.2060    3.4540 N.3   183  SER183     -0.1217
    108  CA        10.0650    4.2350    2.1220 C.3   183  SER183      0.1889
    109  C         11.5490    3.9790    2.2490 C.2   183  SER183      0.2288
    110  O         12.1840    4.4990    3.1570 O.2   183  SER183     -0.2866
    111  CB         9.8720    5.6080    1.5050 C.3   183  SER183      0.2089
    112  OG         8.4780    5.7920    1.3510 O.3   183  SER183     -0.2183
    113  N         11.0590   -0.6780   -0.1490 N.3   197  VAL197     -0.1231
    114  CA         9.7870    0.0260   -0.1730 C.3   197  VAL197      0.1692
    115  C          9.8830    1.2220   -1.0880 C.2   197  VAL197      0.2593
    116  O         10.7990    2.0530   -0.9440 O.2   197  VAL197     -0.2718
    117  CB         9.4470    0.4730    1.2730 C.3   197  VAL197      0.0266
    118  CG1        8.0980    1.1630    1.2920 C.3   197  VAL197      0.0020
    119  CG2        9.4680   -0.7200    2.2530 C.3   197  VAL197      0.0020
    120  N          8.9010    1.3700   -1.9950 N.am  198  THR198     -0.1939
    121  CA         8.9280    2.5410   -2.8600 C.3   198  THR198      0.2028
    122  C          8.5870    3.8250   -2.0770 C.2   198  THR198      0.2643
    123  O          8.0740    3.7840   -0.9330 O.2   198  THR198     -0.2714
    124  CB         8.0600    2.3340   -4.0780 C.3   198  THR198      0.1808
    125  OG1        6.7000    2.1740   -3.6510 O.3   198  THR198     -0.2208
    126  CG2        8.5500    1.1980   -4.9700 C.3   198  THR198      0.0379
    127  N          8.8910    4.9780   -2.6720 N.am  199  SER199     -0.1935
    128  CA         8.7340    6.2120   -1.9080 C.3   199  SER199      0.2055
    129  C          7.6630    7.1560   -2.4660 C.2   199  SER199      0.2644
    130  O          7.4910    8.2650   -1.9620 O.2   199  SER199     -0.2714
    131  CB        10.0820    6.8930   -1.7150 C.3   199  SER199      0.2130
    132  OG        10.8280    7.0550   -2.9000 O.3   199  SER199     -0.2179
    133  N          6.8770    6.6710   -3.4080 N.am  200  GLY200     -0.1939
    134  CA         5.7580    7.4390   -3.9400 C.3   200  GLY200      0.2014
    135  C          4.6250    7.4680   -2.9350 C.2   200  GLY200      0.2640
    136  O          4.4090    6.4890   -2.2100 O.2   200  GLY200     -0.2714
    137  N          3.9020    8.5960   -2.8550 N.am  201  SER201     -0.1935
    138  CA         2.7870    8.7120   -1.9190 C.3   201  SER201      0.2055
    139  C          1.7180    7.6970   -2.2910 C.2   201  SER201      0.2642
    140  O          1.4840    7.4570   -3.4780 O.2   201  SER201     -0.2714
    141  CB         2.2200   10.1310   -1.9170 C.3   201  SER201      0.2130
    142  OG         3.1920   11.0570   -1.4600 O.3   201  SER201     -0.2179
    143  N          1.1580    7.0320   -1.2890 N.am  202  ARG202     -0.1977
    144  CA         0.1500    5.9970   -1.4830 C.3   202  ARG202      0.1597
    145  C         -0.6510    5.8440   -0.2070 C.2   202  ARG202      0.2287
    146  O         -0.1270    6.0540    0.8740 O.2   202  ARG202     -0.2864
    147  CB         0.8520    4.6620   -1.8790 C.3   202  ARG202      0.0334
    148  CG        -0.0590    3.4310   -2.0970 C.3   202  ARG202      0.0492
    149  CD         0.7300    2.1260   -2.1900 C.3   202  ARG202      0.2205
    150  NE         1.5580    1.9340   -0.9980 N.pl3 202  ARG202     -0.0865
    151  CZ         1.2250    1.1900    0.0540 C.cat 202  ARG202      0.5346
    152  NH1        0.1170    0.4630    0.0410 N.pl3 202  ARG202      0.1354
    153  NH2        2.0360    1.1090    1.0960 N.pl3 202  ARG202      0.1354
    154  N         -2.2300    3.8810    2.9010 N.3   204  CYS204     -0.1235
    155  CA        -1.7380    2.7330    3.6540 C.3   204  CYS204      0.1677
    156  C         -2.8490    1.9210    4.2310 C.2   204  CYS204      0.2270
    157  O         -3.8190    2.4920    4.7610 O.2   204  CYS204     -0.2867
    158  CB        -0.7860    3.1720    4.7600 C.3   204  CYS204      0.0956
    159  SG         0.4270    4.4020    4.2370 S.3   204  CYS204     -0.0801
    160  N          3.9850   -1.3990   -2.8770 N.3   212  ILE212     -0.1245
    161  CA         4.8530   -1.5700   -4.0330 C.3   212  ILE212      0.1561
    162  C          6.3020   -1.5410   -3.5420 C.2   212  ILE212      0.2260
    163  O          6.6950   -0.6790   -2.7550 O.2   212  ILE212     -0.2867
    164  CB         4.6040   -0.4780   -5.0850 C.3   212  ILE212      0.0252
    165  CG1        3.1060   -0.4710   -5.4810 C.3   212  ILE212      0.0019
    166  CG2        5.5040   -0.6800   -6.3210 C.3   212  ILE212      0.0019
    167  CD1        2.7000    0.7690   -6.3710 C.3   212  ILE212      0.0001
@<TRIPOS>BOND
     1    33    34   ar
     2    33    31   ar
     3    34    32   ar
     4   167   165    1
     5   166   164    1
     6    31    30   ar
     7    32    30   ar
     8   165   164    1
     9    30    29    1
    10   164   161    1
    11   126   124    1
    12    25    26    1
    13   124   125    1
    14   124   121    1
    15   161   162    1
    16   161   160    1
    17   134   133    1
    18   134   135    1
    19    29    26    1
    20    26    27    1
    21   162   163    2
    22   140   139    2
    23   133   129   am
    24   135   137   am
    25   135   136    2
    26   132   131    1
    27   121   122    1
    28   121   120    1
    29   137   138    1
    30   127   122   am
    31   127   128    1
    32   129   130    2
    33   129   128    1
    34    27    28    2
    35    27    35   am
    36   139   138    1
    37   139   143   am
    38   149   148    1
    39   149   150    1
    40   148   147    1
    41   122   123    2
    42   120   115   am
    43   138   141    1
    44   141   142    1
    45   128   131    1
    46   147   144    1
    47    35    36    1
    48   144   143    1
    49   144   145    1
    50   115   116    2
    51   115   114    1
    52   150   151    2
    53    37    36    1
    54    37    38    2
    55   145   146    2
    56    36    39    1
    57   114   113    1
    58   114   117    1
    59   152   151    1
    60   151   153    1
    61    39    40    1
    62    40    24    1
    63   117   118    1
    64   117   119    1
    65   112   111    1
    66   111   108    1
    67   108   109    1
    68   108   107    1
    69   109   110    2
    70    87    86    1
    71    24    23    1
    72   154   155    1
    73   155   156    1
    74   155   158    1
    75    18    16    1
    76    23    20    1
    77    86    83    1
    78    85    84    2
    79   102   101    1
    80   156   157    2
    81   159   158    1
    82   159    93    1
    83    16    17    1
    84    16    15    1
    85    84    83    1
    86    84    88   am
    87    82    83    1
    88    91    90    2
    89    95    94    1
    90    95    98    1
    91    95    96    1
    92    90    94   am
    93    90    89    1
    94    99    98    1
    95    99   100    1
    96    89    88    1
    97    89    92    1
    98    20    21    1
    99    20    19    1
   100   101   100    1
   101   103    96   am
   102   103   104    1
   103    14    13    2
   104    21    22    2
   105    93    92    1
   106    15    12    1
   107    19    13   am
   108    96    97    2
   109    13    12    1
   110   105   104    1
   111   105   106    2
   112    12    11    1
   113    11     3   am
   114    66    64    1
   115    64    63    1
   116    10     9   ar
   117    10     8   ar
   118     9     7   ar
   119     3     4    2
   120     3     2    1
   121    56    55    1
   122    56    57    1
   123     8     6   ar
   124    65    63    1
   125    59    57   am
   126    59    60    1
   127     7     6   ar
   128    63    60    1
   129    55    43   am
   130    62    61    2
   131    57    58    2
   132     6     5    1
   133     2     5    1
   134     2     1    1
   135    60    61    1
   136    41    42    1
   137    43    44    2
   138    43    42    1
   139    53    51   ar
   140    53    54   ar
   141    51    48   ar
   142    68    67    1
   143    68    69    1
   144    42    45    1
   145    45    46    1
   146    54    52   ar
   147    48    46   ar
   148    48    50   ar
   149    70    69    2
   150    46    47   ar
   151    77    76    1
   152    77    78    1
   153    76    75    1
   154    52    50   ar
   155    50    49   ar
   156    78    79    2
   157    75    72    1
   158    47    49   ar
   159    72    71    1
   160    72    73    1
   161    79    80    1
   162    79    81    1
   163    73    74    2
