@<TRIPOS>MOLECULE
tmp/5fbfA02.pdb
 100 96 0 0 0
SMALL
GASTEIGER

@<TRIPOS>ATOM
      1  N         -1.0900    5.6380   16.6010 N.3    45  ASP45      -0.1239
      2  CA         0.2700    6.1020   16.9020 C.3    45  ASP45       0.1674
      3  C          0.3090    7.5270   17.4460 C.2    45  ASP45       0.2266
      4  O          1.2720    7.8610   18.1390 O.2    45  ASP45      -0.2867
      5  CB         1.1760    5.9920   15.6800 C.3    45  ASP45       0.1410
      6  CG         1.5900    4.5520   15.3500 C.2    45  ASP45       0.3668
      7  OD1        1.5480    3.7240   16.2860 O.co2  45  ASP45      -0.2456
      8  OD2        1.9480    4.2980   14.1800 O.co2  45  ASP45      -0.2456
      9  N         -1.4020    7.1190   21.3120 N.3    48  LYS48      -0.1231
     10  CA        -0.6900    6.3960   22.3410 C.3    48  LYS48       0.1693
     11  C          0.2630    7.2670   23.1560 C.2    48  LYS48       0.2592
     12  O          0.6010    6.9360   24.2930 O.2    48  LYS48      -0.2718
     13  CB         0.0840    5.2130   21.7600 C.3    48  LYS48       0.0285
     14  CG         1.3080    5.5700   20.9080 C.3    48  LYS48       0.0035
     15  CD         1.7790    4.3980   20.0910 C.3    48  LYS48       0.0206
     16  CE         3.0630    4.6560   19.3280 C.3    48  LYS48       0.1093
     17  NZ         3.4210    3.5060   18.4750 N.3    48  LYS48      -0.1314
     18  N          0.6870    8.3910   22.5830 N.am   49  TYR49      -0.1976
     19  CA         1.6320    9.2900   23.2410 C.3    49  TYR49       0.1639
     20  C          0.9150   10.3920   24.0040 C.2    49  TYR49       0.2290
     21  O          1.3170   11.5480   23.9600 O.2    49  TYR49      -0.2864
     22  CB         2.5940    9.8620   22.2080 C.3    49  TYR49       0.0560
     23  CG         3.5770    8.8520   21.6170 C.ar   49  TYR49      -0.0198
     24  CD1        4.4960    8.1990   22.4230 C.ar   49  TYR49      -0.0009
     25  CD2        3.6010    8.5890   20.2770 C.ar   49  TYR49      -0.0009
     26  CE1        5.4310    7.3290   21.9050 C.ar   49  TYR49       0.0417
     27  CE2        4.5330    7.7170   19.7420 C.ar   49  TYR49       0.0417
     28  CZ         5.4440    7.0890   20.5570 C.ar   49  TYR49       0.1957
     29  OH         6.3800    6.2520   19.9700 O.3    49  TYR49      -0.2866
     30  N          0.2930    1.8000   24.2380 N.3    57  LYS57      -0.1245
     31  CA         1.6080    1.6810   23.5950 C.3    57  LYS57       0.1561
     32  C          2.0610    0.2300   23.3800 C.2    57  LYS57       0.2260
     33  O          2.5410   -0.1080   22.3000 O.2    57  LYS57      -0.2867
     34  CB         2.7060    2.4720   24.3550 C.3    57  LYS57       0.0271
     35  CG         2.5010    3.9800   24.2830 C.3    57  LYS57       0.0035
     36  CD         3.4270    4.7820   25.1650 C.3    57  LYS57       0.0206
     37  CE         4.8380    4.8180   24.6810 C.3    57  LYS57       0.1093
     38  NZ         5.6990    5.6550   25.5490 N.3    57  LYS57      -0.1314
     39  N          1.1400   -2.2760   20.1280 N.3    60  HIS60      -0.1226
     40  CA         1.6410   -2.1220   18.7660 C.3    60  HIS60       0.1752
     41  C          2.6220   -3.2250   18.3620 C.2    60  HIS60       0.2596
     42  O          2.9940   -3.2950   17.1900 O.2    60  HIS60      -0.2718
     43  CB         2.2250   -0.7450   18.5500 C.3    60  HIS60       0.0759
     44  CG         1.1950    0.3250   18.6770 C.ar   60  HIS60       0.0818
     45  ND1        0.8880    1.1870   17.6510 N.ar   60  HIS60      -0.2268
     46  CD2        0.3630    0.6170   19.6990 C.ar   60  HIS60       0.1154
     47  CE1       -0.0920    1.9680   18.0370 C.ar   60  HIS60       0.1986
     48  NE2       -0.4090    1.6740   19.2890 N.ar   60  HIS60      -0.2212
     49  N          3.0080   -4.0940   19.2840 N.am   61  PHE61      -0.1976
     50  CA         4.1100   -5.0380   18.9980 C.3    61  PHE61       0.1639
     51  C          4.0120   -6.2270   19.9190 C.2    61  PHE61       0.2290
     52  O          3.2670   -6.2200   20.9120 O.2    61  PHE61      -0.2864
     53  CB         5.4950   -4.3600   19.0730 C.3    61  PHE61       0.0560
     54  CG         5.7180   -3.6500   20.3520 C.ar   61  PHE61      -0.0200
     55  CD1        6.2200   -4.3130   21.4710 C.ar   61  PHE61      -0.0042
     56  CD2        5.4520   -2.2830   20.5000 C.ar   61  PHE61      -0.0042
     57  CE1        6.4280   -3.6520   22.6600 C.ar   61  PHE61      -0.0003
     58  CE2        5.6730   -1.6310   21.7110 C.ar   61  PHE61      -0.0003
     59  CZ         6.1500   -2.3220   22.7790 C.ar   61  PHE61      -0.0000
     60  N          8.2100   -5.3370   14.6380 N.3   125  HIS125     -0.1241
     61  CA         7.1100   -5.3400   15.6160 C.3   125  HIS125      0.1621
     62  C          6.8250   -6.7120   16.2020 C.2   125  HIS125      0.2264
     63  O          5.8970   -6.8580   16.9890 O.2   125  HIS125     -0.2867
     64  CB         5.8570   -4.7370   14.9700 C.3   125  HIS125      0.0745
     65  CG         5.8740   -3.2450   14.8410 C.ar  125  HIS125      0.0817
     66  ND1        4.9870   -2.4760   15.5330 N.ar  125  HIS125     -0.2268
     67  CD2        6.6340   -2.3670   14.1280 C.ar  125  HIS125      0.1154
     68  CE1        5.2150   -1.2010   15.2910 C.ar  125  HIS125      0.1986
     69  NE2        6.2040   -1.0980   14.4280 N.ar  125  HIS125     -0.2212
     70  N         14.6740   -3.3120   21.6340 N.3   131  ALA131     -0.1245
     71  CA        13.3430   -2.7010   21.5770 C.3   131  ALA131      0.1562
     72  C         12.8040   -2.6900   20.1540 C.2   131  ALA131      0.2260
     73  O         12.4590   -1.6650   19.5570 O.2   131  ALA131     -0.2867
     74  CB        13.3280   -1.3000   22.1730 C.3   131  ALA131      0.0290
     75  N         14.8040   -0.5110   17.6250 N.3   134  ASN134     -0.1240
     76  CA        14.9550    0.9260   17.8760 C.3   134  ASN134      0.1653
     77  C         16.3180    1.3060   18.4270 C.2   134  ASN134      0.2266
     78  O         16.7870    2.4150   18.1750 O.2   134  ASN134     -0.2867
     79  CB        13.8550    1.4250   18.8100 C.3   134  ASN134      0.1155
     80  CG        12.5860    1.6450   18.0820 C.2   134  ASN134      0.2627
     81  OD1       12.4610    2.5800   17.3020 O.2   134  ASN134     -0.2716
     82  ND2       11.5990    0.7700   18.2980 N.am  134  ASN134     -0.0877
     83  N         14.6550    0.0030   13.2540 N.3   148  HIS148     -0.1241
     84  CA        13.1890    0.0260   13.2960 C.3   148  HIS148      0.1621
     85  C         12.6260    1.0570   12.3250 C.2   148  HIS148      0.2264
     86  O         11.6760    0.7740   11.5750 O.2   148  HIS148     -0.2867
     87  CB        12.7150    0.2920   14.7120 C.3   148  HIS148      0.0745
     88  CG        11.2280    0.1010   14.8660 C.ar  148  HIS148      0.0817
     89  ND1       10.6820   -1.0500   15.3700 N.ar  148  HIS148     -0.2268
     90  CD2       10.1790    0.8700   14.5070 C.ar  148  HIS148      0.1154
     91  CE1        9.3510   -0.9660   15.3280 C.ar  148  HIS148      0.1986
     92  NE2        9.0070    0.1840   14.7880 N.ar  148  HIS148     -0.2212
     93  N          9.9690    0.8590    9.2020 N.3   152  ASP152     -0.1239
     94  CA         8.6850    1.5480    9.2600 C.3   152  ASP152      0.1674
     95  C          8.5100    2.5200    8.1140 C.2   152  ASP152      0.2266
     96  O          7.3930    2.6290    7.5610 O.2   152  ASP152     -0.2867
     97  CB         8.5210    2.3080   10.5840 C.3   152  ASP152      0.1410
     98  CG         7.8870    1.5090   11.7330 C.2   152  ASP152      0.3668
     99  OD1        7.5190    0.3170   11.5670 O.co2 152  ASP152     -0.2456
    100  OD2        7.7520    2.1150   12.8280 O.co2 152  ASP152     -0.2456
@<TRIPOS>BOND
     1    96    95    2
     2    95    94    1
     3    93    94    1
     4    94    97    1
     5    97    98    1
     6    99    98   ar
     7    86    85    2
     8    98   100   ar
     9    85    84    1
    10    83    84    1
    11    84    87    1
    12    67    69   ar
    13    67    65   ar
    14     8     6   ar
    15    69    68   ar
    16    90    92   ar
    17    90    88   ar
    18    60    61    1
    19    87    88    1
    20    92    91   ar
    21    65    64    1
    22    65    66   ar
    23    88    89   ar
    24    64    61    1
    25    68    66   ar
    26    91    89   ar
    27     6     5    1
    28     6     7   ar
    29    61    62    1
    30     5     2    1
    31    62    63    2
    32     1     2    1
    33     2     3    1
    34    42    41    2
    35    81    80    2
    36     3     4    2
    37    75    76    1
    38    45    47   ar
    39    45    44   ar
    40    76    77    1
    41    76    79    1
    42    47    48   ar
    43    80    82   am
    44    80    79    1
    45    78    77    2
    46    41    40    1
    47    41    49   am
    48    17    16    1
    49    43    44    1
    50    43    40    1
    51    44    46   ar
    52    40    39    1
    53    50    53    1
    54    50    49    1
    55    50    51    1
    56    53    54    1
    57    48    46   ar
    58    16    15    1
    59    73    72    2
    60    27    25   ar
    61    27    28   ar
    62    51    52    2
    63    29    28    1
    64    15    14    1
    65    72    71    1
    66    25    23   ar
    67    54    56   ar
    68    54    55   ar
    69    56    58   ar
    70    28    26   ar
    71    14    13    1
    72     9    10    1
    73    55    57   ar
    74    71    70    1
    75    71    74    1
    76    23    22    1
    77    23    24   ar
    78    58    59   ar
    79    13    10    1
    80    26    24   ar
    81    22    19    1
    82    33    32    2
    83    10    11    1
    84    18    11   am
    85    18    19    1
    86    57    59   ar
    87    11    12    2
    88    19    20    1
    89    32    31    1
    90    31    30    1
    91    31    34    1
    92    21    20    2
    93    35    34    1
    94    35    36    1
    95    37    36    1
    96    37    38    1
