@<TRIPOS>MOLECULE
tmp/5fbfA03.pdb
 125 123 0 0 0
SMALL
GASTEIGER

@<TRIPOS>ATOM
      1  N          4.5460    0.2170   11.0440 N.3     1  TRP1       -0.1227
      2  CA         4.8840    1.0260    9.8730 C.3     1  TRP1        0.1737
      3  C          4.7780    2.4970   10.2220 C.2     1  TRP1        0.2596
      4  O          4.0870    2.8830   11.1620 O.2     1  TRP1       -0.2718
      5  CB         3.9210    0.7260    8.6940 C.3     1  TRP1        0.0564
      6  CG         3.8720   -0.6930    8.3370 C.ar    1  TRP1        0.0003
      7  CD1        2.8580   -1.5800    8.6470 C.ar    1  TRP1        0.0946
      8  CD2        4.8770   -1.4920    7.6710 C.ar    1  TRP1        0.0152
      9  NE1        3.1640   -2.8390    8.2180 N.ar    1  TRP1       -0.2442
     10  CE2        4.3930   -2.8220    7.6040 C.ar    1  TRP1        0.0810
     11  CE3        6.1290   -1.2020    7.1020 C.ar    1  TRP1        0.0012
     12  CZ2        5.1280   -3.8540    7.0670 C.ar    1  TRP1        0.0191
     13  CZ3        6.8570   -2.2280    6.5500 C.ar    1  TRP1        0.0001
     14  CH2        6.3770   -3.5400    6.5430 C.ar    1  TRP1        0.0015
     15  N          5.4170    3.3420    9.4220 N.am    2  GLY2       -0.1942
     16  CA         5.1200    4.7440    9.4350 C.3     2  GLY2        0.2014
     17  C          3.7860    5.0700    8.7830 C.2     2  GLY2        0.2638
     18  O          3.0030    4.1840    8.4160 O.2     2  GLY2       -0.2714
     19  N          3.5380    6.3580    8.6240 N.am    3  ASN3       -0.1972
     20  CA         2.2430    6.8090    8.1330 C.3     3  ASN3        0.1688
     21  C          1.9140    6.2310    6.7590 C.2     3  ASN3        0.2292
     22  O          0.7970    5.7360    6.5540 O.2     3  ASN3       -0.2864
     23  CB         2.2630    8.3240    8.1010 C.3     3  ASN3        0.1181
     24  CG         0.9730    8.8780    7.6250 C.2     3  ASN3        0.2629
     25  OD1       -0.0910    8.6100    8.2010 O.2     3  ASN3       -0.2716
     26  ND2        1.0370    9.6190    6.5440 N.am    3  ASN3       -0.0877
     27  N         -3.4560    5.7770   10.9790 N.3    42  THR42      -0.1218
     28  CA        -2.2930    6.1710   11.7460 C.3    42  THR42       0.1862
     29  C         -2.6990    6.6850   13.1500 C.2    42  THR42       0.2287
     30  O         -1.8490    6.9230   13.9990 O.2    42  THR42      -0.2866
     31  CB        -1.4470    7.1430   10.8970 C.3    42  THR42       0.1770
     32  OG1       -1.1370    6.4360    9.6880 O.3    42  THR42      -0.2211
     33  CG2       -0.1450    7.5370   11.6240 C.3    42  THR42       0.0375
     34  N         -1.0900    5.6380   16.6010 N.3    45  ASP45      -0.1239
     35  CA         0.2700    6.1020   16.9020 C.3    45  ASP45       0.1674
     36  C          0.3090    7.5270   17.4460 C.2    45  ASP45       0.2266
     37  O          1.2720    7.8610   18.1390 O.2    45  ASP45      -0.2867
     38  CB         1.1760    5.9920   15.6800 C.3    45  ASP45       0.1410
     39  CG         1.5900    4.5520   15.3500 C.2    45  ASP45       0.3668
     40  OD1        1.5480    3.7240   16.2860 O.co2  45  ASP45      -0.2456
     41  OD2        1.9480    4.2980   14.1800 O.co2  45  ASP45      -0.2456
     42  N         -1.4020    7.1190   21.3120 N.3    48  LYS48      -0.1231
     43  CA        -0.6900    6.3960   22.3410 C.3    48  LYS48       0.1693
     44  C          0.2630    7.2670   23.1560 C.2    48  LYS48       0.2592
     45  O          0.6010    6.9360   24.2930 O.2    48  LYS48      -0.2718
     46  CB         0.0840    5.2130   21.7600 C.3    48  LYS48       0.0285
     47  CG         1.3080    5.5700   20.9080 C.3    48  LYS48       0.0035
     48  CD         1.7790    4.3980   20.0910 C.3    48  LYS48       0.0206
     49  CE         3.0630    4.6560   19.3280 C.3    48  LYS48       0.1093
     50  NZ         3.4210    3.5060   18.4750 N.3    48  LYS48      -0.1314
     51  N          0.6870    8.3910   22.5830 N.am   49  TYR49      -0.1976
     52  CA         1.6320    9.2900   23.2410 C.3    49  TYR49       0.1639
     53  C          0.9150   10.3920   24.0040 C.2    49  TYR49       0.2290
     54  O          1.3170   11.5480   23.9600 O.2    49  TYR49      -0.2864
     55  CB         2.5940    9.8620   22.2080 C.3    49  TYR49       0.0560
     56  CG         3.5770    8.8520   21.6170 C.ar   49  TYR49      -0.0198
     57  CD1        4.4960    8.1990   22.4230 C.ar   49  TYR49      -0.0009
     58  CD2        3.6010    8.5890   20.2770 C.ar   49  TYR49      -0.0009
     59  CE1        5.4310    7.3290   21.9050 C.ar   49  TYR49       0.0417
     60  CE2        4.5330    7.7170   19.7420 C.ar   49  TYR49       0.0417
     61  CZ         5.4440    7.0890   20.5570 C.ar   49  TYR49       0.1957
     62  OH         6.3800    6.2520   19.9700 O.3    49  TYR49      -0.2866
     63  N          1.1400   -2.2760   20.1280 N.3    60  HIS60      -0.1241
     64  CA         1.6410   -2.1220   18.7660 C.3    60  HIS60       0.1621
     65  C          2.6220   -3.2250   18.3620 C.2    60  HIS60       0.2264
     66  O          2.9940   -3.2950   17.1900 O.2    60  HIS60      -0.2867
     67  CB         2.2250   -0.7450   18.5500 C.3    60  HIS60       0.0745
     68  CG         1.1950    0.3250   18.6770 C.ar   60  HIS60       0.0817
     69  ND1        0.8880    1.1870   17.6510 N.ar   60  HIS60      -0.2268
     70  CD2        0.3630    0.6170   19.6990 C.ar   60  HIS60       0.1154
     71  CE1       -0.0920    1.9680   18.0370 C.ar   60  HIS60       0.1986
     72  NE2       -0.4090    1.6740   19.2890 N.ar   60  HIS60      -0.2212
     73  N          0.6340   -3.1300   11.9300 N.3   119  ASP119     -0.1239
     74  CA         1.8920   -3.2280   12.6980 C.3   119  ASP119      0.1674
     75  C          2.3860   -4.6590   12.8420 C.2   119  ASP119      0.2266
     76  O          3.6020   -4.8930   12.8230 O.2   119  ASP119     -0.2867
     77  CB         1.7180   -2.5910   14.0830 C.3   119  ASP119      0.1410
     78  CG         2.0270   -1.0750   14.1340 C.2   119  ASP119      0.3668
     79  OD1        2.5330   -0.5820   13.0970 O.co2 119  ASP119     -0.2456
     80  OD2        1.7590   -0.4900   15.1890 O.co2 119  ASP119     -0.2456
     81  N          8.2100   -5.3370   14.6380 N.3   125  HIS125     -0.1241
     82  CA         7.1100   -5.3400   15.6160 C.3   125  HIS125      0.1621
     83  C          6.8250   -6.7120   16.2020 C.2   125  HIS125      0.2264
     84  O          5.8970   -6.8580   16.9890 O.2   125  HIS125     -0.2867
     85  CB         5.8570   -4.7370   14.9700 C.3   125  HIS125      0.0745
     86  CG         5.8740   -3.2450   14.8410 C.ar  125  HIS125      0.0817
     87  ND1        4.9870   -2.4760   15.5330 N.ar  125  HIS125     -0.2268
     88  CD2        6.6340   -2.3670   14.1280 C.ar  125  HIS125      0.1154
     89  CE1        5.2150   -1.2010   15.2910 C.ar  125  HIS125      0.1986
     90  NE2        6.2040   -1.0980   14.4280 N.ar  125  HIS125     -0.2212
     91  N         14.6550    0.0030   13.2540 N.3   148  HIS148     -0.1226
     92  CA        13.1890    0.0260   13.2960 C.3   148  HIS148      0.1752
     93  C         12.6260    1.0570   12.3250 C.2   148  HIS148      0.2596
     94  O         11.6760    0.7740   11.5750 O.2   148  HIS148     -0.2718
     95  CB        12.7150    0.2920   14.7120 C.3   148  HIS148      0.0759
     96  CG        11.2280    0.1010   14.8660 C.ar  148  HIS148      0.0818
     97  ND1       10.6820   -1.0500   15.3700 N.ar  148  HIS148     -0.2268
     98  CD2       10.1790    0.8700   14.5070 C.ar  148  HIS148      0.1154
     99  CE1        9.3510   -0.9660   15.3280 C.ar  148  HIS148      0.1986
    100  NE2        9.0070    0.1840   14.7880 N.ar  148  HIS148     -0.2212
    101  N         13.1660    2.2570   12.3930 N.am  149  HIS149     -0.1975
    102  CA        12.6610    3.3620   11.6160 C.3   149  HIS149      0.1656
    103  C         12.8180    3.1140   10.1120 C.2   149  HIS149      0.2291
    104  O         11.9450    3.5430    9.3420 O.2   149  HIS149     -0.2864
    105  CB        13.3950    4.6500   12.0070 C.3   149  HIS149      0.0771
    106  CG        12.7450    5.8870   11.4790 C.ar  149  HIS149      0.0820
    107  ND1       13.0040    6.4610   10.2590 N.ar  149  HIS149     -0.2267
    108  CD2       11.7610    6.6390   12.0330 C.ar  149  HIS149      0.1154
    109  CE1       12.2580    7.5360   10.1040 C.ar  149  HIS149      0.1986
    110  NE2       11.4720    7.6460   11.1560 N.ar  149  HIS149     -0.2212
    111  N          9.9690    0.8590    9.2020 N.3   152  ASP152     -0.1225
    112  CA         8.6850    1.5480    9.2600 C.3   152  ASP152      0.1805
    113  C          8.5100    2.5200    8.1140 C.2   152  ASP152      0.2598
    114  O          7.3930    2.6290    7.5610 O.2   152  ASP152     -0.2718
    115  CB         8.5210    2.3080   10.5840 C.3   152  ASP152      0.1424
    116  CG         7.8870    1.5090   11.7330 C.2   152  ASP152      0.3668
    117  OD1        7.5190    0.3170   11.5670 O.co2 152  ASP152     -0.2456
    118  OD2        7.7520    2.1150   12.8280 O.co2 152  ASP152     -0.2456
    119  N          9.5480    3.2860    7.8070 N.am  153  THR153     -0.1953
    120  CA         9.4260    4.5580    7.0870 C.3   153  THR153      0.1897
    121  C         10.3930    4.7310    5.9430 C.2   153  THR153      0.2313
    122  O          9.9690    4.8950    4.7960 O.2   153  THR153     -0.2863
    123  CB         9.4710    5.7200    8.0760 C.3   153  THR153      0.1794
    124  OG1        8.3390    5.5380    8.9430 O.3   153  THR153     -0.2208
    125  CG2        9.4450    7.0690    7.4220 C.3   153  THR153      0.0378
@<TRIPOS>BOND
     1   122   121    2
     2   121   120    1
     3    14    13   ar
     4    14    12   ar
     5    26    24   am
     6    13    11   ar
     7    22    21    2
     8    21    20    1
     9    12    10   ar
    10   120   119    1
    11   120   123    1
    12    11     8   ar
    13   125   123    1
    14   114   113    2
    15    10     8   ar
    16    10     9   ar
    17    24    23    1
    18    24    25    2
    19     8     6   ar
    20   119   113   am
    21   123   124    1
    22    23    20    1
    23   113   112    1
    24    20    19    1
    25     9     7   ar
    26     6     7   ar
    27     6     5    1
    28    18    17    2
    29    19    17   am
    30     5     2    1
    31    17    16    1
    32   111   112    1
    33   112   115    1
    34   104   103    2
    35    15    16    1
    36    15     3   am
    37    32    31    1
    38     2     3    1
    39     2     1    1
    40   109   107   ar
    41   109   110   ar
    42   103   102    1
    43     3     4    2
    44   107   106   ar
    45   115   116    1
    46    31    33    1
    47    31    28    1
    48    27    28    1
    49   110   108   ar
    50   106   105    1
    51   106   108   ar
    52   117   116   ar
    53    94    93    2
    54   102   105    1
    55   102   101    1
    56   116   118   ar
    57    28    29    1
    58    73    74    1
    59    93   101   am
    60    93    92    1
    61    74    75    1
    62    74    77    1
    63    76    75    2
    64    79    78   ar
    65    29    30    2
    66    91    92    1
    67    92    95    1
    68    77    78    1
    69    88    90   ar
    70    88    86   ar
    71    78    80   ar
    72    41    39   ar
    73    90    89   ar
    74    98   100   ar
    75    98    96   ar
    76    81    82    1
    77    95    96    1
    78   100    99   ar
    79    86    85    1
    80    86    87   ar
    81    96    97   ar
    82    85    82    1
    83    89    87   ar
    84    99    97   ar
    85    39    38    1
    86    39    40   ar
    87    82    83    1
    88    38    35    1
    89    83    84    2
    90    34    35    1
    91    35    36    1
    92    66    65    2
    93    36    37    2
    94    69    71   ar
    95    69    68   ar
    96    71    72   ar
    97    65    64    1
    98    50    49    1
    99    67    68    1
   100    67    64    1
   101    68    70   ar
   102    64    63    1
   103    72    70   ar
   104    49    48    1
   105    60    58   ar
   106    60    61   ar
   107    62    61    1
   108    48    47    1
   109    58    56   ar
   110    61    59   ar
   111    47    46    1
   112    42    43    1
   113    56    55    1
   114    56    57   ar
   115    46    43    1
   116    59    57   ar
   117    55    52    1
   118    43    44    1
   119    51    44   am
   120    51    52    1
   121    44    45    2
   122    52    53    1
   123    54    53    2
