@<TRIPOS>MOLECULE
tmp/5fbgB02.pdb
 104 101 0 0 0
SMALL
GASTEIGER

@<TRIPOS>ATOM
      1  N         67.3080  -47.9960   -1.5530 N.3    48  LYS48      -0.1231
      2  CA        67.4650  -48.2050   -2.9970 C.3    48  LYS48       0.1693
      3  C         68.9130  -47.9510   -3.5540 C.2    48  LYS48       0.2592
      4  O         69.2210  -48.3620   -4.6790 O.2    48  LYS48      -0.2718
      5  CB        66.4250  -47.4110   -3.7900 C.3    48  LYS48       0.0285
      6  CG        66.7050  -45.9290   -3.8950 C.3    48  LYS48       0.0035
      7  CD        65.4830  -45.2530   -4.4800 C.3    48  LYS48       0.0206
      8  CE        65.6050  -43.7690   -4.7680 C.3    48  LYS48       0.1093
      9  NZ        64.2910  -43.1880   -5.2030 N.3    48  LYS48      -0.1314
     10  N         69.7110  -47.1900   -2.7780 N.am   49  TYR49      -0.1976
     11  CA        71.1090  -46.8990   -3.0940 C.3    49  TYR49       0.1639
     12  C         72.1470  -47.8870   -2.4860 C.2    49  TYR49       0.2290
     13  O         73.3250  -47.6440   -2.5810 O.2    49  TYR49      -0.2864
     14  CB        71.4780  -45.4600   -2.7570 C.3    49  TYR49       0.0560
     15  CG        70.7140  -44.4700   -3.5830 C.ar   49  TYR49      -0.0198
     16  CD1       70.8480  -44.4530   -4.9750 C.ar   49  TYR49      -0.0009
     17  CD2       69.7980  -43.6020   -3.0010 C.ar   49  TYR49      -0.0009
     18  CE1       70.1270  -43.5820   -5.7510 C.ar   49  TYR49       0.0417
     19  CE2       69.0770  -42.6950   -3.7760 C.ar   49  TYR49       0.0417
     20  CZ        69.2290  -42.7110   -5.1400 C.ar   49  TYR49       0.1957
     21  OH        68.5230  -41.8730   -5.9210 O.3    49  TYR49      -0.2866
     22  N         64.4630  -49.8060   -6.7070 N.3    57  LYS57      -0.1245
     23  CA        64.3390  -48.4820   -7.3350 C.3    57  LYS57       0.1561
     24  C         63.0630  -48.2560   -8.1630 C.2    57  LYS57       0.2260
     25  O         62.4930  -47.2060   -8.0670 O.2    57  LYS57      -0.2867
     26  CB        65.5150  -48.1280   -8.2490 C.3    57  LYS57       0.0271
     27  CG        66.7030  -47.5660   -7.5360 C.3    57  LYS57       0.0035
     28  CD        67.7840  -47.2070   -8.5490 C.3    57  LYS57       0.0206
     29  CE        68.9710  -46.6390   -7.7940 C.3    57  LYS57       0.1093
     30  NZ        70.0380  -46.1720   -8.7090 N.3    57  LYS57      -0.1314
     31  N         59.2380  -47.1440   -6.7860 N.3    60  HIS60      -0.1226
     32  CA        58.8790  -45.7810   -6.3750 C.3    60  HIS60       0.1752
     33  C         57.8910  -45.0630   -7.3170 C.2    60  HIS60       0.2596
     34  O         57.3890  -43.9610   -6.9710 O.2    60  HIS60      -0.2718
     35  CB        60.1590  -44.9740   -6.1360 C.3    60  HIS60       0.0759
     36  CG        60.9580  -45.4790   -4.9830 C.ar   60  HIS60       0.0818
     37  ND1       61.2820  -44.7020   -3.8870 N.ar   60  HIS60      -0.2268
     38  CD2       61.5260  -46.6960   -4.7540 C.ar   60  HIS60       0.1154
     39  CE1       61.9620  -45.4240   -3.0160 C.ar   60  HIS60       0.1986
     40  NE2       62.1480  -46.6290   -3.5310 N.ar   60  HIS60      -0.2212
     41  N         57.6310  -45.6610   -8.4960 N.am   61  PHE61      -0.1976
     42  CA        56.8950  -44.9770   -9.5500 C.3    61  PHE61       0.1639
     43  C         56.1880  -45.9750  -10.4840 C.2    61  PHE61       0.2290
     44  O         56.3860  -47.2050  -10.3940 O.2    61  PHE61      -0.2864
     45  CB        57.7910  -43.9640  -10.3130 C.3    61  PHE61       0.0560
     46  CG        59.0340  -44.5870  -10.9280 C.ar   61  PHE61      -0.0200
     47  CD1       58.9690  -45.3020  -12.1320 C.ar   61  PHE61      -0.0042
     48  CD2       60.2360  -44.5530  -10.2280 C.ar   61  PHE61      -0.0042
     49  CE1       60.1090  -45.9050  -12.6550 C.ar   61  PHE61      -0.0003
     50  CE2       61.3770  -45.1680  -10.7400 C.ar   61  PHE61      -0.0003
     51  CZ        61.3170  -45.8500  -11.9550 C.ar   61  PHE61      -0.0000
     52  N         55.5960  -45.7620  -14.6170 N.3    63  ASP63      -0.1239
     53  CA        55.8560  -44.9510  -15.8060 C.3    63  ASP63       0.1674
     54  C         54.6730  -44.9890  -16.8390 C.2    63  ASP63       0.2266
     55  O         54.7680  -45.6150  -17.9160 O.2    63  ASP63      -0.2867
     56  CB        57.1510  -45.3890  -16.4870 C.3    63  ASP63       0.1410
     57  CG        58.4190  -44.7530  -15.8390 C.2    63  ASP63       0.3668
     58  OD1       58.3320  -43.6800  -15.1990 O.co2  63  ASP63      -0.2456
     59  OD2       59.5060  -45.3790  -15.9920 O.co2  63  ASP63      -0.2456
     60  N         54.3730  -36.7760  -10.8960 N.3   124  LEU124     -0.1231
     61  CA        55.4620  -37.2020  -11.7760 C.3   124  LEU124      0.1693
     62  C         56.0260  -38.5640  -11.4680 C.2   124  LEU124      0.2592
     63  O         56.7740  -39.1320  -12.2840 O.2   124  LEU124     -0.2718
     64  CB        56.5470  -36.1380  -11.8710 C.3   124  LEU124      0.0284
     65  CG        56.1720  -34.9310  -12.7640 C.3   124  LEU124      0.0019
     66  CD1       57.1580  -33.7950  -12.6090 C.3   124  LEU124      0.0001
     67  CD2       56.0610  -35.3470  -14.2320 C.3   124  LEU124      0.0001
     68  N         55.5520  -39.1690  -10.3620 N.am  125  HIS125     -0.1976
     69  CA        55.7830  -40.5840  -10.0700 C.3   125  HIS125      0.1656
     70  C         54.7440  -41.4850  -10.7580 C.2   125  HIS125      0.2291
     71  O         54.7930  -42.7060  -10.5790 O.2   125  HIS125     -0.2864
     72  CB        55.7630  -40.8610   -8.5900 C.3   125  HIS125      0.0771
     73  CG        57.0300  -40.5050   -7.9030 C.ar  125  HIS125      0.0820
     74  ND1       57.8420  -41.4520   -7.3360 N.ar  125  HIS125     -0.2267
     75  CD2       57.6570  -39.3120   -7.7340 C.ar  125  HIS125      0.1154
     76  CE1       58.9180  -40.8650   -6.8400 C.ar  125  HIS125      0.1986
     77  NE2       58.8420  -39.5710   -7.1000 N.ar  125  HIS125     -0.2212
     78  N         61.7030  -39.6570  -18.0840 N.3   131  ALA131     -0.1231
     79  CA        61.9320  -40.3090  -16.7990 C.3   131  ALA131      0.1694
     80  C         61.1900  -39.6050  -15.6400 C.2   131  ALA131      0.2592
     81  O         61.8140  -39.1910  -14.6840 O.2   131  ALA131     -0.2718
     82  CB        63.4350  -40.4060  -16.5130 C.3   131  ALA131      0.0304
     83  N         59.8680  -39.4890  -15.7500 N.am  132  GLY132     -0.1957
     84  CA        59.0720  -38.7960  -14.7410 C.3   132  GLY132      0.1869
     85  C         59.4370  -37.3270  -14.5570 C.2   132  GLY132      0.2309
     86  O         59.3590  -36.7730  -13.4630 O.2   132  GLY132     -0.2863
     87  N         62.3580  -36.1000  -14.7820 N.3   134  ASN134     -0.1240
     88  CA        63.7510  -35.9350  -14.3530 C.3   134  ASN134      0.1653
     89  C         64.6250  -35.3640  -15.4720 C.2   134  ASN134      0.2266
     90  O         65.5590  -34.6630  -15.2070 O.2   134  ASN134     -0.2867
     91  CB        64.3380  -37.2450  -13.8120 C.3   134  ASN134      0.1155
     92  CG        63.8810  -37.5180  -12.3640 C.2   134  ASN134      0.2627
     93  OD1       64.3820  -36.9000  -11.4370 O.2   134  ASN134     -0.2716
     94  ND2       62.9620  -38.4530  -12.1800 N.am  134  ASN134     -0.0877
     95  N         61.0320  -32.7870  -12.1820 N.3   148  HIS148     -0.1241
     96  CA        60.7030  -33.7600  -11.1710 C.3   148  HIS148      0.1621
     97  C         61.1850  -33.2730   -9.7770 C.2   148  HIS148      0.2264
     98  O         60.4880  -33.3640   -8.7760 O.2   148  HIS148     -0.2867
     99  CB        61.3440  -35.1060  -11.4730 C.3   148  HIS148      0.0745
    100  CG        60.9420  -36.1850  -10.5140 C.ar  148  HIS148      0.0817
    101  ND1       60.0990  -37.2080  -10.8730 N.ar  148  HIS148     -0.2268
    102  CD2       61.2680  -36.4000   -9.2070 C.ar  148  HIS148      0.1154
    103  CE1       59.9200  -38.0110   -9.8280 C.ar  148  HIS148      0.1986
    104  NE2       60.6100  -37.5270   -8.8110 N.ar  148  HIS148     -0.2212
@<TRIPOS>BOND
     1    78    79    1
     2    55    54    2
     3    54    53    1
     4    79    82    1
     5    79    80    1
     6    56    57    1
     7    56    53    1
     8    59    57   ar
     9    57    58   ar
    10    53    52    1
    11    83    80   am
    12    83    84    1
    13    80    81    2
    14    89    90    2
    15    89    88    1
    16    87    88    1
    17    84    85    1
    18    85    86    2
    19    88    91    1
    20    67    65    1
    21    91    92    1
    22    65    66    1
    23    65    64    1
    24    49    47   ar
    25    49    51   ar
    26    92    94   am
    27    92    93    2
    28    63    62    2
    29    95    96    1
    30    47    46   ar
    31    51    50   ar
    32    64    61    1
    33    61    62    1
    34    61    60    1
    35    99    96    1
    36    99   100    1
    37    62    68   am
    38    96    97    1
    39    46    45    1
    40    46    48   ar
    41   101   100   ar
    42   101   103   ar
    43    70    71    2
    44    70    69    1
    45    50    48   ar
    46   100   102   ar
    47    43    44    2
    48    43    42    1
    49    68    69    1
    50    45    42    1
    51    69    72    1
    52   103   104   ar
    53    97    98    2
    54    42    41    1
    55   102   104   ar
    56    30    29    1
    57    72    73    1
    58    28    29    1
    59    28    27    1
    60    41    33   am
    61    26    27    1
    62    26    23    1
    63    24    25    2
    64    24    23    1
    65    73    75   ar
    66    73    74   ar
    67    75    77   ar
    68    74    76   ar
    69    23    22    1
    70    33    34    2
    71    33    32    1
    72    77    76   ar
    73    31    32    1
    74    32    35    1
    75    35    36    1
    76    21    20    1
    77    18    20   ar
    78    18    16   ar
    79     9     8    1
    80    20    19   ar
    81    36    38   ar
    82    36    37   ar
    83    16    15   ar
    84     8     7    1
    85    38    40   ar
    86     4     3    2
    87     7     6    1
    88     6     5    1
    89    37    39   ar
    90     5     2    1
    91    19    17   ar
    92    15    17   ar
    93    15    14    1
    94     3     2    1
    95     3    10   am
    96    40    39   ar
    97    11    10    1
    98    11    14    1
    99    11    12    1
   100     2     1    1
   101    13    12    2
