@<TRIPOS>MOLECULE
tmp/5fbiA00.pdb
 82 78 0 0 0
SMALL
GASTEIGER

@<TRIPOS>ATOM
      1  N          4.9800    6.2470    9.8760 N.3   130  ILE130     -0.1245
      2  CA         3.7900    6.5520   10.6590 C.3   130  ILE130      0.1561
      3  C          2.9980    5.3000   10.9870 C.2   130  ILE130      0.2260
      4  O          2.9720    4.3390   10.2070 O.2   130  ILE130     -0.2867
      5  CB         2.9260    7.6480   10.0310 C.3   130  ILE130      0.0252
      6  CG1        2.2370    7.1760    8.7010 C.3   130  ILE130      0.0019
      7  CG2        3.7320    8.9770    9.8520 C.3   130  ILE130      0.0019
      8  CD1        1.1690    8.2020    8.1350 C.3   130  ILE130      0.0001
      9  N          3.1530   -1.0250    4.9250 N.3   178  SER178     -0.1202
     10  CA         4.1830   -0.0100    5.0900 C.3   178  SER178      0.2020
     11  C          3.4850    1.3430    4.8170 C.2   178  SER178      0.2619
     12  O          2.3860    1.3720    4.2390 O.2   178  SER178     -0.2717
     13  CB         5.3280   -0.2430    4.1070 C.3   178  SER178      0.2103
     14  OG         4.8430   -0.2880    2.7730 O.3   178  SER178     -0.2182
     15  N          4.0580    2.4530    5.2910 N.am  179  CYS179     -0.1955
     16  CA         3.4700    3.7730    5.1640 C.3   179  CYS179      0.1843
     17  C          4.5210    4.8680    5.0670 C.2   179  CYS179      0.2625
     18  O          5.6990    4.5450    4.9240 O.2   179  CYS179     -0.2714
     19  CB         2.4980    4.0190    6.3210 C.3   179  CYS179      0.0997
     20  SG         1.1510    5.1700    5.9240 S.3   179  CYS179     -0.0797
     21  N          4.1170    6.1380    5.1340 N.am  180  LYS180     -0.1977
     22  CA         5.0200    7.2880    5.0560 C.3   180  LYS180      0.1596
     23  C          6.1110    7.1530    6.1060 C.2   180  LYS180      0.2287
     24  O          5.8050    6.8640    7.2770 O.2   180  LYS180     -0.2864
     25  CB         4.2500    8.6080    5.2580 C.3   180  LYS180      0.0298
     26  CG         5.1400    9.8380    5.1340 C.3   180  LYS180      0.0038
     27  CD         4.4930   11.0490    5.7680 C.3   180  LYS180      0.0206
     28  CE         5.2570   12.3360    5.5570 C.3   180  LYS180      0.1093
     29  NZ         6.5370   12.3730    6.3100 N.3   180  LYS180     -0.1314
     30  N          9.3700    4.2370    3.5070 N.3   183  SER183     -0.1217
     31  CA         9.9770    4.2670    2.1820 C.3   183  SER183      0.1889
     32  C         11.4850    4.0360    2.2980 C.2   183  SER183      0.2288
     33  O         12.1180    4.5530    3.2150 O.2   183  SER183     -0.2866
     34  CB         9.7340    5.6180    1.5430 C.3   183  SER183      0.2089
     35  OG         8.3300    5.8720    1.5060 O.3   183  SER183     -0.2183
     36  N         11.0050   -0.6860    0.0110 N.3   197  VAL197     -0.1231
     37  CA         9.7330    0.0130   -0.0020 C.3   197  VAL197      0.1692
     38  C          9.8130    1.2080   -0.9490 C.2   197  VAL197      0.2593
     39  O         10.7460    2.0420   -0.8530 O.2   197  VAL197     -0.2718
     40  CB         9.3900    0.4970    1.4370 C.3   197  VAL197      0.0266
     41  CG1        8.0140    1.1670    1.4620 C.3   197  VAL197      0.0020
     42  CG2        9.4290   -0.6730    2.4320 C.3   197  VAL197      0.0020
     43  N          8.8120    1.3510   -1.8560 N.am  198  THR198     -0.1939
     44  CA         8.7910    2.5160   -2.7450 C.3   198  THR198      0.2028
     45  C          8.4610    3.8070   -1.9770 C.2   198  THR198      0.2643
     46  O          7.9490    3.7560   -0.8340 O.2   198  THR198     -0.2714
     47  CB         7.8960    2.3010   -3.9520 C.3   198  THR198      0.1808
     48  OG1        6.5690    2.0820   -3.4950 O.3   198  THR198     -0.2208
     49  CG2        8.3740    1.1710   -4.8430 C.3   198  THR198      0.0379
     50  N          8.7740    4.9540   -2.5700 N.am  199  SER199     -0.1935
     51  CA         8.6210    6.2130   -1.8350 C.3   199  SER199      0.2055
     52  C          7.5790    7.1740   -2.3990 C.2   199  SER199      0.2644
     53  O          7.4100    8.2760   -1.8570 O.2   199  SER199     -0.2714
     54  CB         9.9740    6.8880   -1.6510 C.3   199  SER199      0.2130
     55  OG        10.6220    7.1290   -2.8790 O.3   199  SER199     -0.2179
     56  N          6.7960    6.7010   -3.3590 N.am  200  GLY200     -0.1939
     57  CA         5.7020    7.4860   -3.9160 C.3   200  GLY200      0.2014
     58  C          4.5050    7.4730   -2.9870 C.2   200  GLY200      0.2640
     59  O          4.2570    6.4660   -2.3150 O.2   200  GLY200     -0.2714
     60  N          3.7640    8.5970   -2.9200 N.am  201  SER201     -0.1935
     61  CA         2.5770    8.7120   -2.0660 C.3   201  SER201      0.2055
     62  C          1.5560    7.6200   -2.4180 C.2   201  SER201      0.2642
     63  O          1.3560    7.3210   -3.5960 O.2   201  SER201     -0.2714
     64  CB         1.9440   10.0920   -2.2210 C.3   201  SER201      0.2130
     65  OG         2.7830   11.0990   -1.6730 O.3   201  SER201     -0.2179
     66  N          0.9820    6.9750   -1.4010 N.am  202  ARG202     -0.1977
     67  CA        -0.0070    5.9060   -1.5670 C.3   202  ARG202      0.1597
     68  C         -0.7630    5.7930   -0.2530 C.2   202  ARG202      0.2287
     69  O         -0.1570    5.9970    0.8040 O.2   202  ARG202     -0.2864
     70  CB         0.7330    4.5570   -1.8480 C.3   202  ARG202      0.0334
     71  CG        -0.1670    3.3280   -2.1190 C.3   202  ARG202      0.0492
     72  CD         0.6150    2.0140   -2.1860 C.3   202  ARG202      0.2205
     73  NE         1.4390    1.8330   -0.9850 N.pl3 202  ARG202     -0.0865
     74  CZ         1.0790    1.1390    0.0870 C.cat 202  ARG202      0.5346
     75  NH1       -0.0570    0.4480    0.0930 N.pl3 202  ARG202      0.1354
     76  NH2        1.8750    1.0860    1.1450 N.pl3 202  ARG202      0.1354
     77  N         -2.2890    3.8010    2.9240 N.3   204  CYS204     -0.1235
     78  CA        -1.7770    2.6800    3.6970 C.3   204  CYS204      0.1677
     79  C         -2.8880    1.8790    4.3410 C.2   204  CYS204      0.2270
     80  O         -3.8360    2.4620    4.9060 O.2   204  CYS204     -0.2867
     81  CB        -0.7880    3.1660    4.7540 C.3   204  CYS204      0.0956
     82  SG         0.3230    4.4860    4.1910 S.3   204  CYS204     -0.0801
@<TRIPOS>BOND
     1    49    47    1
     2    47    48    1
     3    47    44    1
     4    57    56    1
     5    57    58    1
     6    63    62    2
     7    56    52   am
     8    58    60   am
     9    58    59    2
    10    60    61    1
    11    55    54    1
    12    44    45    1
    13    44    43    1
    14    50    45   am
    15    50    51    1
    16    62    61    1
    17    62    66   am
    18    52    53    2
    19    52    51    1
    20    64    61    1
    21    64    65    1
    22    72    71    1
    23    72    73    1
    24    71    70    1
    25    45    46    2
    26    43    38   am
    27    70    67    1
    28    51    54    1
    29    67    66    1
    30    67    68    1
    31    73    74    2
    32    38    39    2
    33    38    37    1
    34    68    69    2
    35    37    36    1
    36    37    40    1
    37    74    75    1
    38    74    76    1
    39    40    41    1
    40    40    42    1
    41    35    34    1
    42    34    31    1
    43    31    32    1
    44    31    30    1
    45    32    33    2
    46    14    13    1
    47    77    78    1
    48    78    79    1
    49    78    81    1
    50    13    10    1
    51    82    81    1
    52    82    20    1
    53    12    11    2
    54    79    80    2
    55    11    10    1
    56    11    15   am
    57    18    17    2
    58     9    10    1
    59    22    21    1
    60    22    25    1
    61    22    23    1
    62    17    21   am
    63    17    16    1
    64    26    25    1
    65    26    27    1
    66    16    15    1
    67    16    19    1
    68    28    27    1
    69    28    29    1
    70    20    19    1
    71    23    24    2
    72     8     6    1
    73     6     5    1
    74     7     5    1
    75     1     2    1
    76     5     2    1
    77     4     3    2
    78     2     3    1
