@<TRIPOS>MOLECULE
tmp/5fbkB00.pdb
 154 145 0 0 0
SMALL
GASTEIGER

@<TRIPOS>ATOM
      1  N        -30.7190   22.4650   18.9740 N.3    19  PRO19      -0.2116
      2  CA       -31.8390   22.1170   18.1100 C.3    19  PRO19       0.1372
      3  C        -32.3530   23.3610   17.4180 C.2    19  PRO19       0.2244
      4  O        -33.2990   23.9990   17.8930 O.2    19  PRO19      -0.2868
      5  CB       -32.8530   21.5400   19.0850 C.3    19  PRO19       0.0268
      6  CG       -32.5890   22.2600   20.3680 C.3    19  PRO19       0.0207
      7  CD       -31.1580   22.6760   20.3640 C.3    19  PRO19       0.0892
      8  N        -36.8130   21.8560   15.0150 N.3    22  PHE22      -0.1241
      9  CA       -37.5370   20.9670   15.9260 C.3    22  PHE22       0.1605
     10  C        -37.5300   19.5130   15.5150 C.2    22  PHE22       0.2264
     11  O        -37.8170   18.6510   16.3150 O.2    22  PHE22      -0.2867
     12  CB       -38.9910   21.4000   16.0700 C.3    22  PHE22       0.0534
     13  CG       -39.1880   22.5690   16.9860 C.ar   22  PHE22      -0.0203
     14  CD1      -38.8430   22.4890   18.3190 C.ar   22  PHE22      -0.0042
     15  CD2      -39.7310   23.7550   16.5160 C.ar   22  PHE22      -0.0042
     16  CE1      -39.0430   23.5580   19.1750 C.ar   22  PHE22      -0.0003
     17  CE2      -39.9000   24.8390   17.3630 C.ar   22  PHE22      -0.0003
     18  CZ       -39.5690   24.7360   18.6910 C.ar   22  PHE22      -0.0000
     19  N        -36.5750   26.5220   15.0460 N.3    44  ASN44      -0.1240
     20  CA       -36.7020   26.6520   16.4960 C.3    44  ASN44       0.1653
     21  C        -36.0110   27.9350   16.9710 C.2    44  ASN44       0.2266
     22  O        -34.8000   27.9310   17.2820 O.2    44  ASN44      -0.2867
     23  CB       -36.0700   25.4410   17.1680 C.3    44  ASN44       0.1155
     24  CG       -36.1990   25.4640   18.6880 C.2    44  ASN44       0.2627
     25  OD1      -36.8360   26.3340   19.2710 O.2    44  ASN44      -0.2716
     26  ND2      -35.5570   24.5130   19.3290 N.am   44  ASN44      -0.0877
     27  N        -36.1080   29.6170   19.7360 N.3    46  ARG46      -0.1245
     28  CA       -35.5930   29.5370   21.0780 C.3    46  ARG46       0.1563
     29  C        -34.2520   28.8130   21.0760 C.2    46  ARG46       0.2260
     30  O        -33.3350   29.1890   21.7750 O.2    46  ARG46      -0.2867
     31  CB       -36.6070   28.8340   21.9660 C.3    46  ARG46       0.0307
     32  CG       -36.2010   28.7470   23.4240 C.3    46  ARG46       0.0489
     33  CD       -37.3560   28.2120   24.2070 C.3    46  ARG46       0.2205
     34  NE       -37.0130   28.0140   25.6000 N.pl3  46  ARG46      -0.0865
     35  CZ       -37.6380   27.1610   26.4050 C.cat  46  ARG46       0.5346
     36  NH1      -38.6430   26.4110   25.9490 N.pl3  46  ARG46       0.1354
     37  NH2      -37.2430   27.0360   27.6590 N.pl3  46  ARG46       0.1354
     38  N        -30.5140   29.8750   22.2310 N.3    50  TRP50      -0.1241
     39  CA       -29.5980   29.0750   23.0350 C.3    50  TRP50       0.1605
     40  C        -28.2170   29.0440   22.4050 C.2    50  TRP50       0.2264
     41  O        -27.2080   29.1950   23.0980 O.2    50  TRP50      -0.2867
     42  CB       -30.1030   27.6600   23.2100 C.3    50  TRP50       0.0550
     43  CG       -31.3510   27.5650   23.9610 C.ar   50  TRP50       0.0003
     44  CD1      -31.9540   28.5330   24.6760 C.ar   50  TRP50       0.0946
     45  CD2      -32.1330   26.3910   24.1330 C.ar   50  TRP50       0.0152
     46  NE1      -33.0910   28.0460   25.2610 N.ar   50  TRP50      -0.2442
     47  CE2      -33.2140   26.7250   24.9370 C.ar   50  TRP50       0.0810
     48  CE3      -32.0190   25.0810   23.6690 C.ar   50  TRP50       0.0012
     49  CZ2      -34.1820   25.8040   25.2950 C.ar   50  TRP50       0.0191
     50  CZ3      -32.9690   24.1780   24.0210 C.ar   50  TRP50       0.0001
     51  CH2      -34.0520   24.5430   24.7990 C.ar   50  TRP50       0.0015
     52  N        -33.0530   18.1440   16.8030 N.3    82  ASN82      -0.1240
     53  CA       -33.6080   17.2590   17.8200 C.3    82  ASN82       0.1653
     54  C        -33.5840   15.7930   17.4770 C.2    82  ASN82       0.2266
     55  O        -34.4630   15.0790   17.9000 O.2    82  ASN82      -0.2867
     56  CB       -35.0670   17.6070   18.1020 C.3    82  ASN82       0.1155
     57  CG       -35.2190   18.5860   19.2110 C.2    82  ASN82       0.2627
     58  OD1      -34.4190   18.6280   20.1620 O.2    82  ASN82      -0.2716
     59  ND2      -36.2520   19.3900   19.1150 N.am   82  ASN82      -0.0877
     60  N        -29.7140   18.8220   23.7630 N.3   110  THR110     -0.1203
     61  CA       -30.9370   19.1520   24.4840 C.3   110  THR110      0.1994
     62  C        -31.7260   17.9280   24.9780 C.2   110  THR110      0.2618
     63  O        -31.8280   17.7030   26.1830 O.2   110  THR110     -0.2717
     64  CB       -31.8430   20.0370   23.6170 C.3   110  THR110      0.1784
     65  OG1      -31.1480   21.2560   23.3450 O.3   110  THR110     -0.2211
     66  CG2      -33.1750   20.3630   24.3380 C.3   110  THR110      0.0376
     67  N        -32.3190   17.1650   24.0610 N.am  111  GLY111     -0.1942
     68  CA       -33.0830   15.9860   24.4360 C.3   111  GLY111      0.2014
     69  C        -32.1860   14.8910   25.0370 C.2   111  GLY111      0.2639
     70  O        -31.0880   14.6340   24.5230 O.2   111  GLY111     -0.2714
     71  N        -32.6550   14.2280   26.0990 N.am  112  SER112     -0.1949
     72  CA       -31.8410   13.1980   26.7770 C.3   112  SER112      0.1924
     73  C        -31.4840   12.0470   25.8770 C.2   112  SER112      0.2314
     74  O        -30.3900   11.5150   25.9870 O.2   112  SER112     -0.2863
     75  CB       -32.5230   12.6630   28.0300 C.3   112  SER112      0.2116
     76  OG       -32.4400   13.6130   29.0520 O.3   112  SER112     -0.2180
     77  N        -29.4470   21.0570   28.9890 N.3   133  ALA133     -0.1231
     78  CA       -30.8720   20.7070   29.1030 C.3   133  ALA133      0.1694
     79  C        -31.2700   19.2460   29.2980 C.2   133  ALA133      0.2593
     80  O        -32.4270   18.9720   29.5770 O.2   133  ALA133     -0.2718
     81  CB       -31.6050   21.2610   27.8950 C.3   133  ALA133      0.0304
     82  N        -30.3590   18.2950   29.1240 N.am  134  SER134     -0.1938
     83  CA       -30.7240   16.8830   29.2160 C.3   134  SER134      0.2055
     84  C        -30.8060   16.4870   30.6750 C.2   134  SER134      0.2643
     85  O        -29.7860   16.4230   31.3780 O.2   134  SER134     -0.2714
     86  CB       -29.6950   16.0020   28.4900 C.3   134  SER134      0.2130
     87  OG       -29.6880   16.3130   27.1120 O.3   134  SER134     -0.2179
     88  N        -32.0120   16.1880   31.1180 N.am  135  SER135     -0.1949
     89  CA       -32.2820   16.0040   32.5270 C.3   135  SER135      0.1924
     90  C        -32.5640   14.5770   32.9540 C.2   135  SER135      0.2314
     91  O        -32.7870   14.3290   34.1410 O.2   135  SER135     -0.2863
     92  CB       -33.4640   16.8940   32.9290 C.3   135  SER135      0.2116
     93  OG       -34.5990   16.6430   32.1010 O.3   135  SER135     -0.2180
     94  N        -27.9980   21.4300   34.2590 N.3   152  ILE152     -0.1245
     95  CA       -29.4250   21.3460   34.5870 C.3   152  ILE152      0.1561
     96  C        -29.5950   20.2070   35.5760 C.2   152  ILE152      0.2260
     97  O        -28.8830   19.2150   35.4700 O.2   152  ILE152     -0.2867
     98  CB       -30.2800   21.0800   33.3420 C.3   152  ILE152      0.0252
     99  CG1      -31.7610   21.2170   33.6820 C.3   152  ILE152      0.0019
    100  CG2      -30.0140   19.6890   32.7470 C.3   152  ILE152      0.0019
    101  CD1      -32.6700   21.2760   32.4760 C.3   152  ILE152      0.0001
    102  N        -36.4290   10.7110   28.2900 N.3   183  TYR183     -0.1241
    103  CA       -36.8420   11.7900   29.1590 C.3   183  TYR183      0.1605
    104  C        -38.1810   11.4200   29.8280 C.2   183  TYR183      0.2264
    105  O        -38.2730   11.3150   31.0460 O.2   183  TYR183     -0.2867
    106  CB       -36.9370   13.0960   28.3770 C.3   183  TYR183      0.0534
    107  CG       -37.6010   14.2670   29.1020 C.ar  183  TYR183     -0.0201
    108  CD1      -37.0130   14.8310   30.1990 C.ar  183  TYR183     -0.0009
    109  CD2      -38.8210   14.8030   28.6410 C.ar  183  TYR183     -0.0009
    110  CE1      -37.6050   15.9000   30.8560 C.ar  183  TYR183      0.0417
    111  CE2      -39.4200   15.8900   29.2640 C.ar  183  TYR183      0.0417
    112  CZ       -38.8060   16.4230   30.3790 C.ar  183  TYR183      0.1957
    113  OH       -39.3780   17.4700   31.0140 O.3   183  TYR183     -0.2866
    114  N        -41.4530   16.5650   26.0880 N.3   236  SER236     -0.1217
    115  CA       -41.0840   17.7530   25.3480 C.3   236  SER236      0.1889
    116  C        -42.3110   18.2750   24.5940 C.2   236  SER236      0.2288
    117  O        -43.3150   17.5590   24.4130 O.2   236  SER236     -0.2866
    118  CB       -39.9760   17.4360   24.3380 C.3   236  SER236      0.2089
    119  OG       -40.4840   16.5860   23.3110 O.3   236  SER236     -0.2183
    120  N        -42.4180   19.0360   21.2690 N.3   238  PRO238     -0.2116
    121  CA       -42.6380   18.3290   20.0110 C.3   238  PRO238      0.1372
    122  C        -43.3280   16.9900   20.1730 C.2   238  PRO238      0.2244
    123  O        -44.1620   16.6060   19.3400 O.2   238  PRO238     -0.2868
    124  CB       -41.2150   18.1740   19.4430 C.3   238  PRO238      0.0268
    125  CG       -40.4670   19.3170   20.0270 C.3   238  PRO238      0.0207
    126  CD       -41.0240   19.4880   21.4100 C.3   238  PRO238      0.0892
    127  N        -40.8870   20.3350   32.7830 N.3   261  GLU261     -0.1231
    128  CA       -40.1940   21.5480   32.4890 C.3   261  GLU261      0.1699
    129  C        -39.9380   21.7280   30.9910 C.2   261  GLU261      0.2592
    130  O        -39.8490   22.8520   30.5070 O.2   261  GLU261     -0.2718
    131  CB       -38.9010   21.5150   33.2910 C.3   261  GLU261      0.0402
    132  CG       -38.0120   22.6950   33.0960 C.3   261  GLU261      0.1161
    133  CD       -37.0740   22.5130   31.9330 C.2   261  GLU261      0.3649
    134  OE1      -36.7250   21.3490   31.6300 O.co2 261  GLU261     -0.2457
    135  OE2      -36.6970   23.5420   31.3200 O.co2 261  GLU261     -0.2457
    136  N        -39.8590   20.6220   30.2570 N.am  262  ALA262     -0.1980
    137  CA       -39.5910   20.6960   28.8260 C.3   262  ALA262      0.1597
    138  C        -40.7530   21.2520   28.0110 C.2   262  ALA262      0.2287
    139  O        -40.5090   21.8710   26.9820 O.2   262  ALA262     -0.2864
    140  CB       -39.1840   19.3450   28.2700 C.3   262  ALA262      0.0319
    141  N        -43.0920   25.7000   26.4400 N.3   266  SER266     -0.1217
    142  CA       -42.9270   25.4330   25.0260 C.3   266  SER266      0.1889
    143  C        -43.9100   26.2410   24.1980 C.2   266  SER266      0.2288
    144  O        -45.1150   26.1350   24.4070 O.2   266  SER266     -0.2866
    145  CB       -43.1340   23.9570   24.7400 C.3   266  SER266      0.2089
    146  OG       -43.2540   23.7520   23.3570 O.3   266  SER266     -0.2183
    147  N        -32.9300   28.0440   30.2640 N.3   351  ILE351     -0.1245
    148  CA       -32.0250   27.1660   29.5340 C.3   351  ILE351      0.1561
    149  C        -30.8740   27.9840   28.9500 C.2   351  ILE351      0.2260
    150  O        -29.7470   27.5280   28.9130 O.2   351  ILE351     -0.2867
    151  CB       -32.7230   26.3740   28.4120 C.3   351  ILE351      0.0252
    152  CG1      -33.8840   25.5220   28.9500 C.3   351  ILE351      0.0019
    153  CG2      -31.7370   25.5070   27.6580 C.3   351  ILE351      0.0019
    154  CD1      -33.4700   24.4490   29.9000 C.3   351  ILE351      0.0001
@<TRIPOS>BOND
     1     8     9    1
     2    19    20    1
     3    10     9    1
     4    10    11    2
     5     9    12    1
     6    12    13    1
     7    20    21    1
     8    20    23    1
     9    15    13   ar
    10    15    17   ar
    11    52    53    1
    12    21    22    2
    13    13    14   ar
    14    23    24    1
    15    17    18   ar
    16     3     4    2
    17     3     2    1
    18    54    53    1
    19    54    55    2
    20    53    56    1
    21    56    57    1
    22     2     1    1
    23     2     5    1
    24    14    16   ar
    25    24    25    2
    26    24    26   am
    27    18    16   ar
    28     1     7    1
    29     5     6    1
    30    59    57   am
    31    57    58    2
    32   123   122    2
    33   124   121    1
    34   124   125    1
    35    27    28    1
    36   121   122    1
    37   121   120    1
    38   125   126    1
    39     7     6    1
    40    29    28    1
    41    29    30    2
    42    28    31    1
    43   120   126    1
    44    31    32    1
    45    38    39    1
    46    40    39    1
    47    40    41    2
    48    39    42    1
    49    42    43    1
    50   119   118    1
    51    65    64    1
    52   146   145    1
    53    32    33    1
    54    64    66    1
    55    64    61    1
    56    48    50   ar
    57    48    45   ar
    58    60    61    1
    59    43    45   ar
    60    43    44   ar
    61    50    51   ar
    62    67    68    1
    63    67    62   am
    64    45    47   ar
    65   143   144    2
    66   143   142    1
    67    33    34    1
    68   118   115    1
    69   117   116    2
    70    68    69    1
    71    61    62    1
    72    70    69    2
    73   116   115    1
    74    44    46   ar
    75   145   142    1
    76    51    49   ar
    77    47    46   ar
    78    47    49   ar
    79    62    63    2
    80   142   141    1
    81    69    71   am
    82   115   114    1
    83    34    35    2
    84    73    74    2
    85    73    72    1
    86    36    35    1
    87    71    72    1
    88    35    37    1
    89    72    75    1
    90   139   138    2
    91    87    86    1
    92   153   151    1
    93    81    78    1
    94   138   137    1
    95    75    76    1
    96   140   137    1
    97   102   103    1
    98   106   107    1
    99   106   103    1
   100   151   152    1
   101   151   148    1
   102    86    83    1
   103   109   107   ar
   104   109   111   ar
   105   137   136    1
   106   150   149    2
   107   152   154    1
   108   149   148    1
   109    77    78    1
   110   107   108   ar
   111    78    79    1
   112    82    83    1
   113    82    79   am
   114   103   104    1
   115    83    84    1
   116   111   112   ar
   117    79    80    2
   118   148   147    1
   119   104   105    2
   120   108   110   ar
   121   136   129   am
   122   112   110   ar
   123   112   113    1
   124   130   129    2
   125    84    88   am
   126    84    85    2
   127   129   128    1
   128    88    89    1
   129   135   133   ar
   130   134   133   ar
   131   133   132    1
   132    93    92    1
   133   101    99    1
   134   128   127    1
   135   128   131    1
   136    89    92    1
   137    89    90    1
   138   100    98    1
   139    90    91    2
   140   132   131    1
   141    98    99    1
   142    98    95    1
   143    94    95    1
   144    95    96    1
   145    97    96    2
