@<TRIPOS>MOLECULE
tmp/5fblA00.pdb
 214 202 0 0 0
SMALL
GASTEIGER

@<TRIPOS>ATOM
      1  N         29.6720   45.0990  139.1580 N.3   174  LEU174     -0.1231
      2  CA        29.8230   43.6480  139.1840 C.3   174  LEU174      0.1693
      3  C         31.1040   43.1500  139.8650 C.2   174  LEU174      0.2592
      4  O         31.1480   42.0110  140.3300 O.2   174  LEU174     -0.2718
      5  CB        29.7520   43.1020  137.7550 C.3   174  LEU174      0.0284
      6  CG        28.4100   43.3510  137.0600 C.3   174  LEU174      0.0019
      7  CD1       28.4550   42.9150  135.6030 C.3   174  LEU174      0.0001
      8  CD2       27.2770   42.6540  137.8010 C.3   174  LEU174      0.0001
      9  N         32.1390   43.9830  139.9300 N.am  175  ASN175     -0.1974
     10  CA        33.3150   43.6300  140.7230 C.3   175  ASN175      0.1688
     11  C         34.0910   44.8190  141.2980 C.2   175  ASN175      0.2292
     12  O         33.7650   45.9780  141.0410 O.2   175  ASN175     -0.2864
     13  CB        34.2560   42.7480  139.8930 C.3   175  ASN175      0.1181
     14  CG        34.7290   43.4210  138.6170 C.2   175  ASN175      0.2629
     15  OD1       34.9190   44.6340  138.5680 O.2   175  ASN175     -0.2716
     16  ND2       34.9230   42.6240  137.5720 N.am  175  ASN175     -0.0877
     17  N         37.3260   45.4940  140.7480 N.3   177  LYS177     -0.1245
     18  CA        38.5410   45.7690  139.9820 C.3   177  LYS177      0.1561
     19  C         38.7040   47.2460  139.6170 C.2   177  LYS177      0.2260
     20  O         37.7680   48.0390  139.7210 O.2   177  LYS177     -0.2867
     21  CB        38.5650   44.9420  138.6940 C.3   177  LYS177      0.0271
     22  CG        38.4480   43.4350  138.8710 C.3   177  LYS177      0.0035
     23  CD        39.1940   42.7170  137.7530 C.3   177  LYS177      0.0206
     24  CE        38.8830   41.2300  137.7200 C.3   177  LYS177      0.1093
     25  NZ        38.5190   40.7960  136.3390 N.3   177  LYS177     -0.1314
     26  N         33.4530   46.7670  135.3260 N.3   181  PRO181     -0.2116
     27  CA        32.2690   46.9500  134.4850 C.3   181  PRO181      0.1372
     28  C         31.0280   47.1000  135.3510 C.2   181  PRO181      0.2244
     29  O         31.0350   46.6480  136.4950 O.2   181  PRO181     -0.2868
     30  CB        32.2330   45.6620  133.6630 C.3   181  PRO181      0.0268
     31  CG        32.8080   44.6370  134.5900 C.3   181  PRO181      0.0207
     32  CD        33.8580   45.3520  135.4130 C.3   181  PRO181      0.0892
     33  N         26.4860   47.1360  135.4330 N.3   183  LEU183     -0.1245
     34  CA        25.2410   46.7760  134.7700 C.3   183  LEU183      0.1561
     35  C         24.2080   47.8470  135.0760 C.2   183  LEU183      0.2260
     36  O         24.0780   48.2790  136.2220 O.2   183  LEU183     -0.2867
     37  CB        24.7530   45.4030  135.2440 C.3   183  LEU183      0.0270
     38  CG        23.5010   44.8150  134.5890 C.3   183  LEU183      0.0019
     39  CD1       23.6330   43.3080  134.4390 C.3   183  LEU183      0.0001
     40  CD2       22.2640   45.1680  135.3980 C.3   183  LEU183      0.0001
     41  N         20.0010   49.2970  134.0920 N.3   185  TYR185     -0.1241
     42  CA        18.7230   49.1390  133.4210 C.3   185  TYR185      0.1605
     43  C         18.2760   50.4550  132.8020 C.2   185  TYR185      0.2264
     44  O         18.4400   51.5220  133.3930 O.2   185  TYR185     -0.2867
     45  CB        17.6740   48.6100  134.4010 C.3   185  TYR185      0.0534
     46  CG        18.0860   47.3140  135.0570 C.ar  185  TYR185     -0.0201
     47  CD1       18.8530   47.3110  136.2150 C.ar  185  TYR185     -0.0009
     48  CD2       17.7240   46.0900  134.5100 C.ar  185  TYR185     -0.0009
     49  CE1       19.2380   46.1260  136.8180 C.ar  185  TYR185      0.0417
     50  CE2       18.1050   44.8990  135.1050 C.ar  185  TYR185      0.0417
     51  CZ        18.8610   44.9220  136.2570 C.ar  185  TYR185      0.1957
     52  OH        19.2430   43.7400  136.8450 O.3   185  TYR185     -0.2866
     53  N         16.4780   38.9330  142.1400 N.3   211  GLU211     -0.1245
     54  CA        15.1580   38.5140  141.6780 C.3   211  GLU211      0.1567
     55  C         15.1480   38.1890  140.1880 C.2   211  GLU211      0.2260
     56  O         15.9410   38.7440  139.4240 O.2   211  GLU211     -0.2867
     57  CB        14.1310   39.6040  141.9740 C.3   211  GLU211      0.0388
     58  CG        14.4000   40.9080  141.2410 C.3   211  GLU211      0.1160
     59  CD        13.4730   42.0250  141.6750 C.2   211  GLU211      0.3649
     60  OE1       12.4920   41.7400  142.3940 O.co2 211  GLU211     -0.2457
     61  OE2       13.7240   43.1880  141.2960 O.co2 211  GLU211     -0.2457
     62  N         13.9430   38.1050  136.2010 N.3   213  TRP213     -0.1241
     63  CA        13.9160   39.2720  135.3210 C.3   213  TRP213      0.1605
     64  C         12.5410   39.9480  135.2510 C.2   213  TRP213      0.2264
     65  O         12.4440   41.1740  135.3000 O.2   213  TRP213     -0.2867
     66  CB        14.3700   38.8830  133.9140 C.3   213  TRP213      0.0550
     67  CG        13.9690   39.8730  132.8690 C.ar  213  TRP213      0.0003
     68  CD1       12.9340   39.7700  131.9890 C.ar  213  TRP213      0.0946
     69  CD2       14.6050   41.1270  132.5970 C.ar  213  TRP213      0.0152
     70  NE1       12.8850   40.8830  131.1840 N.ar  213  TRP213     -0.2442
     71  CE2       13.9020   41.7320  131.5380 C.ar  213  TRP213      0.0810
     72  CE3       15.7030   41.7960  133.1470 C.ar  213  TRP213      0.0012
     73  CZ2       14.2590   42.9740  131.0190 C.ar  213  TRP213      0.0191
     74  CZ3       16.0570   43.0290  132.6300 C.ar  213  TRP213      0.0001
     75  CH2       15.3370   43.6050  131.5770 C.ar  213  TRP213      0.0015
     76  N         25.5620   46.0840  129.9710 N.3   238  ILE238     -0.1245
     77  CA        26.7600   46.1560  130.7880 C.3   238  ILE238      0.1561
     78  C         27.7200   47.1480  130.1520 C.2   238  ILE238      0.2260
     79  O         27.9450   47.1120  128.9430 O.2   238  ILE238     -0.2867
     80  CB        27.4370   44.7810  130.9200 C.3   238  ILE238      0.0252
     81  CG1       26.4980   43.7860  131.6080 C.3   238  ILE238      0.0019
     82  CG2       28.7580   44.9040  131.6610 C.3   238  ILE238      0.0019
     83  CD1       27.1790   42.5130  132.0630 C.3   238  ILE238      0.0001
     84  N         31.4740   48.5190  129.8150 N.3   240  LYS240     -0.1245
     85  CA        32.8960   48.2680  130.0100 C.3   240  LYS240      0.1561
     86  C         33.7120   49.4530  129.5150 C.2   240  LYS240      0.2260
     87  O         33.8730   49.6480  128.3090 O.2   240  LYS240     -0.2867
     88  CB        33.3190   46.9830  129.2950 C.3   240  LYS240      0.0271
     89  CG        32.4460   45.7830  129.6220 C.3   240  LYS240      0.0035
     90  CD        33.0250   44.5070  129.0390 C.3   240  LYS240      0.0206
     91  CE        34.3970   44.2140  129.6250 C.3   240  LYS240      0.1093
     92  NZ        34.3190   43.4780  130.9150 N.3   240  LYS240     -0.1314
     93  N         36.7010   45.1420  123.2160 N.3   245  LEU245     -0.1245
     94  CA        35.6500   44.1880  122.8780 C.3   245  LEU245      0.1561
     95  C         35.6960   43.7150  121.4280 C.2   245  LEU245      0.2260
     96  O         34.7070   43.1930  120.9140 O.2   245  LEU245     -0.2867
     97  CB        34.2750   44.7970  123.1650 C.3   245  LEU245      0.0270
     98  CG        33.9080   45.1090  124.6180 C.3   245  LEU245      0.0019
     99  CD1       32.4390   44.8080  124.8630 C.3   245  LEU245      0.0001
    100  CD2       34.7780   44.3260  125.5860 C.3   245  LEU245      0.0001
    101  N         35.8820   40.1800  121.4620 N.3   248  GLU248     -0.1245
    102  CA        34.5930   39.7520  122.0030 C.3   248  GLU248      0.1567
    103  C         33.5470   39.6870  120.8960 C.2   248  GLU248      0.2260
    104  O         32.7450   38.7540  120.8180 O.2   248  GLU248     -0.2867
    105  CB        34.1290   40.6860  123.1210 C.3   248  GLU248      0.0388
    106  CG        33.1430   40.0430  124.0830 C.3   248  GLU248      0.1160
    107  CD        33.7880   38.9940  124.9690 C.2   248  GLU248      0.3649
    108  OE1       35.0130   39.0760  125.1960 O.co2 248  GLU248     -0.2457
    109  OE2       33.0690   38.0840  125.4340 O.co2 248  GLU248     -0.2457
    110  N         25.8970   36.6840  123.0160 N.3   274  TYR274     -0.1241
    111  CA        25.3760   37.9080  123.6120 C.3   274  TYR274      0.1605
    112  C         25.9160   39.0900  122.8260 C.2   274  TYR274      0.2264
    113  O         27.0980   39.1430  122.4840 O.2   274  TYR274     -0.2867
    114  CB        25.7360   38.0200  125.1000 C.3   274  TYR274      0.0534
    115  CG        27.1800   37.7270  125.4340 C.ar  274  TYR274     -0.0201
    116  CD1       28.1460   38.7240  125.3730 C.ar  274  TYR274     -0.0009
    117  CD2       27.5770   36.4560  125.8240 C.ar  274  TYR274     -0.0009
    118  CE1       29.4650   38.4630  125.6900 C.ar  274  TYR274      0.0417
    119  CE2       28.8940   36.1830  126.1350 C.ar  274  TYR274      0.0417
    120  CZ        29.8330   37.1910  126.0680 C.ar  274  TYR274      0.1957
    121  OH        31.1470   36.9270  126.3710 O.3   274  TYR274     -0.2866
    122  N         27.7200   45.5780  126.5330 N.3   286  ILE286     -0.1245
    123  CA        27.1810   44.2340  126.3470 C.3   286  ILE286      0.1561
    124  C         25.7120   44.0950  126.7450 C.2   286  ILE286      0.2260
    125  O         25.2990   44.5740  127.7990 O.2   286  ILE286     -0.2867
    126  CB        27.9890   43.2040  127.1570 C.3   286  ILE286      0.0252
    127  CG1       29.3550   42.9620  126.5120 C.3   286  ILE286      0.0019
    128  CG2       27.2130   41.9020  127.2920 C.3   286  ILE286      0.0019
    129  CD1       30.3510   42.2910  127.4270 C.3   286  ILE286      0.0001
    130  N         23.2270   41.8770  128.3690 N.3   288  PRO288     -0.2102
    131  CA        23.4040   40.7570  129.2940 C.3   288  PRO288      0.1504
    132  C         22.3230   39.6920  129.1590 C.2   288  PRO288      0.2576
    133  O         21.2020   39.9880  128.7430 O.2   288  PRO288     -0.2718
    134  CB        23.3340   41.4350  130.6610 C.3   288  PRO288      0.0282
    135  CG        22.4060   42.5870  130.4510 C.3   288  PRO288      0.0208
    136  CD        22.5560   43.0220  129.0100 C.3   288  PRO288      0.0893
    137  N         22.6740   38.4600  129.5100 N.am  289  VAL289     -0.1966
    138  CA        21.6970   37.3900  129.6610 C.3   289  VAL289      0.1727
    139  C         20.9690   37.5760  130.9810 C.2   289  VAL289      0.2616
    140  O         21.6040   37.6890  132.0300 O.2   289  VAL289     -0.2715
    141  CB        22.3600   36.0030  129.6170 C.3   289  VAL289      0.0290
    142  CG1       21.3750   34.9280  130.0470 C.3   289  VAL289      0.0023
    143  CG2       22.8980   35.7140  128.2260 C.3   289  VAL289      0.0023
    144  N         19.6420   37.6150  130.9360 N.am  290  VAL290     -0.1963
    145  CA        18.8640   37.6610  132.1620 C.3   290  VAL290      0.1727
    146  C         18.5440   36.2730  132.7050 C.2   290  VAL290      0.2616
    147  O         18.6810   35.2710  132.0030 O.2   290  VAL290     -0.2715
    148  CB        17.5400   38.4130  131.9440 C.3   290  VAL290      0.0290
    149  CG1       17.8100   39.8490  131.5250 C.3   290  VAL290      0.0023
    150  CG2       16.6980   37.7030  130.8960 C.3   290  VAL290      0.0023
    151  N         18.1090   36.2320  133.9630 N.am  291  ASN291     -0.1958
    152  CA        17.8380   34.9760  134.6570 C.3   291  ASN291      0.1819
    153  C         19.0550   34.0570  134.6800 C.2   291  ASN291      0.2621
    154  O         18.9410   32.8630  134.4060 O.2   291  ASN291     -0.2715
    155  CB        16.6510   34.2580  134.0120 C.3   291  ASN291      0.1195
    156  CG        15.3320   34.9580  134.2800 C.2   291  ASN291      0.2630
    157  OD1       15.2140   35.7380  135.2230 O.2   291  ASN291     -0.2716
    158  ND2       14.3340   34.6790  133.4520 N.am  291  ASN291     -0.0877
    159  N         20.2190   34.6060  135.0120 N.am  292  ALA292     -0.1963
    160  CA        21.4300   33.7950  135.0880 C.3   292  ALA292      0.1728
    161  C         22.4550   34.3340  136.0820 C.2   292  ALA292      0.2616
    162  O         22.6160   35.5470  136.2300 O.2   292  ALA292     -0.2715
    163  CB        22.0620   33.6740  133.7100 C.3   292  ALA292      0.0334
    164  N         23.1450   33.4180  136.7550 N.am  293  VAL293     -0.1977
    165  CA        24.2200   33.7770  137.6730 C.3   293  VAL293      0.1596
    166  C         25.3380   32.7420  137.6100 C.2   293  VAL293      0.2287
    167  O         25.1130   31.5880  137.2470 O.2   293  VAL293     -0.2864
    168  CB        23.7190   33.8940  139.1260 C.3   293  VAL293      0.0276
    169  CG1       22.7670   35.0710  139.2720 C.3   293  VAL293      0.0022
    170  CG2       23.0520   32.5990  139.5620 C.3   293  VAL293      0.0022
    171  N         33.6990   30.7310  137.5010 N.3   351  GLY351     -0.1210
    172  CA        33.4800   32.1630  137.4000 C.3   351  GLY351      0.1956
    173  C         33.0910   32.6610  136.0200 C.2   351  GLY351      0.2611
    174  O         32.4710   33.7150  135.8830 O.2   351  GLY351     -0.2717
    175  N         33.4530   31.8960  134.9950 N.am  352  ASN352     -0.1974
    176  CA        33.1760   32.2650  133.6070 C.3   352  ASN352      0.1688
    177  C         32.0200   31.5070  132.9680 C.2   352  ASN352      0.2292
    178  O         31.7510   31.6610  131.7790 O.2   352  ASN352     -0.2864
    179  CB        34.4350   32.0730  132.7590 C.3   352  ASN352      0.1181
    180  CG        35.5130   33.0890  133.0810 C.2   352  ASN352      0.2629
    181  OD1       35.2210   34.2330  133.4350 O.2   352  ASN352     -0.2716
    182  ND2       36.7690   32.6760  132.9550 N.am  352  ASN352     -0.0877
    183  N         27.9050   30.7940  133.3440 N.3   354  LEU354     -0.1245
    184  CA        26.6500   31.1640  133.9830 C.3   354  LEU354      0.1561
    185  C         25.6570   30.0150  133.8840 C.2   354  LEU354      0.2260
    186  O         25.6970   29.2230  132.9440 O.2   354  LEU354     -0.2867
    187  CB        26.0680   32.4240  133.3360 C.3   354  LEU354      0.0270
    188  CG        26.5620   33.7760  133.8520 C.3   354  LEU354      0.0019
    189  CD1       28.0560   33.7320  134.1300 C.3   354  LEU354      0.0001
    190  CD2       26.2350   34.8780  132.8550 C.3   354  LEU354      0.0001
    191  N         26.2800   28.9100  130.2930 N.3   362  ILE362     -0.1245
    192  CA        26.6810   29.9410  129.3410 C.3   362  ILE362      0.1561
    193  C         28.0940   30.4460  129.6110 C.2   362  ILE362      0.2260
    194  O         28.3590   31.0240  130.6640 O.2   362  ILE362     -0.2867
    195  CB        25.7080   31.1370  129.3700 C.3   362  ILE362      0.0252
    196  CG1       24.3040   30.6930  128.9600 C.3   362  ILE362      0.0019
    197  CG2       26.2140   32.2540  128.4740 C.3   362  ILE362      0.0019
    198  CD1       23.2350   31.7450  129.1850 C.3   362  ILE362      0.0001
    199  N         31.2720   32.9790  129.1090 N.3   364  ILE364     -0.1231
    200  CA        31.2280   34.4270  128.9140 C.3   364  ILE364      0.1692
    201  C         32.5520   35.1330  128.6120 C.2   364  ILE364      0.2592
    202  O         32.5660   36.0920  127.8390 O.2   364  ILE364     -0.2718
    203  CB        30.6120   35.1080  130.1520 C.3   364  ILE364      0.0266
    204  CG1       31.4700   34.8500  131.3910 C.3   364  ILE364      0.0019
    205  CG2       29.1990   34.6040  130.3820 C.3   364  ILE364      0.0020
    206  CD1       31.0630   35.6720  132.5960 C.3   364  ILE364      0.0001
    207  N         33.6650   34.6880  129.1900 N.am  365  ASP365     -0.1974
    208  CA        34.8920   35.4670  129.0310 C.3   365  ASP365      0.1709
    209  C         35.7660   34.9110  127.9120 C.2   365  ASP365      0.2293
    210  O         36.5680   34.0000  128.1210 O.2   365  ASP365     -0.2864
    211  CB        35.6800   35.5000  130.3410 C.3   365  ASP365      0.1436
    212  CG        36.5050   36.7640  130.4950 C.2   365  ASP365      0.3671
    213  OD1       37.0520   37.2450  129.4820 O.co2 365  ASP365     -0.2456
    214  OD2       36.6100   37.2710  131.6320 O.co2 365  ASP365     -0.2456
@<TRIPOS>BOND
     1   104   103    2
     2   103   102    1
     3    96    95    2
     4    95    94    1
     5   101   102    1
     6   102   105    1
     7   113   112    2
     8   112   111    1
     9    94    97    1
    10    94    93    1
    11   110   111    1
    12   105   106    1
    13    97    98    1
    14   111   114    1
    15   106   107    1
    16    98    99    1
    17    98   100    1
    18   107   108   ar
    19   107   109   ar
    20   114   115    1
    21   116   115   ar
    22   116   118   ar
    23   115   117   ar
    24   118   120   ar
    25   117   119   ar
    26   120   119   ar
    27   120   121    1
    28   123   122    1
    29   123   124    1
    30   123   126    1
    31   127   126    1
    32   127   129    1
    33   124   125    2
    34   126   128    1
    35   202   201    2
    36   209   210    2
    37   209   208    1
    38   143   141    1
    39    87    86    2
    40   130   136    1
    41   130   131    1
    42   197   195    1
    43   201   200    1
    44   201   207   am
    45   133   132    2
    46   200   199    1
    47   200   203    1
    48    79    78    2
    49   196   198    1
    50   196   195    1
    51   136   135    1
    52   208   207    1
    53   208   211    1
    54    90    89    1
    55    90    91    1
    56   132   131    1
    57   132   137   am
    58   131   134    1
    59    88    89    1
    60    88    85    1
    61   192   195    1
    62   192   193    1
    63   192   191    1
    64   213   212   ar
    65   137   138    1
    66    86    85    1
    67   193   194    2
    68   141   138    1
    69   141   142    1
    70    91    92    1
    71   138   139    1
    72    84    85    1
    73    76    77    1
    74   203   205    1
    75   203   204    1
    76    78    77    1
    77   211   212    1
    78   135   134    1
    79   212   214   ar
    80    77    80    1
    81   150   148    1
    82    80    81    1
    83    80    82    1
    84   144   139   am
    85   144   145    1
    86   139   140    2
    87    73    71   ar
    88    73    75   ar
    89    70    71   ar
    90    70    68   ar
    91   204   206    1
    92   149   148    1
    93    71    69   ar
    94    75    74   ar
    95    81    83    1
    96   178   177    2
    97   148   145    1
    98    68    67   ar
    99   147   146    2
   100   145   146    1
   101    69    67   ar
   102    69    72   ar
   103    74    72   ar
   104   146   151   am
   105   179   180    1
   106   179   176    1
   107    43    44    2
   108    43    42    1
   109   190   188    1
   110    67    66    1
   111   186   185    2
   112   182   180   am
   113   177   176    1
   114   180   181    2
   115   187   188    1
   116   187   184    1
   117   183   184    1
   118    42    41    1
   119    42    45    1
   120   158   156   am
   121   176   175    1
   122    30    27    1
   123    30    31    1
   124   163   160    1
   125   188   189    1
   126   185   184    1
   127    66    63    1
   128   151   152    1
   129   155   156    1
   130   155   152    1
   131   156   157    2
   132    45    46    1
   133   154   153    2
   134    39    38    1
   135    27    26    1
   136    27    28    1
   137    48    46   ar
   138    48    50   ar
   139    38    37    1
   140    38    40    1
   141    31    32    1
   142   152   153    1
   143   153   159   am
   144    34    35    1
   145    34    37    1
   146    34    33    1
   147   175   173   am
   148   159   160    1
   149    46    47   ar
   150    35    36    2
   151   160   161    1
   152    50    51   ar
   153    64    65    2
   154    64    63    1
   155    63    62    1
   156    26    32    1
   157    28    29    2
   158     7     6    1
   159   174   173    2
   160   173   172    1
   161   161   162    2
   162   161   164   am
   163    47    49   ar
   164    51    49   ar
   165    51    52    1
   166    25    24    1
   167   164   165    1
   168     6     5    1
   169     6     8    1
   170   167   166    2
   171   172   171    1
   172    16    14   am
   173   166   165    1
   174   165   168    1
   175    24    23    1
   176    23    22    1
   177     5     2    1
   178    15    14    2
   179    14    13    1
   180    21    22    1
   181    21    18    1
   182   168   169    1
   183   168   170    1
   184     1     2    1
   185     2     3    1
   186    56    55    2
   187    19    20    2
   188    19    18    1
   189     3     9   am
   190     3     4    2
   191    13    10    1
   192     9    10    1
   193    18    17    1
   194    55    54    1
   195    10    11    1
   196    12    11    2
   197    58    59    1
   198    58    57    1
   199    61    59   ar
   200    59    60   ar
   201    54    57    1
   202    54    53    1
