@<TRIPOS>MOLECULE
tmp/5fbnA01.pdb
 114 112 0 0 0
SMALL
GASTEIGER

@<TRIPOS>ATOM
      1  N         -3.5020   20.2460  -29.1800 N.3     1  TRP1       -0.1241
      2  CA        -4.5740   21.1330  -28.5960 C.3     1  TRP1        0.1605
      3  C         -4.8860   22.3980  -29.3800 C.2     1  TRP1        0.2264
      4  O         -5.7330   23.1880  -28.9800 O.2     1  TRP1       -0.2867
      5  CB        -4.1880   21.4960  -27.1830 C.3     1  TRP1        0.0550
      6  CG        -4.0330   20.2380  -26.2700 C.ar    1  TRP1        0.0003
      7  CD1       -5.0530   19.4520  -25.7600 C.ar    1  TRP1        0.0946
      8  CD2       -2.8020   19.6650  -25.7690 C.ar    1  TRP1        0.0152
      9  NE1       -4.5250   18.4380  -24.9780 N.ar    1  TRP1       -0.2442
     10  CE2       -3.1540   18.5390  -24.9730 C.ar    1  TRP1        0.0810
     11  CE3       -1.4360   19.9780  -25.9360 C.ar    1  TRP1        0.0012
     12  CZ2       -2.1800   17.7250  -24.3160 C.ar    1  TRP1        0.0191
     13  CZ3       -0.4530   19.1500  -25.2830 C.ar    1  TRP1        0.0001
     14  CH2       -0.8490   18.0510  -24.4760 C.ar    1  TRP1        0.0015
     15  N         -6.6510   24.4150  -31.9860 N.3     3  ILE3       -0.1245
     16  CA        -7.9060   24.4490  -32.7360 C.3     3  ILE3        0.1561
     17  C         -7.7110   25.4180  -33.8940 C.2     3  ILE3        0.2260
     18  O         -7.0740   26.4720  -33.7440 O.2     3  ILE3       -0.2867
     19  CB        -9.0750   24.8530  -31.8180 C.3     3  ILE3        0.0252
     20  CG1       -9.5390   23.6060  -31.0730 C.3     3  ILE3        0.0019
     21  CG2      -10.2150   25.4900  -32.5880 C.3     3  ILE3        0.0019
     22  CD1      -10.4420   23.8800  -29.9290 C.3     3  ILE3        0.0001
     23  N        -18.3340   25.7530  -32.9310 N.3    27  TRP27      -0.1241
     24  CA       -17.1910   25.0370  -33.4810 C.3    27  TRP27       0.1605
     25  C        -17.7260   24.1160  -34.5770 C.2    27  TRP27       0.2264
     26  O        -18.6540   23.3590  -34.3600 O.2    27  TRP27      -0.2867
     27  CB       -16.4790   24.2370  -32.3880 C.3    27  TRP27       0.0550
     28  CG       -15.2830   23.4800  -32.8000 C.ar   27  TRP27       0.0003
     29  CD1      -14.0110   23.9630  -32.9560 C.ar   27  TRP27       0.0946
     30  CD2      -15.2160   22.0920  -33.0570 C.ar   27  TRP27       0.0152
     31  NE1      -13.1720   22.9690  -33.3380 N.ar   27  TRP27      -0.2442
     32  CE2      -13.8770   21.8020  -33.4140 C.ar   27  TRP27       0.0810
     33  CE3      -16.1620   21.0550  -33.0590 C.ar   27  TRP27       0.0012
     34  CZ2      -13.4530   20.5240  -33.7480 C.ar   27  TRP27       0.0191
     35  CZ3      -15.7510   19.7890  -33.3820 C.ar   27  TRP27       0.0001
     36  CH2      -14.3880   19.5250  -33.7300 C.ar   27  TRP27       0.0015
     37  N        -21.3570   23.0230  -32.8460 N.3    31  TYR31      -0.1227
     38  CA       -21.2220   22.7750  -31.4060 C.3    31  TYR31       0.1736
     39  C        -20.9350   24.0510  -30.6100 C.2    31  TYR31       0.2595
     40  O        -19.9870   24.7630  -30.9030 O.2    31  TYR31      -0.2718
     41  CB       -20.1020   21.7650  -31.1800 C.3    31  TYR31       0.0548
     42  CG       -20.4470   20.4370  -31.8000 C.ar   31  TYR31      -0.0200
     43  CD1      -21.4440   19.6460  -31.2480 C.ar   31  TYR31      -0.0009
     44  CD2      -19.8180   19.9910  -32.9510 C.ar   31  TYR31      -0.0009
     45  CE1      -21.8180   18.4380  -31.8210 C.ar   31  TYR31       0.0417
     46  CE2      -20.1640   18.7720  -33.5180 C.ar   31  TYR31       0.0417
     47  CZ       -21.1710   18.0030  -32.9290 C.ar   31  TYR31       0.1957
     48  OH       -21.5350   16.8000  -33.4790 O.3    31  TYR31      -0.2866
     49  N        -21.7490   24.3060  -29.5900 N.am   32  ASP32      -0.1960
     50  CA       -21.5970   25.5110  -28.7660 C.3    32  ASP32       0.1840
     51  C        -20.2300   25.5370  -28.0760 C.2    32  ASP32       0.2621
     52  O        -19.8070   24.5240  -27.5160 O.2    32  ASP32      -0.2715
     53  CB       -22.6560   25.5620  -27.6710 C.3    32  ASP32       0.1450
     54  CG       -24.0600   25.8740  -28.1920 C.2    32  ASP32       0.3671
     55  OD1      -24.2500   26.3180  -29.3220 O.co2  32  ASP32      -0.2456
     56  OD2      -24.9640   25.7040  -27.3690 O.co2  32  ASP32      -0.2456
     57  N        -19.5800   26.6940  -28.1020 N.am   33  VAL33      -0.1977
     58  CA       -18.3450   26.9180  -27.3730 C.3    33  VAL33       0.1596
     59  C        -18.2840   28.3420  -26.8740 C.2    33  VAL33       0.2287
     60  O        -18.9490   29.2300  -27.4120 O.2    33  VAL33      -0.2864
     61  CB       -17.0400   26.6760  -28.1940 C.3    33  VAL33       0.0276
     62  CG1      -16.9330   25.2290  -28.6380 C.3    33  VAL33       0.0022
     63  CG2      -16.9460   27.6160  -29.3790 C.3    33  VAL33       0.0022
     64  N         -5.2600   18.5820  -20.1920 N.3    57  ASN57      -0.1240
     65  CA        -5.4620   17.2040  -19.7250 C.3    57  ASN57       0.1653
     66  C         -6.3020   17.0480  -18.4810 C.2    57  ASN57       0.2266
     67  O         -6.5700   15.9210  -18.1160 O.2    57  ASN57      -0.2867
     68  CB        -4.1180   16.5200  -19.5150 C.3    57  ASN57       0.1155
     69  CG        -3.3890   16.3150  -20.8260 C.2    57  ASN57       0.2627
     70  OD1       -3.9200   15.6880  -21.7110 O.2    57  ASN57      -0.2716
     71  ND2       -2.2180   16.8920  -20.9720 N.am   57  ASN57      -0.0877
     72  N         -9.7370   16.9150  -16.7140 N.3    59  SER59      -0.1217
     73  CA       -11.1020   16.6590  -17.1320 C.3    59  SER59       0.1889
     74  C        -11.9450   16.2080  -15.9630 C.2    59  SER59       0.2288
     75  O        -11.6250   15.2240  -15.2970 O.2    59  SER59      -0.2866
     76  CB       -11.1500   15.5870  -18.2200 C.3    59  SER59       0.2089
     77  OG       -12.4270   15.6450  -18.8600 O.3    59  SER59      -0.2183
     78  N        -14.9320   22.5030  -19.2110 N.3    65  GLN65      -0.1231
     79  CA       -14.0490   21.7290  -20.0870 C.3    65  GLN65       0.1698
     80  C        -13.2290   22.6410  -21.0160 C.2    65  GLN65       0.2592
     81  O        -13.7800   23.5060  -21.6810 O.2    65  GLN65      -0.2718
     82  CB       -14.8440   20.6680  -20.8690 C.3    65  GLN65       0.0381
     83  CG       -13.9850   19.7020  -21.6990 C.3    65  GLN65       0.0905
     84  CD       -13.0100   18.8890  -20.8750 C.2    65  GLN65       0.2608
     85  OE1      -13.4190   18.2010  -19.9580 O.2    65  GLN65      -0.2717
     86  NE2      -11.7190   18.9760  -21.1720 N.am   65  GLN65      -0.0878
     87  N        -11.9000   22.4580  -20.9960 N.am   66  LEU66      -0.1966
     88  CA       -11.0220   23.1050  -21.9690 C.3    66  LEU66       0.1728
     89  C        -10.9600   22.2830  -23.2490 C.2    66  LEU66       0.2616
     90  O        -10.6640   21.0960  -23.2100 O.2    66  LEU66      -0.2715
     91  CB        -9.6140   23.2820  -21.3820 C.3    66  LEU66       0.0311
     92  CG        -9.6270   24.0390  -20.0420 C.3    66  LEU66       0.0022
     93  CD1       -8.2860   24.0690  -19.3310 C.3    66  LEU66       0.0001
     94  CD2      -10.1240   25.4700  -20.2490 C.3    66  LEU66       0.0001
     95  N        -11.2740   22.9020  -24.3820 N.am   67  TYR67      -0.1974
     96  CA       -11.2340   22.2010  -25.6600 C.3    67  TYR67       0.1639
     97  C         -9.9370   22.4000  -26.4040 C.2    67  TYR67       0.2290
     98  O         -9.4350   21.4700  -27.0590 O.2    67  TYR67      -0.2864
     99  CB       -12.3980   22.6410  -26.5440 C.3    67  TYR67       0.0560
    100  CG       -13.7800   22.3750  -25.9740 C.ar   67  TYR67      -0.0198
    101  CD1      -14.0740   21.1800  -25.3000 C.ar   67  TYR67      -0.0009
    102  CD2      -14.8130   23.2770  -26.1630 C.ar   67  TYR67      -0.0009
    103  CE1      -15.3540   20.9350  -24.8060 C.ar   67  TYR67       0.0417
    104  CE2      -16.0820   23.0290  -25.6520 C.ar   67  TYR67       0.0417
    105  CZ       -16.3300   21.8460  -24.9800 C.ar   67  TYR67       0.1957
    106  OH       -17.5940   21.6030  -24.4720 O.3    67  TYR67      -0.2866
    107  N        -10.5900   28.0630  -26.1060 N.3    79  ILE79      -0.1245
    108  CA       -11.8720   27.5320  -26.4730 C.3    79  ILE79       0.1561
    109  C        -12.3350   26.5580  -25.4080 C.2    79  ILE79       0.2260
    110  O        -11.6330   25.5770  -25.1210 O.2    79  ILE79      -0.2867
    111  CB       -11.7490   26.7840  -27.8110 C.3    79  ILE79       0.0252
    112  CG1      -10.9690   27.6020  -28.8690 C.3    79  ILE79       0.0019
    113  CG2      -13.1460   26.4050  -28.3210 C.3    79  ILE79       0.0019
    114  CD1      -11.5380   28.9730  -29.0870 C.3    79  ILE79       0.0001
@<TRIPOS>BOND
     1    25    26    2
     2    25    24    1
     3    17    18    2
     4    17    16    1
     5    34    36   ar
     6    34    32   ar
     7    36    35   ar
     8    46    44   ar
     9    46    47   ar
    10    24    23    1
    11    24    27    1
    12    48    47    1
    13    32    31   ar
    14    32    30   ar
    15    35    33   ar
    16    31    29   ar
    17    33    30   ar
    18    30    28   ar
    19    29    28   ar
    20    44    42   ar
    21    47    45   ar
    22    37    38    1
    23    28    27    1
    24    16    15    1
    25    16    19    1
    26    21    19    1
    27    45    43   ar
    28    19    20    1
    29    42    43   ar
    30    42    41    1
    31    38    41    1
    32    38    39    1
    33    20    22    1
    34    40    39    2
    35    39    49   am
    36    49    50    1
    37     3     4    2
    38     3     2    1
    39    63    61    1
    40    55    54   ar
    41     1     2    1
    42   114   112    1
    43   112   111    1
    44    50    51    1
    45    50    53    1
    46    62    61    1
    47     2     5    1
    48   113   111    1
    49    61    58    1
    50    54    53    1
    51    54    56   ar
    52    57    51   am
    53    57    58    1
    54    51    52    2
    55   111   108    1
    56    60    59    2
    57    58    59    1
    58     5     6    1
    59    98    97    2
    60    99   100    1
    61    99    96    1
    62   108   107    1
    63   108   109    1
    64    97    96    1
    65     6     8   ar
    66     6     7   ar
    67   102   100   ar
    68   102   104   ar
    69   100   101   ar
    70    11     8   ar
    71    11    13   ar
    72     8    10   ar
    73     7     9   ar
    74    96    95    1
    75   104   105   ar
    76   109   110    2
    77   101   103   ar
    78    13    14   ar
    79   105   103   ar
    80   105   106    1
    81     9    10   ar
    82    10    12   ar
    83    14    12   ar
    84    95    89   am
    85    89    90    2
    86    89    88    1
    87    88    91    1
    88    88    87    1
    89    70    69    2
    90    83    84    1
    91    83    82    1
    92    81    80    2
    93    91    92    1
    94    86    84   am
    95    80    87   am
    96    80    79    1
    97    71    69   am
    98    84    85    2
    99    82    79    1
   100    69    68    1
   101    94    92    1
   102    64    65    1
   103    79    78    1
   104    92    93    1
   105    65    68    1
   106    65    66    1
   107    77    76    1
   108    66    67    2
   109    76    73    1
   110    73    72    1
   111    73    74    1
   112    74    75    2
