@<TRIPOS>MOLECULE
tmp/5fboA01.pdb
 132 132 0 0 0
SMALL
GASTEIGER

@<TRIPOS>ATOM
      1  N        -32.8250   -6.3650   -3.7450 N.3     3  SER3       -0.1202
      2  CA       -32.9740   -6.4160   -5.1990 C.3     3  SER3        0.2020
      3  C        -31.8750   -5.6710   -5.9800 C.2     3  SER3        0.2619
      4  O        -31.7260   -5.9530   -7.1570 O.2     3  SER3       -0.2717
      5  CB       -34.3460   -5.8860   -5.6130 C.3     3  SER3        0.2103
      6  OG       -34.6070   -4.6170   -5.0330 O.3     3  SER3       -0.2182
      7  N        -31.1110   -4.7470   -5.3510 N.am    4  TRP4       -0.1961
      8  CA       -30.0260   -4.0370   -6.0380 C.3     4  TRP4        0.1771
      9  C        -28.7620   -4.8930   -6.1950 C.2     4  TRP4        0.2620
     10  O        -27.8700   -4.5100   -6.9570 O.2     4  TRP4       -0.2715
     11  CB       -29.6990   -2.7110   -5.3280 C.3     4  TRP4        0.0590
     12  CG       -30.8320   -1.7350   -5.4000 C.ar    4  TRP4        0.0006
     13  CD1      -31.8550   -1.5990   -4.5070 C.ar    4  TRP4        0.0946
     14  CD2      -31.1380   -0.8660   -6.4980 C.ar    4  TRP4        0.0152
     15  NE1      -32.7520   -0.6570   -4.9570 N.ar    4  TRP4       -0.2442
     16  CE2      -32.3180   -0.1660   -6.1620 C.ar    4  TRP4        0.0810
     17  CE3      -30.4740   -0.5380   -7.6930 C.ar    4  TRP4        0.0012
     18  CZ2      -32.8870    0.7910   -7.0130 C.ar    4  TRP4        0.0191
     19  CZ3      -31.0220    0.4270   -8.5170 C.ar    4  TRP4        0.0001
     20  CH2      -32.2160    1.0800   -8.1790 C.ar    4  TRP4        0.0015
     21  N        -28.6690   -6.0370   -5.4770 N.am    5  GLU5       -0.1963
     22  CA       -27.4970   -6.9080   -5.5830 C.3     5  GLU5        0.1733
     23  C        -27.5320   -7.6640   -6.9160 C.2     5  GLU5        0.2616
     24  O        -28.4740   -8.4160   -7.1800 O.2     5  GLU5       -0.2715
     25  CB       -27.4350   -7.9040   -4.4090 C.3     5  GLU5        0.0429
     26  CG       -26.1030   -8.6290   -4.2870 C.3     5  GLU5        0.1163
     27  CD       -24.9220   -7.7700   -3.8760 C.2     5  GLU5        0.3649
     28  OE1      -25.1040   -6.8660   -3.0300 O.co2   5  GLU5       -0.2457
     29  OE2      -23.8010   -8.0210   -4.3760 O.co2   5  GLU5       -0.2457
     30  N        -26.5190   -7.4430   -7.7540 N.am    6  ILE6       -0.1977
     31  CA       -26.3970   -8.1180   -9.0430 C.3     6  ILE6        0.1596
     32  C        -25.4740   -9.3120   -8.8460 C.2     6  ILE6        0.2287
     33  O        -24.4470   -9.2030   -8.1680 O.2     6  ILE6       -0.2864
     34  CB       -25.9010   -7.1340  -10.1480 C.3     6  ILE6        0.0276
     35  CG1      -27.1170   -6.3140  -10.6680 C.3     6  ILE6        0.0022
     36  CG2      -25.1740   -7.8610  -11.3220 C.3     6  ILE6        0.0022
     37  CD1      -26.7610   -5.1640  -11.5920 C.3     6  ILE6        0.0001
     38  N        -25.4190   -7.4540  -19.4390 N.3    30  TRP30      -0.1241
     39  CA       -26.0320   -8.1160  -18.2920 C.3    30  TRP30       0.1605
     40  C        -26.9300   -9.2070  -18.8520 C.2    30  TRP30       0.2264
     41  O        -27.7560   -8.9220  -19.7170 O.2    30  TRP30      -0.2867
     42  CB       -26.8110   -7.1480  -17.4090 C.3    30  TRP30       0.0550
     43  CG       -27.4560   -7.8210  -16.2280 C.ar   30  TRP30       0.0003
     44  CD1      -26.9420   -7.9580  -14.9740 C.ar   30  TRP30       0.0946
     45  CD2      -28.7980   -8.3200  -16.1700 C.ar   30  TRP30       0.0152
     46  NE1      -27.8590   -8.5800  -14.1530 N.ar   30  TRP30      -0.2442
     47  CE2      -29.0170   -8.7860  -14.8550 C.ar   30  TRP30       0.0810
     48  CE3      -29.8280   -8.4540  -17.1190 C.ar   30  TRP30       0.0012
     49  CZ2      -30.2130   -9.4050  -14.4710 C.ar   30  TRP30       0.0191
     50  CZ3      -31.0340   -9.0130  -16.7220 C.ar   30  TRP30       0.0001
     51  CH2      -31.2190   -9.4760  -15.4100 C.ar   30  TRP30       0.0015
     52  N        -28.4680   -6.9690  -22.1840 N.3    34  TYR34      -0.1241
     53  CA       -28.5580   -5.5530  -21.8030 C.3    34  TYR34       0.1605
     54  C        -27.1950   -4.8660  -21.6720 C.2    34  TYR34       0.2264
     55  O        -26.3620   -5.2890  -20.8670 O.2    34  TYR34      -0.2867
     56  CB       -29.3500   -5.4080  -20.4870 C.3    34  TYR34       0.0534
     57  CG       -30.7890   -5.8700  -20.6000 C.ar   34  TYR34      -0.0201
     58  CD1      -31.8150   -4.9640  -20.8480 C.ar   34  TYR34      -0.0009
     59  CD2      -31.1260   -7.2140  -20.4620 C.ar   34  TYR34      -0.0009
     60  CE1      -33.1450   -5.3810  -20.9440 C.ar   34  TYR34       0.0417
     61  CE2      -32.4490   -7.6450  -20.5690 C.ar   34  TYR34       0.0417
     62  CZ       -33.4580   -6.7250  -20.8170 C.ar   34  TYR34       0.1957
     63  OH       -34.7770   -7.1170  -20.9080 O.3    34  TYR34      -0.2866
     64  N        -24.4360   -2.3710  -20.4040 N.3    36  VAL36      -0.1245
     65  CA       -24.1620   -1.7800  -19.0930 C.3    36  VAL36       0.1561
     66  C        -22.7600   -1.2320  -19.0690 C.2    36  VAL36       0.2260
     67  O        -21.9210   -1.6190  -19.8930 O.2    36  VAL36      -0.2867
     68  CB       -24.3430   -2.7870  -17.9300 C.3    36  VAL36       0.0252
     69  CG1      -25.8010   -3.2420  -17.8030 C.3    36  VAL36       0.0019
     70  CG2      -23.4140   -4.0000  -18.0830 C.3    36  VAL36       0.0019
     71  N        -33.7970    8.7880   -8.8110 N.3    62  SER62      -0.1202
     72  CA       -33.9420    8.2980  -10.1740 C.3    62  SER62       0.2020
     73  C        -34.6500    9.3020  -11.0720 C.2    62  SER62       0.2619
     74  O        -35.7300    9.7800  -10.7290 O.2    62  SER62      -0.2717
     75  CB       -34.7030    6.9740  -10.1700 C.3    62  SER62       0.2103
     76  OG       -34.8090    6.4340  -11.4740 O.3    62  SER62      -0.2182
     77  N        -34.0630    9.5680  -12.2550 N.am   63  HIS63      -0.1961
     78  CA       -34.6300   10.4680  -13.2450 C.3    63  HIS63       0.1787
     79  C        -34.0920   10.0910  -14.6150 C.2    63  HIS63       0.2620
     80  O        -32.9880    9.5660  -14.7240 O.2    63  HIS63      -0.2715
     81  CB       -34.2660   11.9330  -12.9000 C.3    63  HIS63       0.0785
     82  CG       -34.9940   12.9540  -13.7280 C.ar   63  HIS63       0.0821
     83  ND1      -34.5060   13.3640  -14.9490 N.ar   63  HIS63      -0.2267
     84  CD2      -36.1870   13.5560  -13.5100 C.ar   63  HIS63       0.1154
     85  CE1      -35.3960   14.2220  -15.4270 C.ar   63  HIS63       0.1986
     86  NE2      -36.4140   14.3840  -14.5810 N.ar   63  HIS63      -0.2212
     87  N        -34.8480   10.4090  -15.6550 N.am   64  GLU64      -0.1977
     88  CA       -34.4960   10.1470  -17.0550 C.3    64  GLU64       0.1602
     89  C        -33.1770   10.8540  -17.4460 C.2    64  GLU64       0.2287
     90  O        -32.4820   10.3980  -18.3510 O.2    64  GLU64      -0.2864
     91  CB       -35.6090   10.6230  -18.0160 C.3    64  GLU64       0.0415
     92  CG       -37.0260   10.1670  -17.6660 C.3    64  GLU64       0.1163
     93  CD       -37.8100   11.0900  -16.7460 C.2    64  GLU64       0.3649
     94  OE1      -38.4870   12.0120  -17.2610 O.co2  64  GLU64      -0.2457
     95  OE2      -37.7150   10.9160  -15.5060 O.co2  64  GLU64      -0.2457
     96  N        -28.5420    6.1790  -14.5600 N.3    68  GLN68      -0.1231
     97  CA       -29.2500    5.2370  -13.6910 C.3    68  GLN68       0.1698
     98  C        -28.3820    4.1160  -13.1580 C.2    68  GLN68       0.2592
     99  O        -27.7380    3.4090  -13.9460 O.2    68  GLN68      -0.2718
    100  CB       -30.4490    4.6230  -14.4630 C.3    68  GLN68       0.0381
    101  CG       -31.3260    3.6370  -13.6420 C.3    68  GLN68       0.0905
    102  CD       -31.9060    4.2710  -12.3980 C.2    68  GLN68       0.2608
    103  OE1      -32.5210    5.3400  -12.4670 O.2    68  GLN68      -0.2717
    104  NE2      -31.7310    3.6720  -11.2260 N.am   68  GLN68      -0.0878
    105  N        -28.4280    3.8960  -11.8300 N.am   69  LEU69      -0.1966
    106  CA       -27.7570    2.7500  -11.2320 C.3    69  LEU69       0.1728
    107  C        -28.6550    1.5450  -11.5390 C.2    69  LEU69       0.2616
    108  O        -29.8770    1.6380  -11.4180 O.2    69  LEU69      -0.2715
    109  CB       -27.6060    2.8970   -9.6980 C.3    69  LEU69       0.0311
    110  CG       -27.1890    1.6070   -8.9330 C.3    69  LEU69       0.0022
    111  CD1      -25.7260    1.3000   -9.1460 C.3    69  LEU69       0.0001
    112  CD2      -27.5210    1.7120   -7.4440 C.3    69  LEU69       0.0001
    113  N        -28.0670    0.4430  -11.9640 N.am   70  TYR70      -0.1974
    114  CA       -28.8100   -0.8050  -12.1610 C.3    70  TYR70       0.1639
    115  C        -28.5740   -1.7420  -10.9890 C.2    70  TYR70       0.2290
    116  O        -29.5090   -2.3960  -10.5310 O.2    70  TYR70      -0.2864
    117  CB       -28.4060   -1.4790  -13.4640 C.3    70  TYR70       0.0560
    118  CG       -28.7420   -0.7090  -14.7200 C.ar   70  TYR70      -0.0198
    119  CD1      -29.8990    0.0700  -14.8040 C.ar   70  TYR70      -0.0009
    120  CD2      -27.9920   -0.8740  -15.8750 C.ar   70  TYR70      -0.0009
    121  CE1      -30.2390    0.7310  -15.9810 C.ar   70  TYR70       0.0417
    122  CE2      -28.3820   -0.3000  -17.0820 C.ar   70  TYR70       0.0417
    123  CZ       -29.5080    0.4990  -17.1310 C.ar   70  TYR70       0.1957
    124  OH       -29.8150    1.1450  -18.2970 O.3    70  TYR70      -0.2866
    125  N        -22.9130   -1.2480  -11.3390 N.3    82  ILE82      -0.1245
    126  CA       -23.4830   -1.4840  -12.6660 C.3    82  ILE82       0.1561
    127  C        -24.4180   -0.3140  -12.9950 C.2    82  ILE82       0.2260
    128  O        -25.3710   -0.0720  -12.2590 O.2    82  ILE82      -0.2867
    129  CB       -24.2610   -2.8250  -12.6810 C.3    82  ILE82       0.0252
    130  CG1      -23.4180   -3.9880  -12.0500 C.3    82  ILE82       0.0019
    131  CG2      -24.7440   -3.1570  -14.1040 C.3    82  ILE82       0.0019
    132  CD1      -22.0880   -4.1640  -12.5840 C.3    82  ILE82       0.0001
@<TRIPOS>BOND
     1    52    53    1
     2    53    54    1
     3    53    56    1
     4    54    55    2
     5    60    58   ar
     6    60    62   ar
     7    63    62    1
     8    58    57   ar
     9    62    61   ar
    10    57    56    1
    11    57    59   ar
    12    61    59   ar
    13    64    65    1
    14    67    66    2
    15    41    40    2
    16    38    39    1
    17    65    66    1
    18    65    68    1
    19    40    39    1
    20    90    89    2
    21   124   123    1
    22    39    42    1
    23    70    68    1
    24    91    92    1
    25    91    88    1
    26    68    69    1
    27    92    93    1
    28    89    88    1
    29    42    43    1
    30    94    93   ar
    31   123   122   ar
    32   123   121   ar
    33    48    50   ar
    34    48    45   ar
    35   122   120   ar
    36    88    87    1
    37    93    95   ar
    38    50    51   ar
    39    43    45   ar
    40    43    44   ar
    41    45    47   ar
    42   121   119   ar
    43   120   118   ar
    44    87    79   am
    45    85    83   ar
    46    85    86   ar
    47    51    49   ar
    48    44    46   ar
    49    83    82   ar
    50    47    49   ar
    51    47    46   ar
    52   119   118   ar
    53    80    79    2
    54   118   117    1
    55    79    78    1
    56    86    84   ar
    57    96    97    1
    58   100    97    1
    59   100   101    1
    60   131   129    1
    61    99    98    2
    62    82    84   ar
    63    82    81    1
    64    97    98    1
    65   101   102    1
    66   117   114    1
    67    78    81    1
    68    78    77    1
    69    98   105   am
    70   127   126    1
    71   127   128    2
    72   129   126    1
    73   129   130    1
    74   126   125    1
    75   132   130    1
    76   103   102    2
    77   102   104   am
    78    77    73   am
    79   114   113    1
    80   114   115    1
    81   113   107   am
    82   105   106    1
    83    37    35    1
    84   107   108    2
    85   107   106    1
    86    76    75    1
    87    36    34    1
    88   106   109    1
    89    73    74    2
    90    73    72    1
    91   115   116    2
    92    35    34    1
    93    72    75    1
    94    72    71    1
    95    34    31    1
    96   109   110    1
    97   111   110    1
    98    31    32    1
    99    31    30    1
   100   110   112    1
   101    32    33    2
   102    19    20   ar
   103    19    17   ar
   104    20    18   ar
   105    30    23   am
   106    17    14   ar
   107    24    23    2
   108     4     3    2
   109    18    16   ar
   110    10     9    2
   111    23    22    1
   112    14    16   ar
   113    14    12   ar
   114     9     8    1
   115     9    21   am
   116    16    15   ar
   117     8     7    1
   118     8    11    1
   119     3     7   am
   120     3     2    1
   121     5     2    1
   122     5     6    1
   123    22    21    1
   124    22    25    1
   125    12    11    1
   126    12    13   ar
   127     2     1    1
   128    15    13   ar
   129    25    26    1
   130    29    27   ar
   131    26    27    1
   132    27    28   ar
